0:0:0
     RDKit          3D

 48 53  0  0  1  0  0  0  0  0999 V2000
    2.4875   -7.7651    5.8127 C   0  0  0  0  0  0  0  0  0  0  0  0
    2.9101   -7.0102    4.6344 N   0  0  0  0  0  0  0  0  0  0  0  0
    2.2312   -6.0000    4.0541 C   0  0  0  0  0  0  0  0  0  0  0  0
    1.1399   -5.5515    4.4153 O   0  0  0  0  0  0  0  0  0  0  0  0
    2.9858   -5.4702    2.8158 C   0  0  2  0  0  0  0  0  0  0  0  0
    3.3942   -4.0188    2.9784 C   0  0  0  0  0  0  0  0  0  0  0  0
    4.1139   -3.4944    3.8973 N   0  0  0  0  0  0  0  0  0  0  0  0
    4.4570   -2.1736    3.8015 C   0  0  0  0  0  0  0  0  0  0  0  0
    5.0090   -1.3512    4.6815 N   0  0  0  0  0  0  0  0  0  0  0  0
    5.1495   -0.1532    4.0002 N   0  0  0  0  0  0  0  0  0  0  0  0
    4.7073   -0.2485    2.7848 N   0  0  0  0  0  0  0  0  0  0  0  0
    4.2696   -1.5130    2.6433 N   0  0  0  0  0  0  0  0  0  0  0  0
    3.7499   -2.0569    1.3961 C   0  0  1  0  0  0  0  0  0  0  0  0
    4.8539   -2.3699    0.3686 C   0  0  0  0  0  0  0  0  0  0  0  0
    6.2279   -2.3440    0.7216 C   0  0  0  0  0  0  0  0  0  0  0  0
    7.2229   -2.6453   -0.2267 C   0  0  0  0  0  0  0  0  0  0  0  0
    6.8585   -2.9893   -1.5443 C   0  0  0  0  0  0  0  0  0  0  0  0
    5.4963   -3.0168   -1.9137 C   0  0  0  0  0  0  0  0  0  0  0  0
    5.0056   -3.4532   -3.5076 Cl  0  0  0  0  0  0  0  0  0  0  0  0
    4.5091   -2.6902   -0.9657 C   0  0  0  0  0  0  0  0  0  0  0  0
    2.8437   -3.2613    1.7845 C   0  0  1  0  0  0  0  0  0  0  0  0
    2.5831   -4.3795    0.7595 C   0  0  0  0  0  0  0  0  0  0  0  0
    2.1234   -5.4601    1.6184 N   0  0  0  0  0  0  0  0  0  0  0  0
    1.9222   -6.7279    0.9368 C   0  0  0  0  0  0  0  0  0  0  0  0
    4.1811   -6.4112    2.8236 C   0  0  0  0  0  0  0  0  0  0  0  0
    5.2878   -6.4574    1.9524 C   0  0  0  0  0  0  0  0  0  0  0  0
    6.2909   -7.4185    2.2085 C   0  0  0  0  0  0  0  0  0  0  0  0
    6.1866   -8.3043    3.3089 C   0  0  0  0  0  0  0  0  0  0  0  0
    5.0751   -8.2479    4.1771 C   0  0  0  0  0  0  0  0  0  0  0  0
    4.0874   -7.2808    3.9135 C   0  0  0  0  0  0  0  0  0  0  0  0
    1.5513   -7.3899    6.2270 H   0  0  0  0  0  0  0  0  0  0  0  0
    3.2403   -7.6962    6.5959 H   0  0  0  0  0  0  0  0  0  0  0  0
    2.3358   -8.8171    5.5711 H   0  0  0  0  0  0  0  0  0  0  0  0
    3.1235   -1.2839    0.9450 H   0  0  0  0  0  0  0  0  0  0  0  0
    6.5496   -2.0894    1.7209 H   0  0  0  0  0  0  0  0  0  0  0  0
    8.2624   -2.6072    0.0728 H   0  0  0  0  0  0  0  0  0  0  0  0
    7.6295   -3.2263   -2.2622 H   0  0  0  0  0  0  0  0  0  0  0  0
    3.4729   -2.7325   -1.2721 H   0  0  0  0  0  0  0  0  0  0  0  0
    1.8871   -2.8453    2.1168 H   0  0  0  0  0  0  0  0  0  0  0  0
    1.8426   -4.0859    0.0100 H   0  0  0  0  0  0  0  0  0  0  0  0
    3.4900   -4.7170    0.2543 H   0  0  0  0  0  0  0  0  0  0  0  0
    1.1962   -6.6066    0.1341 H   0  0  0  0  0  0  0  0  0  0  0  0
    1.5575   -7.5066    1.6064 H   0  0  0  0  0  0  0  0  0  0  0  0
    2.8622   -7.0542    0.4948 H   0  0  0  0  0  0  0  0  0  0  0  0
    5.3699   -5.7727    1.1188 H   0  0  0  0  0  0  0  0  0  0  0  0
    7.1519   -7.4782    1.5625 H   0  0  0  0  0  0  0  0  0  0  0  0
    6.9684   -9.0253    3.4873 H   0  0  0  0  0  0  0  0  0  0  0  0
    4.9964   -8.9189    5.0222 H   0  0  0  0  0  0  0  0  0  0  0  0
  1  2  1  0
  1 31  1  0
  1 32  1  0
  1 33  1  0
  2 30  1  0
  2  3  1  0
  3  4  2  0
  3  5  1  0
  5 23  1  6
  5  6  1  0
  5 25  1  0
  6 21  1  0
  6  7  2  0
  7  8  1  0
  8 12  1  0
  8  9  2  0
  9 10  1  0
 10 11  2  0
 11 12  1  0
 12 13  1  0
 13 14  1  0
 13 21  1  0
 13 34  1  6
 14 20  1  0
 14 15  2  0
 15 16  1  0
 15 35  1  0
 16 17  2  0
 16 36  1  0
 17 18  1  0
 17 37  1  0
 18 19  1  0
 18 20  2  0
 20 38  1  0
 21 22  1  0
 21 39  1  1
 22 23  1  0
 22 40  1  0
 22 41  1  0
 23 24  1  0
 24 42  1  0
 24 43  1  0
 24 44  1  0
 25 30  2  0
 25 26  1  0
 26 27  2  0
 26 45  1  0
 27 28  1  0
 27 46  1  0
 28 29  2  0
 28 47  1  0
 29 30  1  0
 29 48  1  0
M  END
>  <i_m_ct_stereo_status>  (1) 
1

>  <s_m_source_file>  (1) 
/var/tmp/pbs.5076255.sched01/tmp5t01l7na/0y8cq_bsf.sdf

>  <i_m_source_file_index>  (1) 
1

>  <i_lp_mmshare_version>  (1) 
48012

>  <i_f3d_flags>  (1) 
0

>  <s_epik_input>  (1) 
W2NIXTFbY0hdW2NIXVtjSF1jKE4oW0NIM10pQzI9TyljMVtDQF0yM0M9NFtDQEhdKFtDSDJdTjNbQ0gzXSlbQ0BASF0objVjKE40KW5ubjUpYzZbY0hdW2NIXVtjSF1jKENsKVtjSF02

>  <s_epik_cmdline>  (1) 
J2VwaWtfcHl0aG9uJywgJy1waHQnLCAnMi4wJywgJy1waCcsICc3LjAnLCAnLXRuJywgJzgnLCAnLW1hJywgJzIwMCcsICctaW1hZScsICc8aW5maWxlLm1hZT4nLCAnLW9tYWUnLCAnPG91dGZpbGUubWFlPic=

>  <r_lp_tautomer_probability>  (1) 
1

>  <r_epik_Ionization_Penalty>  (1) 
5.03677e-05

>  <r_epik_Ionization_Penalty_Charging>  (1) 
0

>  <r_epik_Ionization_Penalty_Neutral>  (1) 
5.03677e-05

>  <r_epik_State_Penalty>  (1) 
-0

>  <r_epik_Charging_Adjusted_Penalty>  (1) 
0

>  <i_epik_Tot_Q>  (1) 
0

>  <i_epik_Tot_abs_Q>  (1) 
0

>  <s_epik_Chemistry_Notes>  (1) 
This compound has an imine and may undergo hydrolysis.

>  <s_lp_Force_Field>  (1) 
OPLS3e

>  <r_lp_Energy>  (1) 
51.2468

>  <b_lp_Chiralities_Consistent>  (1) 
1

>  <s_lp_Variant>  (1) 
0:0-1

>  <s_i_glide_gridfile>  (1) 
pfpi4k_grid

>  <i_i_glide_lignum>  (1) 
1

>  <i_i_glide_rotatable_bonds>  (1) 
1

>  <r_i_docking_score>  (1) 
-2.90943

>  <r_i_glide_ligand_efficiency>  (1) 
-0.0969811

>  <r_i_glide_ligand_efficiency_sa>  (1) 
-0.301343

>  <r_i_glide_ligand_efficiency_ln>  (1) 
-0.661055

>  <r_i_glide_gscore>  (1) 
-2.90943

>  <r_i_glide_lipo>  (1) 
-0.52724

>  <r_i_glide_hbond>  (1) 
0

>  <r_i_glide_metal>  (1) 
-0

>  <r_i_glide_rewards>  (1) 
-0.596603

>  <r_i_glide_evdw>  (1) 
-28.2072

>  <r_i_glide_ecoul>  (1) 
-3.24805

>  <r_i_glide_erotb>  (1) 
0.112244

>  <r_i_glide_esite>  (1) 
-0.000263463

>  <r_i_glide_emodel>  (1) 
-35.9692

>  <r_i_glide_energy>  (1) 
-31.4553

>  <r_i_glide_einternal>  (1) 
2.07273

>  <r_i_glide_intrahb_reward>  (1) 
-0

>  <i_i_glide_confnum>  (1) 
2

>  <i_i_glide_posenum>  (1) 
15

>  <r_i_glide_eff_state_penalty>  (1) 
0

>  <ligand_id>  (1) 
0

>  <original_smiles>  (1) 
CN1C(=O)C2(C3=Nc4nnnn4C(c4cccc(Cl)c4)C3CN2C)c2ccccc21

>  <smiles>  (1) 
[H]c1c([H])c([H])c2c(c1[H])N(C([H])([H])[H])C(=O)C21C2=Nc3nnnn3C([H])(c3c([H])c([H])c([H])c(Cl)c3[H])C2([H])C([H])([H])N1C([H])([H])[H]

$$$$
0:0:1
     RDKit          3D

 48 53  0  0  1  0  0  0  0  0999 V2000
    2.1469   -7.6939    5.3238 C   0  0  0  0  0  0  0  0  0  0  0  0
    2.6703   -6.8851    4.2225 N   0  0  0  0  0  0  0  0  0  0  0  0
    2.0711   -5.8089    3.6740 C   0  0  0  0  0  0  0  0  0  0  0  0
    0.9785   -5.3376    4.0010 O   0  0  0  0  0  0  0  0  0  0  0  0
    2.9270   -5.2326    2.5223 C   0  0  2  0  0  0  0  0  0  0  0  0
    3.3816   -3.8156    2.8039 C   0  0  0  0  0  0  0  0  0  0  0  0
    4.0726   -3.3901    3.7934 N   0  0  0  0  0  0  0  0  0  0  0  0
    4.4867   -2.0861    3.8037 C   0  0  0  0  0  0  0  0  0  0  0  0
    5.0135   -1.3488    4.7664 N   0  0  0  0  0  0  0  0  0  0  0  0
    5.2531   -0.1194    4.1794 N   0  0  0  0  0  0  0  0  0  0  0  0
    4.8930   -0.1180    2.9303 N   0  0  0  0  0  0  0  0  0  0  0  0
    4.4063   -1.3470    2.6794 N   0  0  0  0  0  0  0  0  0  0  0  0
    3.9115   -1.7758    1.3817 C   0  0  1  0  0  0  0  0  0  0  0  0
    5.0341   -2.0981    0.3837 C   0  0  0  0  0  0  0  0  0  0  0  0
    4.8016   -1.9753   -1.0056 C   0  0  0  0  0  0  0  0  0  0  0  0
    5.8064   -2.3283   -1.9276 C   0  0  0  0  0  0  0  0  0  0  0  0
    7.0588   -2.7805   -1.4756 C   0  0  0  0  0  0  0  0  0  0  0  0
    7.3046   -2.8951   -0.0966 C   0  0  0  0  0  0  0  0  0  0  0  0
    8.8357   -3.4593    0.4630 Cl  0  0  0  0  0  0  0  0  0  0  0  0
    6.2980   -2.5576    0.8271 C   0  0  0  0  0  0  0  0  0  0  0  0
    2.9272   -2.9528    1.6383 C   0  0  1  0  0  0  0  0  0  0  0  0
    2.6706   -3.9743    0.5181 C   0  0  0  0  0  0  0  0  0  0  0  0
    2.1546   -5.1046    1.2769 N   0  0  0  0  0  0  0  0  0  0  0  0
    1.9077   -6.3049    0.5055 C   0  0  0  0  0  0  0  0  0  0  0  0
    4.0722   -6.2288    2.5323 C   0  0  0  0  0  0  0  0  0  0  0  0
    5.2176   -6.2747    1.7154 C   0  0  0  0  0  0  0  0  0  0  0  0
    6.1572   -7.2991    1.9549 C   0  0  0  0  0  0  0  0  0  0  0  0
    5.9519   -8.2488    2.9847 C   0  0  0  0  0  0  0  0  0  0  0  0
    4.7977   -8.1953    3.7954 C   0  0  0  0  0  0  0  0  0  0  0  0
    3.8753   -7.1643    3.5507 C   0  0  0  0  0  0  0  0  0  0  0  0
    1.2084   -7.3023    5.7142 H   0  0  0  0  0  0  0  0  0  0  0  0
    2.8580   -7.7145    6.1477 H   0  0  0  0  0  0  0  0  0  0  0  0
    1.9623   -8.7196    5.0043 H   0  0  0  0  0  0  0  0  0  0  0  0
    3.3459   -0.9385    0.9648 H   0  0  0  0  0  0  0  0  0  0  0  0
    3.8398   -1.6408   -1.3715 H   0  0  0  0  0  0  0  0  0  0  0  0
    5.6138   -2.2647   -2.9875 H   0  0  0  0  0  0  0  0  0  0  0  0
    7.8311   -3.0532   -2.1807 H   0  0  0  0  0  0  0  0  0  0  0  0
    6.5079   -2.6634    1.8812 H   0  0  0  0  0  0  0  0  0  0  0  0
    1.9742   -2.5122    1.9471 H   0  0  0  0  0  0  0  0  0  0  0  0
    1.9460   -3.6105   -0.2173 H   0  0  0  0  0  0  0  0  0  0  0  0
    3.5835   -4.2781    0.0033 H   0  0  0  0  0  0  0  0  0  0  0  0
    1.2343   -6.0931   -0.3208 H   0  0  0  0  0  0  0  0  0  0  0  0
    1.4686   -7.1047    1.1034 H   0  0  0  0  0  0  0  0  0  0  0  0
    2.8544   -6.6452    0.0877 H   0  0  0  0  0  0  0  0  0  0  0  0
    5.3705   -5.5419    0.9334 H   0  0  0  0  0  0  0  0  0  0  0  0
    7.0472   -7.3565    1.3509 H   0  0  0  0  0  0  0  0  0  0  0  0
    6.6881   -9.0163    3.1535 H   0  0  0  0  0  0  0  0  0  0  0  0
    4.6415   -8.9164    4.5878 H   0  0  0  0  0  0  0  0  0  0  0  0
  1  2  1  0
  1 31  1  0
  1 32  1  0
  1 33  1  0
  2 30  1  0
  2  3  1  0
  3  4  2  0
  3  5  1  0
  5 23  1  6
  5  6  1  0
  5 25  1  0
  6 21  1  0
  6  7  2  0
  7  8  1  0
  8 12  1  0
  8  9  2  0
  9 10  1  0
 10 11  2  0
 11 12  1  0
 12 13  1  0
 13 14  1  0
 13 21  1  0
 13 34  1  6
 14 20  1  0
 14 15  2  0
 15 16  1  0
 15 35  1  0
 16 17  2  0
 16 36  1  0
 17 18  1  0
 17 37  1  0
 18 19  1  0
 18 20  2  0
 20 38  1  0
 21 22  1  0
 21 39  1  1
 22 23  1  0
 22 40  1  0
 22 41  1  0
 23 24  1  0
 24 42  1  0
 24 43  1  0
 24 44  1  0
 25 30  2  0
 25 26  1  0
 26 27  2  0
 26 45  1  0
 27 28  1  0
 27 46  1  0
 28 29  2  0
 28 47  1  0
 29 30  1  0
 29 48  1  0
M  END
>  <i_m_ct_stereo_status>  (2) 
1

>  <s_m_source_file>  (2) 
/var/tmp/pbs.5076255.sched01/tmp5t01l7na/0y8cq_bsf.sdf

>  <i_m_source_file_index>  (2) 
1

>  <i_lp_mmshare_version>  (2) 
48012

>  <i_f3d_flags>  (2) 
0

>  <s_epik_input>  (2) 
W2NIXTFbY0hdW2NIXVtjSF1jKE4oW0NIM10pQzI9TyljMVtDQF0yM0M9NFtDQEhdKFtDSDJdTjNbQ0gzXSlbQ0BASF0objVjKE40KW5ubjUpYzZbY0hdW2NIXVtjSF1jKENsKVtjSF02

>  <s_epik_cmdline>  (2) 
J2VwaWtfcHl0aG9uJywgJy1waHQnLCAnMi4wJywgJy1waCcsICc3LjAnLCAnLXRuJywgJzgnLCAnLW1hJywgJzIwMCcsICctaW1hZScsICc8aW5maWxlLm1hZT4nLCAnLW9tYWUnLCAnPG91dGZpbGUubWFlPic=

>  <r_lp_tautomer_probability>  (2) 
1

>  <r_epik_Ionization_Penalty>  (2) 
5.03677e-05

>  <r_epik_Ionization_Penalty_Charging>  (2) 
0

>  <r_epik_Ionization_Penalty_Neutral>  (2) 
5.03677e-05

>  <r_epik_State_Penalty>  (2) 
-0

>  <r_epik_Charging_Adjusted_Penalty>  (2) 
0

>  <i_epik_Tot_Q>  (2) 
0

>  <i_epik_Tot_abs_Q>  (2) 
0

>  <s_epik_Chemistry_Notes>  (2) 
This compound has an imine and may undergo hydrolysis.

>  <s_lp_Force_Field>  (2) 
OPLS3e

>  <r_lp_Energy>  (2) 
51.2468

>  <b_lp_Chiralities_Consistent>  (2) 
1

>  <s_lp_Variant>  (2) 
0:0-1

>  <s_i_glide_gridfile>  (2) 
pfpi4k_grid

>  <i_i_glide_lignum>  (2) 
1

>  <i_i_glide_rotatable_bonds>  (2) 
1

>  <r_i_docking_score>  (2) 
-2.81774

>  <r_i_glide_ligand_efficiency>  (2) 
-0.0939246

>  <r_i_glide_ligand_efficiency_sa>  (2) 
-0.291846

>  <r_i_glide_ligand_efficiency_ln>  (2) 
-0.640221

>  <r_i_glide_gscore>  (2) 
-2.81774

>  <r_i_glide_lipo>  (2) 
-0.496635

>  <r_i_glide_hbond>  (2) 
-0.0177922

>  <r_i_glide_metal>  (2) 
-0

>  <r_i_glide_rewards>  (2) 
-0.620222

>  <r_i_glide_evdw>  (2) 
-26.9522

>  <r_i_glide_ecoul>  (2) 
-2.97539

>  <r_i_glide_erotb>  (2) 
0.112244

>  <r_i_glide_esite>  (2) 
-0.00141241

>  <r_i_glide_emodel>  (2) 
-35.2549

>  <r_i_glide_energy>  (2) 
-29.9276

>  <r_i_glide_einternal>  (2) 
0.4359

>  <r_i_glide_intrahb_reward>  (2) 
-0

>  <i_i_glide_confnum>  (2) 
1

>  <i_i_glide_posenum>  (2) 
1

>  <r_i_glide_eff_state_penalty>  (2) 
0

>  <ligand_id>  (2) 
0

>  <original_smiles>  (2) 
CN1C(=O)C2(C3=Nc4nnnn4C(c4cccc(Cl)c4)C3CN2C)c2ccccc21

>  <smiles>  (2) 
[H]c1c([H])c([H])c2c(c1[H])N(C([H])([H])[H])C(=O)C21C2=Nc3nnnn3C([H])(c3c([H])c([H])c([H])c(Cl)c3[H])C2([H])C([H])([H])N1C([H])([H])[H]

$$$$
0:0:2
     RDKit          3D

 48 53  0  0  1  0  0  0  0  0999 V2000
    3.3244   -1.1260   -3.7987 C   0  0  0  0  0  0  0  0  0  0  0  0
    3.6050   -1.6316   -2.4550 N   0  0  0  0  0  0  0  0  0  0  0  0
    4.5827   -1.2305   -1.6385 C   0  0  0  0  0  0  0  0  0  0  0  0
    5.4121   -0.3924   -1.9257 O   0  0  0  0  0  0  0  0  0  0  0  0
    4.6067   -1.9863   -0.3066 C   0  0  2  0  0  0  0  0  0  0  0  0
    4.3302   -1.0779    0.8807 C   0  0  0  0  0  0  0  0  0  0  0  0
    3.3100   -0.3343    1.1024 N   0  0  0  0  0  0  0  0  0  0  0  0
    3.1784    0.2785    2.3200 C   0  0  0  0  0  0  0  0  0  0  0  0
    2.3506    1.2315    2.7311 N   0  0  0  0  0  0  0  0  0  0  0  0
    2.7146    1.4659    4.0491 N   0  0  0  0  0  0  0  0  0  0  0  0
    3.6778    0.6760    4.4233 N   0  0  0  0  0  0  0  0  0  0  0  0
    3.9722   -0.0808    3.3452 N   0  0  0  0  0  0  0  0  0  0  0  0
    5.0049   -1.0965    3.3338 C   0  0  1  0  0  0  0  0  0  0  0  0
    4.5602   -2.3956    4.0225 C   0  0  0  0  0  0  0  0  0  0  0  0
    5.2864   -2.9334    5.1134 C   0  0  0  0  0  0  0  0  0  0  0  0
    4.8897   -4.1519    5.7002 C   0  0  0  0  0  0  0  0  0  0  0  0
    3.7680   -4.8439    5.2047 C   0  0  0  0  0  0  0  0  0  0  0  0
    3.0322   -4.3107    4.1316 C   0  0  0  0  0  0  0  0  0  0  0  0
    1.6651   -5.1550    3.5027 Cl  0  0  0  0  0  0  0  0  0  0  0  0
    3.4176   -3.0852    3.5598 C   0  0  0  0  0  0  0  0  0  0  0  0
    5.4812   -1.2641    1.8592 C   0  0  1  0  0  0  0  0  0  0  0  0
    6.1048   -2.6010    1.4201 C   0  0  0  0  0  0  0  0  0  0  0  0
    5.9366   -2.5420   -0.0243 N   0  0  0  0  0  0  0  0  0  0  0  0
    6.3303   -3.7399   -0.7477 C   0  0  0  0  0  0  0  0  0  0  0  0
    3.4934   -2.9562   -0.5958 C   0  0  0  0  0  0  0  0  0  0  0  0
    2.9969   -3.9877    0.2129 C   0  0  0  0  0  0  0  0  0  0  0  0
    1.9086   -4.7190   -0.2855 C   0  0  0  0  0  0  0  0  0  0  0  0
    1.3179   -4.3804   -1.5185 C   0  0  0  0  0  0  0  0  0  0  0  0
    1.8489   -3.3907   -2.3480 C   0  0  0  0  0  0  0  0  0  0  0  0
    2.9400   -2.6824   -1.8450 C   0  0  0  0  0  0  0  0  0  0  0  0
    3.9600   -0.2850   -4.0694 H   0  0  0  0  0  0  0  0  0  0  0  0
    2.2980   -0.7756   -3.8613 H   0  0  0  0  0  0  0  0  0  0  0  0
    3.4578   -1.9037   -4.5506 H   0  0  0  0  0  0  0  0  0  0  0  0
    5.8405   -0.6843    3.9053 H   0  0  0  0  0  0  0  0  0  0  0  0
    6.1542   -2.4238    5.5029 H   0  0  0  0  0  0  0  0  0  0  0  0
    5.4502   -4.5568    6.5282 H   0  0  0  0  0  0  0  0  0  0  0  0
    3.4700   -5.7801    5.6504 H   0  0  0  0  0  0  0  0  0  0  0  0
    2.8449   -2.6818    2.7389 H   0  0  0  0  0  0  0  0  0  0  0  0
    6.1867   -0.4551    1.6493 H   0  0  0  0  0  0  0  0  0  0  0  0
    7.1596   -2.6791    1.6848 H   0  0  0  0  0  0  0  0  0  0  0  0
    5.5731   -3.4685    1.8121 H   0  0  0  0  0  0  0  0  0  0  0  0
    7.3706   -3.9717   -0.5300 H   0  0  0  0  0  0  0  0  0  0  0  0
    6.2313   -3.6182   -1.8280 H   0  0  0  0  0  0  0  0  0  0  0  0
    5.7253   -4.5922   -0.4420 H   0  0  0  0  0  0  0  0  0  0  0  0
    3.4215   -4.2066    1.1799 H   0  0  0  0  0  0  0  0  0  0  0  0
    1.5033   -5.5190    0.3036 H   0  0  0  0  0  0  0  0  0  0  0  0
    0.4943   -4.9689   -1.8609 H   0  0  0  0  0  0  0  0  0  0  0  0
    1.4260   -3.1870   -3.3211 H   0  0  0  0  0  0  0  0  0  0  0  0
  1  2  1  0
  1 31  1  0
  1 32  1  0
  1 33  1  0
  2 30  1  0
  2  3  1  0
  3  4  2  0
  3  5  1  0
  5 23  1  1
  5  6  1  0
  5 25  1  0
  6 21  1  0
  6  7  2  0
  7  8  1  0
  8 12  1  0
  8  9  2  0
  9 10  1  0
 10 11  2  0
 11 12  1  0
 12 13  1  0
 13 14  1  0
 13 21  1  0
 13 34  1  1
 14 20  1  0
 14 15  2  0
 15 16  1  0
 15 35  1  0
 16 17  2  0
 16 36  1  0
 17 18  1  0
 17 37  1  0
 18 19  1  0
 18 20  2  0
 20 38  1  0
 21 22  1  0
 21 39  1  6
 22 23  1  0
 22 40  1  0
 22 41  1  0
 23 24  1  0
 24 42  1  0
 24 43  1  0
 24 44  1  0
 25 30  2  0
 25 26  1  0
 26 27  2  0
 26 45  1  0
 27 28  1  0
 27 46  1  0
 28 29  2  0
 28 47  1  0
 29 30  1  0
 29 48  1  0
M  END
>  <i_m_ct_stereo_status>  (3) 
1

>  <s_m_source_file>  (3) 
/var/tmp/pbs.5076255.sched01/tmp5t01l7na/0y8cq_bsf.sdf

>  <i_m_source_file_index>  (3) 
1

>  <i_lp_mmshare_version>  (3) 
48012

>  <i_f3d_flags>  (3) 
0

>  <s_epik_input>  (3) 
W2NIXTFbY0hdW2NIXVtjSF1jKE4oW0NIM10pQzI9TyljMVtDQF0yM0M9NFtDQEhdKFtDSDJdTjNbQ0gzXSlbQ0BASF0objVjKE40KW5ubjUpYzZbY0hdW2NIXVtjSF1jKENsKVtjSF02

>  <s_epik_cmdline>  (3) 
J2VwaWtfcHl0aG9uJywgJy1waHQnLCAnMi4wJywgJy1waCcsICc3LjAnLCAnLXRuJywgJzgnLCAnLW1hJywgJzIwMCcsICctaW1hZScsICc8aW5maWxlLm1hZT4nLCAnLW9tYWUnLCAnPG91dGZpbGUubWFlPic=

>  <r_lp_tautomer_probability>  (3) 
1

>  <r_epik_Ionization_Penalty>  (3) 
5.03677e-05

>  <r_epik_Ionization_Penalty_Charging>  (3) 
0

>  <r_epik_Ionization_Penalty_Neutral>  (3) 
5.03677e-05

>  <r_epik_State_Penalty>  (3) 
-0

>  <r_epik_Charging_Adjusted_Penalty>  (3) 
0

>  <i_epik_Tot_Q>  (3) 
0

>  <i_epik_Tot_abs_Q>  (3) 
0

>  <s_epik_Chemistry_Notes>  (3) 
This compound has an imine and may undergo hydrolysis.

>  <s_lp_Force_Field>  (3) 
OPLS3e

>  <r_lp_Energy>  (3) 
51.2468

>  <b_lp_Chiralities_Consistent>  (3) 
1

>  <s_lp_Variant>  (3) 
0:0-1

>  <s_i_glide_gridfile>  (3) 
pfpi4k_grid

>  <i_i_glide_lignum>  (3) 
1

>  <i_i_glide_rotatable_bonds>  (3) 
1

>  <r_i_docking_score>  (3) 
-1.87626

>  <r_i_glide_ligand_efficiency>  (3) 
-0.0625421

>  <r_i_glide_ligand_efficiency_sa>  (3) 
-0.194333

>  <r_i_glide_ligand_efficiency_ln>  (3) 
-0.426307

>  <r_i_glide_gscore>  (3) 
-1.87626

>  <r_i_glide_lipo>  (3) 
-0.795909

>  <r_i_glide_hbond>  (3) 
-0.00324974

>  <r_i_glide_metal>  (3) 
-0

>  <r_i_glide_rewards>  (3) 
-0.658624

>  <r_i_glide_evdw>  (3) 
-13.076

>  <r_i_glide_ecoul>  (3) 
1.49499

>  <r_i_glide_erotb>  (3) 
0.112244

>  <r_i_glide_esite>  (3) 
-0.101173

>  <r_i_glide_emodel>  (3) 
-15.0085

>  <r_i_glide_energy>  (3) 
-11.581

>  <r_i_glide_einternal>  (3) 
0.0954949

>  <r_i_glide_intrahb_reward>  (3) 
-0

>  <i_i_glide_confnum>  (3) 
1

>  <i_i_glide_posenum>  (3) 
35

>  <r_i_glide_eff_state_penalty>  (3) 
0

>  <ligand_id>  (3) 
0

>  <original_smiles>  (3) 
CN1C(=O)C2(C3=Nc4nnnn4C(c4cccc(Cl)c4)C3CN2C)c2ccccc21

>  <smiles>  (3) 
[H]c1c([H])c([H])c2c(c1[H])N(C([H])([H])[H])C(=O)C21C2=Nc3nnnn3C([H])(c3c([H])c([H])c([H])c(Cl)c3[H])C2([H])C([H])([H])N1C([H])([H])[H]

$$$$
1:1:0
     RDKit          3D

 63 62  0  0  1  0  0  0  0  0999 V2000
    3.1930    0.2876   -5.9160 C   0  0  0  0  0  0  0  0  0  0  0  0
    3.1831    1.0858   -4.6591 C   0  0  0  0  0  0  0  0  0  0  0  0
    3.8848    0.3448   -3.4948 C   0  0  0  0  0  0  0  0  0  0  0  0
    3.1311   -0.8541   -2.9290 C   0  0  0  0  0  0  0  0  0  0  0  0
    3.7772   -1.5144   -1.7101 C   0  0  0  0  0  0  0  0  0  0  0  0
    5.1403   -2.0955   -2.0356 C   0  0  0  0  0  0  0  0  0  0  0  0
    5.5570   -3.3691   -1.9250 C   0  0  0  0  0  0  0  0  0  0  0  0
    4.7311   -4.5556   -1.4559 C   0  0  0  0  0  0  0  0  0  0  0  0
    4.9040   -4.7262    0.0209 C   0  0  0  0  0  0  0  0  0  0  0  0
    5.5805   -5.6764    0.6587 C   0  0  0  0  0  0  0  0  0  0  0  0
    5.8160   -5.8245    2.1746 C   0  0  0  0  0  0  0  0  0  0  0  0
    4.8624   -5.0644    3.0673 C   0  0  0  0  0  0  0  0  0  0  0  0
    4.4578   -3.7896    2.9560 C   0  0  0  0  0  0  0  0  0  0  0  0
    3.3724   -3.0460    3.7111 C   0  0  0  0  0  0  0  0  0  0  0  0
    2.7942   -3.7390    4.9390 C   0  0  0  0  0  0  0  0  0  0  0  0
    2.4842   -5.0485    5.0107 C   0  0  0  0  0  0  0  0  0  0  0  0
    2.0353   -5.7543    6.2510 C   0  0  0  0  0  0  0  0  0  0  0  0
    0.5308   -6.0530    6.1470 C   0  0  2  0  0  0  0  0  0  0  0  0
   -0.0694   -6.2174    7.5572 C   0  0  0  0  0  0  0  0  0  0  0  0
   -1.3010   -5.3279    7.8316 C   0  0  0  0  0  0  0  0  0  0  0  0
   -0.9877   -3.8496    8.0339 C   0  0  0  0  0  0  0  0  0  0  0  0
   -0.9628   -3.1097    7.0517 O   0  0  0  0  0  0  0  0  0  0  0  0
   -0.8885   -3.4594    9.2384 O   0  0  0  0  0  0  0  0  0  0  0  0
    0.1640   -7.2287    5.1798 C   0  0  2  0  0  0  0  0  0  0  0  0
    0.8550   -8.5761    5.4831 C   0  0  0  0  0  0  0  0  0  0  0  0
    0.4400   -6.9020    3.8315 O   0  0  0  0  0  0  0  0  0  0  0  0
    2.7389    0.8884   -6.6991 H   0  0  0  0  0  0  0  0  0  0  0  0
    2.6766   -0.6434   -5.7064 H   0  0  0  0  0  0  0  0  0  0  0  0
    4.2143    0.0808   -6.1613 H   0  0  0  0  0  0  0  0  0  0  0  0
    3.6747    2.0496   -4.8220 H   0  0  0  0  0  0  0  0  0  0  0  0
    2.1271    1.2838   -4.4493 H   0  0  0  0  0  0  0  0  0  0  0  0
    4.8070   -0.1143   -3.8133 H   0  0  0  0  0  0  0  0  0  0  0  0
    4.0998    1.0732   -2.7186 H   0  0  0  0  0  0  0  0  0  0  0  0
    2.2140   -0.4321   -2.5714 H   0  0  0  0  0  0  0  0  0  0  0  0
    2.9446   -1.6007   -3.7125 H   0  0  0  0  0  0  0  0  0  0  0  0
    3.8881   -0.7833   -0.9007 H   0  0  0  0  0  0  0  0  0  0  0  0
    3.0898   -2.2714   -1.3317 H   0  0  0  0  0  0  0  0  0  0  0  0
    5.8422   -1.3485   -2.3718 H   0  0  0  0  0  0  0  0  0  0  0  0
    6.5925   -3.5713   -2.1719 H   0  0  0  0  0  0  0  0  0  0  0  0
    3.6726   -4.3302   -1.5663 H   0  0  0  0  0  0  0  0  0  0  0  0
    4.9799   -5.4853   -1.9965 H   0  0  0  0  0  0  0  0  0  0  0  0
    4.3797   -3.9088    0.5125 H   0  0  0  0  0  0  0  0  0  0  0  0
    6.0581   -6.4760    0.0767 H   0  0  0  0  0  0  0  0  0  0  0  0
    5.6600   -6.8742    2.4126 H   0  0  0  0  0  0  0  0  0  0  0  0
    6.8560   -5.5875    2.4398 H   0  0  0  0  0  0  0  0  0  0  0  0
    4.5520   -5.7220    3.8726 H   0  0  0  0  0  0  0  0  0  0  0  0
    4.9457   -3.1062    2.2524 H   0  0  0  0  0  0  0  0  0  0  0  0
    3.7771   -2.0920    4.0398 H   0  0  0  0  0  0  0  0  0  0  0  0
    2.5596   -2.7892    3.0255 H   0  0  0  0  0  0  0  0  0  0  0  0
    2.6201   -3.1107    5.8029 H   0  0  0  0  0  0  0  0  0  0  0  0
    2.5402   -5.6810    4.1354 H   0  0  0  0  0  0  0  0  0  0  0  0
    2.6347   -6.6565    6.3686 H   0  0  0  0  0  0  0  0  0  0  0  0
    2.2906   -5.1374    7.1157 H   0  0  0  0  0  0  0  0  0  0  0  0
    0.0749   -5.1527    5.7234 H   0  0  0  0  0  0  0  0  0  0  0  0
   -0.3227   -7.2656    7.7262 H   0  0  0  0  0  0  0  0  0  0  0  0
    0.6801   -5.9929    8.3173 H   0  0  0  0  0  0  0  0  0  0  0  0
   -2.0674   -5.4472    7.0688 H   0  0  0  0  0  0  0  0  0  0  0  0
   -1.7319   -5.6194    8.7710 H   0  0  0  0  0  0  0  0  0  0  0  0
   -0.9200   -7.3686    5.2047 H   0  0  0  0  0  0  0  0  0  0  0  0
    0.5247   -8.9723    6.4445 H   0  0  0  0  0  0  0  0  0  0  0  0
    1.9448   -8.5141    5.5082 H   0  0  0  0  0  0  0  0  0  0  0  0
    0.6201   -9.3154    4.7164 H   0  0  0  0  0  0  0  0  0  0  0  0
    1.3746   -6.9535    3.7152 H   0  0  0  0  0  0  0  0  0  0  0  0
  1  2  1  0
  1 27  1  0
  1 28  1  0
  1 29  1  0
  2  3  1  0
  2 30  1  0
  2 31  1  0
  3  4  1  0
  3 32  1  0
  3 33  1  0
  4  5  1  0
  4 34  1  0
  4 35  1  0
  5  6  1  0
  5 36  1  0
  5 37  1  0
  6  7  2  3
  6 38  1  0
  7  8  1  0
  7 39  1  0
  8  9  1  0
  8 40  1  0
  8 41  1  0
  9 10  2  3
  9 42  1  0
 10 11  1  0
 10 43  1  0
 11 12  1  0
 11 44  1  0
 11 45  1  0
 12 13  2  3
 12 46  1  0
 13 14  1  0
 13 47  1  0
 14 15  1  0
 14 48  1  0
 14 49  1  0
 15 16  2  3
 15 50  1  0
 16 17  1  0
 16 51  1  0
 17 18  1  0
 17 52  1  0
 17 53  1  0
 18 19  1  0
 18 24  1  0
 18 54  1  6
 19 20  1  0
 19 55  1  0
 19 56  1  0
 20 21  1  0
 20 57  1  0
 20 58  1  0
 21 22  2  0
 21 23  1  0
 24 25  1  0
 24 26  1  0
 24 59  1  6
 25 60  1  0
 25 61  1  0
 25 62  1  0
 26 63  1  0
M  CHG  1  23  -1
M  END
>  <i_m_ct_stereo_status>  (4) 
1

>  <s_m_source_file>  (4) 
/var/tmp/pbs.5076255.sched01/tmp5t01l7na/0y8cq_bsf.sdf

>  <i_m_source_file_index>  (4) 
3

>  <i_lp_mmshare_version>  (4) 
48012

>  <i_f3d_flags>  (4) 
0

>  <s_epik_input>  (4) 
W0NIM11bQ0gyXVtDSDJdW0NIMl1bQ0gyXS9bQ0hdPVtDSF0vW0NIMl0vW0NIXT1bQ0hdL1tDSDJdL1tDSF09W0NIXS9bQ0gyXS9bQ0hdPVtDSF0vW0NIMl1bQ0BASF0oW0NASF0oW0NIM10pW09IXSlbQ0gyXVtDSDJdQyg9TylbT0hd

>  <s_epik_cmdline>  (4) 
J2VwaWtfcHl0aG9uJywgJy1waHQnLCAnMi4wJywgJy1waCcsICc3LjAnLCAnLXRuJywgJzgnLCAnLW1hJywgJzIwMCcsICctaW1hZScsICc8aW5maWxlLm1hZT4nLCAnLW9tYWUnLCAnPG91dGZpbGUubWFlPic=

>  <r_epik_Ionization_Penalty>  (4) 
0.00442386

>  <r_epik_Ionization_Penalty_Charging>  (4) 
0.00442292

>  <r_epik_Ionization_Penalty_Neutral>  (4) 
9.38996e-07

>  <r_epik_State_Penalty>  (4) 
0.00318855

>  <r_epik_Charging_Adjusted_Penalty>  (4) 
0.00761147

>  <i_epik_Tot_Q>  (4) 
-1

>  <i_epik_Tot_abs_Q>  (4) 
1

>  <s_lp_Force_Field>  (4) 
OPLS3e

>  <r_lp_Energy>  (4) 
-7.6077

>  <b_lp_Chiralities_Consistent>  (4) 
1

>  <s_lp_Variant>  (4) 
1:0-2

>  <s_i_glide_gridfile>  (4) 
pfpi4k_grid

>  <i_i_glide_lignum>  (4) 
3

>  <i_i_glide_rotatable_bonds>  (4) 
17

>  <r_i_docking_score>  (4) 
-0.218398

>  <r_i_glide_ligand_efficiency>  (4) 
-0.00839992

>  <r_i_glide_ligand_efficiency_sa>  (4) 
-0.0248847

>  <r_i_glide_ligand_efficiency_ln>  (4) 
-0.0512901

>  <r_i_glide_gscore>  (4) 
-0.218398

>  <r_i_glide_lipo>  (4) 
-0.577638

>  <r_i_glide_hbond>  (4) 
-0.200589

>  <r_i_glide_metal>  (4) 
-0

>  <r_i_glide_rewards>  (4) 
-0.994059

>  <r_i_glide_evdw>  (4) 
-0.356575

>  <r_i_glide_ecoul>  (4) 
-2.86924

>  <r_i_glide_erotb>  (4) 
2.05557

>  <r_i_glide_esite>  (4) 
-0.0534692

>  <r_i_glide_emodel>  (4) 
7.73245

>  <r_i_glide_energy>  (4) 
-3.22582

>  <r_i_glide_einternal>  (4) 
14.5372

>  <r_i_glide_intrahb_reward>  (4) 
-0

>  <i_i_glide_confnum>  (4) 
22

>  <i_i_glide_posenum>  (4) 
12

>  <r_i_glide_eff_state_penalty>  (4) 
0

>  <ligand_id>  (4) 
1

>  <original_smiles>  (4) 
CCCCCC=CCC=CCC=CCC=CCC(CCC(=O)O)C(C)O

>  <smiles>  (4) 
[H]OC([H])(C([H])([H])[H])C([H])(C([H])([H])C([H])=C([H])C([H])([H])C([H])=C([H])C([H])([H])C([H])=C([H])C([H])([H])C([H])=C([H])C([H])([H])C([H])([H])C([H])([H])C([H])([H])C([H])([H])[H])C([H])([H])C([H])([H])C(=O)[O-]

$$$$
1:2:0
     RDKit          3D

 63 62  0  0  1  0  0  0  0  0999 V2000
    4.4485   -9.3517    6.0129 C   0  0  0  0  0  0  0  0  0  0  0  0
    3.6810  -10.6087    6.4543 C   0  0  0  0  0  0  0  0  0  0  0  0
    3.0431  -11.3870    5.2880 C   0  0  0  0  0  0  0  0  0  0  0  0
    1.9154  -10.6155    4.5933 C   0  0  0  0  0  0  0  0  0  0  0  0
    1.2219  -11.3828    3.4413 C   0  0  0  0  0  0  0  0  0  0  0  0
    0.2344  -10.5591    2.6244 C   0  0  0  0  0  0  0  0  0  0  0  0
   -0.2082   -9.3220    2.9502 C   0  0  0  0  0  0  0  0  0  0  0  0
   -1.0651   -8.4309    2.0867 C   0  0  0  0  0  0  0  0  0  0  0  0
   -0.3535   -7.1925    1.4890 C   0  0  0  0  0  0  0  0  0  0  0  0
    0.8390   -6.6150    1.7981 C   0  0  0  0  0  0  0  0  0  0  0  0
    1.8297   -7.0651    2.8997 C   0  0  0  0  0  0  0  0  0  0  0  0
    3.2511   -7.0312    2.4649 C   0  0  0  0  0  0  0  0  0  0  0  0
    3.8565   -8.0124    1.7221 C   0  0  0  0  0  0  0  0  0  0  0  0
    5.2988   -7.9890    1.2290 C   0  0  0  0  0  0  0  0  0  0  0  0
    6.0416   -6.6464    1.2460 C   0  0  0  0  0  0  0  0  0  0  0  0
    5.4843   -5.3974    1.2964 C   0  0  0  0  0  0  0  0  0  0  0  0
    6.2295   -4.1014    1.4082 C   0  0  0  0  0  0  0  0  0  0  0  0
    5.7374   -3.0900    0.3203 C   0  0  2  0  0  0  0  0  0  0  0  0
    6.2169   -3.6426   -1.0618 C   0  0  0  0  0  0  0  0  0  0  0  0
    5.9310   -2.8351   -2.3552 C   0  0  0  0  0  0  0  0  0  0  0  0
    4.4476   -2.8085   -2.7697 C   0  0  0  0  0  0  0  0  0  0  0  0
    4.2040   -2.5125   -3.9387 O   0  0  0  0  0  0  0  0  0  0  0  0
    3.5638   -3.0382   -1.8840 O   0  0  0  0  0  0  0  0  0  0  0  0
    6.1757   -1.6359    0.6548 C   0  0  2  0  0  0  0  0  0  0  0  0
    5.5420   -1.0833    1.9439 C   0  0  0  0  0  0  0  0  0  0  0  0
    5.7621   -0.7241   -0.3432 O   0  0  0  0  0  0  0  0  0  0  0  0
    4.8750   -8.8330    6.8718 H   0  0  0  0  0  0  0  0  0  0  0  0
    3.8005   -8.6359    5.5079 H   0  0  0  0  0  0  0  0  0  0  0  0
    5.2592   -9.6096    5.3293 H   0  0  0  0  0  0  0  0  0  0  0  0
    4.3651  -11.2725    6.9829 H   0  0  0  0  0  0  0  0  0  0  0  0
    2.9118  -10.3414    7.1804 H   0  0  0  0  0  0  0  0  0  0  0  0
    3.8130  -11.6666    4.5663 H   0  0  0  0  0  0  0  0  0  0  0  0
    2.6253  -12.3127    5.6751 H   0  0  0  0  0  0  0  0  0  0  0  0
    1.1732  -10.3173    5.3359 H   0  0  0  0  0  0  0  0  0  0  0  0
    2.3732   -9.7136    4.2086 H   0  0  0  0  0  0  0  0  0  0  0  0
    2.0090  -11.7337    2.7671 H   0  0  0  0  0  0  0  0  0  0  0  0
    0.7196  -12.2622    3.8476 H   0  0  0  0  0  0  0  0  0  0  0  0
   -0.1058  -11.0291    1.6971 H   0  0  0  0  0  0  0  0  0  0  0  0
    0.0953   -8.8605    3.9036 H   0  0  0  0  0  0  0  0  0  0  0  0
   -1.4844   -9.0057    1.2468 H   0  0  0  0  0  0  0  0  0  0  0  0
   -1.8967   -8.0864    2.7085 H   0  0  0  0  0  0  0  0  0  0  0  0
   -0.9298   -6.7231    0.6988 H   0  0  0  0  0  0  0  0  0  0  0  0
    1.1155   -5.7208    1.2083 H   0  0  0  0  0  0  0  0  0  0  0  0
    1.7147   -6.3613    3.7354 H   0  0  0  0  0  0  0  0  0  0  0  0
    1.7153   -8.1083    3.1848 H   0  0  0  0  0  0  0  0  0  0  0  0
    3.8069   -6.1419    2.7897 H   0  0  0  0  0  0  0  0  0  0  0  0
    3.3084   -8.9315    1.4270 H   0  0  0  0  0  0  0  0  0  0  0  0
    5.8773   -8.7284    1.8053 H   0  0  0  0  0  0  0  0  0  0  0  0
    5.2977   -8.3912    0.2150 H   0  0  0  0  0  0  0  0  0  0  0  0
    7.1258   -6.7435    1.2300 H   0  0  0  0  0  0  0  0  0  0  0  0
    4.4045   -5.2628    1.2606 H   0  0  0  0  0  0  0  0  0  0  0  0
    5.9755   -3.7365    2.4037 H   0  0  0  0  0  0  0  0  0  0  0  0
    7.3319   -4.2421    1.4221 H   0  0  0  0  0  0  0  0  0  0  0  0
    4.6428   -3.1481    0.3416 H   0  0  0  0  0  0  0  0  0  0  0  0
    7.2924   -3.8124   -0.9950 H   0  0  0  0  0  0  0  0  0  0  0  0
    5.7818   -4.6414   -1.1940 H   0  0  0  0  0  0  0  0  0  0  0  0
    6.2720   -1.8043   -2.2427 H   0  0  0  0  0  0  0  0  0  0  0  0
    6.4997   -3.2922   -3.1800 H   0  0  0  0  0  0  0  0  0  0  0  0
    7.2573   -1.6474    0.7333 H   0  0  0  0  0  0  0  0  0  0  0  0
    5.9028   -1.5715    2.8602 H   0  0  0  0  0  0  0  0  0  0  0  0
    4.4477   -1.1500    1.8975 H   0  0  0  0  0  0  0  0  0  0  0  0
    5.8037   -0.0282    2.0152 H   0  0  0  0  0  0  0  0  0  0  0  0
    4.8436   -0.8604   -0.4627 H   0  0  0  0  0  0  0  0  0  0  0  0
  1  2  1  0
  1 27  1  0
  1 28  1  0
  1 29  1  0
  2  3  1  0
  2 30  1  0
  2 31  1  0
  3  4  1  0
  3 32  1  0
  3 33  1  0
  4  5  1  0
  4 34  1  0
  4 35  1  0
  5  6  1  0
  5 36  1  0
  5 37  1  0
  6  7  2  3
  6 38  1  0
  7  8  1  0
  7 39  1  0
  8  9  1  0
  8 40  1  0
  8 41  1  0
  9 10  2  3
  9 42  1  0
 10 11  1  0
 10 43  1  0
 11 12  1  0
 11 44  1  0
 11 45  1  0
 12 13  2  3
 12 46  1  0
 13 14  1  0
 13 47  1  0
 14 15  1  0
 14 48  1  0
 14 49  1  0
 15 16  2  3
 15 50  1  0
 16 17  1  0
 16 51  1  0
 17 18  1  0
 17 52  1  0
 17 53  1  0
 18 19  1  0
 18 24  1  0
 18 54  1  6
 19 20  1  0
 19 55  1  0
 19 56  1  0
 20 21  1  0
 20 57  1  0
 20 58  1  0
 21 22  2  0
 21 23  1  0
 24 25  1  0
 24 26  1  0
 24 59  1  1
 25 60  1  0
 25 61  1  0
 25 62  1  0
 26 63  1  0
M  CHG  1  23  -1
M  END
>  <i_m_ct_stereo_status>  (5) 
1

>  <s_m_source_file>  (5) 
/var/tmp/pbs.5076255.sched01/tmp5t01l7na/0y8cq_bsf.sdf

>  <i_m_source_file_index>  (5) 
4

>  <i_lp_mmshare_version>  (5) 
48012

>  <i_f3d_flags>  (5) 
0

>  <s_epik_input>  (5) 
W0NIM11bQ0gyXVtDSDJdW0NIMl1bQ0gyXS9bQ0hdPVtDSF0vW0NIMl0vW0NIXT1bQ0hdL1tDSDJdL1tDSF09W0NIXS9bQ0gyXS9bQ0hdPVtDSF0vW0NIMl1bQ0BASF0oW0NASF0oW0NIM10pW09IXSlbQ0gyXVtDSDJdQyg9TylbT0hd

>  <s_epik_cmdline>  (5) 
J2VwaWtfcHl0aG9uJywgJy1waHQnLCAnMi4wJywgJy1waCcsICc3LjAnLCAnLXRuJywgJzgnLCAnLW1hJywgJzIwMCcsICctaW1hZScsICc8aW5maWxlLm1hZT4nLCAnLW9tYWUnLCAnPG91dGZpbGUubWFlPic=

>  <r_epik_Ionization_Penalty>  (5) 
0.00442386

>  <r_epik_Ionization_Penalty_Charging>  (5) 
0.00442292

>  <r_epik_Ionization_Penalty_Neutral>  (5) 
9.38996e-07

>  <r_epik_State_Penalty>  (5) 
0.00318855

>  <r_epik_Charging_Adjusted_Penalty>  (5) 
0.00761147

>  <i_epik_Tot_Q>  (5) 
-1

>  <i_epik_Tot_abs_Q>  (5) 
1

>  <s_lp_Force_Field>  (5) 
OPLS3e

>  <r_lp_Energy>  (5) 
-12.2675

>  <b_lp_Chiralities_Consistent>  (5) 
1

>  <s_lp_Variant>  (5) 
1:0-3

>  <s_i_glide_gridfile>  (5) 
pfpi4k_grid

>  <i_i_glide_lignum>  (5) 
4

>  <i_i_glide_rotatable_bonds>  (5) 
17

>  <r_i_docking_score>  (5) 
-1.43924

>  <r_i_glide_ligand_efficiency>  (5) 
-0.0553553

>  <r_i_glide_ligand_efficiency_sa>  (5) 
-0.16399

>  <r_i_glide_ligand_efficiency_ln>  (5) 
-0.338

>  <r_i_glide_gscore>  (5) 
-1.43924

>  <r_i_glide_lipo>  (5) 
-1.1658

>  <r_i_glide_hbond>  (5) 
-0.0979184

>  <r_i_glide_metal>  (5) 
-0

>  <r_i_glide_rewards>  (5) 
-1.05663

>  <r_i_glide_evdw>  (5) 
-25.431

>  <r_i_glide_ecoul>  (5) 
0.647279

>  <r_i_glide_erotb>  (5) 
2.05557

>  <r_i_glide_esite>  (5) 
0

>  <r_i_glide_emodel>  (5) 
-22.5979

>  <r_i_glide_energy>  (5) 
-24.7837

>  <r_i_glide_einternal>  (5) 
5.35718

>  <r_i_glide_intrahb_reward>  (5) 
-0

>  <i_i_glide_confnum>  (5) 
14

>  <i_i_glide_posenum>  (5) 
2

>  <r_i_glide_eff_state_penalty>  (5) 
0

>  <ligand_id>  (5) 
1

>  <original_smiles>  (5) 
CCCCCC=CCC=CCC=CCC=CCC(CCC(=O)O)C(C)O

>  <smiles>  (5) 
[H]OC([H])(C([H])([H])[H])C([H])(C([H])([H])C([H])=C([H])C([H])([H])C([H])=C([H])C([H])([H])C([H])=C([H])C([H])([H])C([H])=C([H])C([H])([H])C([H])([H])C([H])([H])C([H])([H])C([H])([H])[H])C([H])([H])C([H])([H])C(=O)[O-]

$$$$
1:2:1
     RDKit          3D

 63 62  0  0  1  0  0  0  0  0999 V2000
    4.1526   -5.9012    7.3102 C   0  0  0  0  0  0  0  0  0  0  0  0
    3.6311   -4.6152    6.6524 C   0  0  0  0  0  0  0  0  0  0  0  0
    2.1063   -4.4423    6.7780 C   0  0  0  0  0  0  0  0  0  0  0  0
    1.3203   -5.5008    5.9947 C   0  0  0  0  0  0  0  0  0  0  0  0
   -0.2133   -5.3447    6.0848 C   0  0  0  0  0  0  0  0  0  0  0  0
   -1.0076   -6.3812    5.3006 C   0  0  0  0  0  0  0  0  0  0  0  0
   -0.4935   -7.4535    4.6593 C   0  0  0  0  0  0  0  0  0  0  0  0
   -1.2572   -8.3946    3.7534 C   0  0  0  0  0  0  0  0  0  0  0  0
   -0.9002   -8.2910    2.2603 C   0  0  0  0  0  0  0  0  0  0  0  0
   -0.0379   -7.4860    1.6015 C   0  0  0  0  0  0  0  0  0  0  0  0
    0.8764   -6.4023    2.1582 C   0  0  0  0  0  0  0  0  0  0  0  0
    2.3200   -6.7115    1.9720 C   0  0  0  0  0  0  0  0  0  0  0  0
    2.8924   -7.7278    1.2965 C   0  0  0  0  0  0  0  0  0  0  0  0
    4.3792   -7.8826    0.9568 C   0  0  0  0  0  0  0  0  0  0  0  0
    5.2866   -6.6441    1.0732 C   0  0  0  0  0  0  0  0  0  0  0  0
    4.9201   -5.3510    1.1613 C   0  0  0  0  0  0  0  0  0  0  0  0
    5.8288   -4.1722    1.3602 C   0  0  0  0  0  0  0  0  0  0  0  0
    5.5401   -3.0905    0.2772 C   0  0  2  0  0  0  0  0  0  0  0  0
    6.0597   -3.6341   -1.0932 C   0  0  0  0  0  0  0  0  0  0  0  0
    5.8428   -2.7799   -2.3699 C   0  0  0  0  0  0  0  0  0  0  0  0
    4.3797   -2.7011   -2.8401 C   0  0  0  0  0  0  0  0  0  0  0  0
    4.2095   -2.2541   -4.0019 O   0  0  0  0  0  0  0  0  0  0  0  0
    3.4679   -3.0490   -2.0672 O   0  0  0  0  0  0  0  0  0  0  0  0
    6.1224   -1.7095    0.6952 C   0  0  2  0  0  0  0  0  0  0  0  0
    5.5813   -1.1624    2.0197 C   0  0  0  0  0  0  0  0  0  0  0  0
    5.8004   -0.6628   -0.1948 O   0  0  0  0  0  0  0  0  0  0  0  0
    5.2322   -5.9903    7.1938 H   0  0  0  0  0  0  0  0  0  0  0  0
    3.7151   -6.7918    6.8609 H   0  0  0  0  0  0  0  0  0  0  0  0
    3.9233   -5.9175    8.3764 H   0  0  0  0  0  0  0  0  0  0  0  0
    4.1240   -3.7609    7.1173 H   0  0  0  0  0  0  0  0  0  0  0  0
    3.9254   -4.5947    5.6014 H   0  0  0  0  0  0  0  0  0  0  0  0
    1.8166   -4.4705    7.8279 H   0  0  0  0  0  0  0  0  0  0  0  0
    1.8334   -3.4540    6.4045 H   0  0  0  0  0  0  0  0  0  0  0  0
    1.6547   -5.4323    4.9632 H   0  0  0  0  0  0  0  0  0  0  0  0
    1.5892   -6.4956    6.3469 H   0  0  0  0  0  0  0  0  0  0  0  0
   -0.5241   -5.3865    7.1331 H   0  0  0  0  0  0  0  0  0  0  0  0
   -0.4836   -4.3606    5.7070 H   0  0  0  0  0  0  0  0  0  0  0  0
   -2.0782   -6.2520    5.2759 H   0  0  0  0  0  0  0  0  0  0  0  0
    0.5672   -7.6779    4.7362 H   0  0  0  0  0  0  0  0  0  0  0  0
   -1.0088   -9.4003    4.0864 H   0  0  0  0  0  0  0  0  0  0  0  0
   -2.3256   -8.2306    3.8571 H   0  0  0  0  0  0  0  0  0  0  0  0
   -1.4354   -9.0150    1.6416 H   0  0  0  0  0  0  0  0  0  0  0  0
    0.0399   -7.6174    0.5147 H   0  0  0  0  0  0  0  0  0  0  0  0
    0.6128   -5.4459    1.7282 H   0  0  0  0  0  0  0  0  0  0  0  0
    0.8687   -6.2396    3.2081 H   0  0  0  0  0  0  0  0  0  0  0  0
    2.8889   -5.9508    2.4687 H   0  0  0  0  0  0  0  0  0  0  0  0
    2.2778   -8.5568    0.9303 H   0  0  0  0  0  0  0  0  0  0  0  0
    4.7795   -8.7026    1.5663 H   0  0  0  0  0  0  0  0  0  0  0  0
    4.4366   -8.2363   -0.0754 H   0  0  0  0  0  0  0  0  0  0  0  0
    6.3431   -6.8923    1.0776 H   0  0  0  0  0  0  0  0  0  0  0  0
    3.9013   -5.0078    1.0879 H   0  0  0  0  0  0  0  0  0  0  0  0
    5.5637   -3.8067    2.3514 H   0  0  0  0  0  0  0  0  0  0  0  0
    6.8830   -4.4763    1.4142 H   0  0  0  0  0  0  0  0  0  0  0  0
    4.4514   -2.9941    0.2158 H   0  0  0  0  0  0  0  0  0  0  0  0
    7.1274   -3.8302   -0.9862 H   0  0  0  0  0  0  0  0  0  0  0  0
    5.6153   -4.6184   -1.2869 H   0  0  0  0  0  0  0  0  0  0  0  0
    6.2245   -1.7725   -2.2562 H   0  0  0  0  0  0  0  0  0  0  0  0
    6.4484   -3.1856   -3.1789 H   0  0  0  0  0  0  0  0  0  0  0  0
    7.2040   -1.8174    0.7395 H   0  0  0  0  0  0  0  0  0  0  0  0
    5.9168   -1.7371    2.8841 H   0  0  0  0  0  0  0  0  0  0  0  0
    4.4874   -1.1241    2.0146 H   0  0  0  0  0  0  0  0  0  0  0  0
    5.9482   -0.1472    2.1603 H   0  0  0  0  0  0  0  0  0  0  0  0
    4.8613   -0.6542   -0.3130 H   0  0  0  0  0  0  0  0  0  0  0  0
  1  2  1  0
  1 27  1  0
  1 28  1  0
  1 29  1  0
  2  3  1  0
  2 30  1  0
  2 31  1  0
  3  4  1  0
  3 32  1  0
  3 33  1  0
  4  5  1  0
  4 34  1  0
  4 35  1  0
  5  6  1  0
  5 36  1  0
  5 37  1  0
  6  7  2  3
  6 38  1  0
  7  8  1  0
  7 39  1  0
  8  9  1  0
  8 40  1  0
  8 41  1  0
  9 10  2  3
  9 42  1  0
 10 11  1  0
 10 43  1  0
 11 12  1  0
 11 44  1  0
 11 45  1  0
 12 13  2  3
 12 46  1  0
 13 14  1  0
 13 47  1  0
 14 15  1  0
 14 48  1  0
 14 49  1  0
 15 16  2  3
 15 50  1  0
 16 17  1  0
 16 51  1  0
 17 18  1  0
 17 52  1  0
 17 53  1  0
 18 19  1  0
 18 24  1  0
 18 54  1  6
 19 20  1  0
 19 55  1  0
 19 56  1  0
 20 21  1  0
 20 57  1  0
 20 58  1  0
 21 22  2  0
 21 23  1  0
 24 25  1  0
 24 26  1  0
 24 59  1  1
 25 60  1  0
 25 61  1  0
 25 62  1  0
 26 63  1  0
M  CHG  1  23  -1
M  END
>  <i_m_ct_stereo_status>  (6) 
1

>  <s_m_source_file>  (6) 
/var/tmp/pbs.5076255.sched01/tmp5t01l7na/0y8cq_bsf.sdf

>  <i_m_source_file_index>  (6) 
4

>  <i_lp_mmshare_version>  (6) 
48012

>  <i_f3d_flags>  (6) 
0

>  <s_epik_input>  (6) 
W0NIM11bQ0gyXVtDSDJdW0NIMl1bQ0gyXS9bQ0hdPVtDSF0vW0NIMl0vW0NIXT1bQ0hdL1tDSDJdL1tDSF09W0NIXS9bQ0gyXS9bQ0hdPVtDSF0vW0NIMl1bQ0BASF0oW0NASF0oW0NIM10pW09IXSlbQ0gyXVtDSDJdQyg9TylbT0hd

>  <s_epik_cmdline>  (6) 
J2VwaWtfcHl0aG9uJywgJy1waHQnLCAnMi4wJywgJy1waCcsICc3LjAnLCAnLXRuJywgJzgnLCAnLW1hJywgJzIwMCcsICctaW1hZScsICc8aW5maWxlLm1hZT4nLCAnLW9tYWUnLCAnPG91dGZpbGUubWFlPic=

>  <r_epik_Ionization_Penalty>  (6) 
0.00442386

>  <r_epik_Ionization_Penalty_Charging>  (6) 
0.00442292

>  <r_epik_Ionization_Penalty_Neutral>  (6) 
9.38996e-07

>  <r_epik_State_Penalty>  (6) 
0.00318855

>  <r_epik_Charging_Adjusted_Penalty>  (6) 
0.00761147

>  <i_epik_Tot_Q>  (6) 
-1

>  <i_epik_Tot_abs_Q>  (6) 
1

>  <s_lp_Force_Field>  (6) 
OPLS3e

>  <r_lp_Energy>  (6) 
-12.2675

>  <b_lp_Chiralities_Consistent>  (6) 
1

>  <s_lp_Variant>  (6) 
1:0-3

>  <s_i_glide_gridfile>  (6) 
pfpi4k_grid

>  <i_i_glide_lignum>  (6) 
4

>  <i_i_glide_rotatable_bonds>  (6) 
17

>  <r_i_docking_score>  (6) 
-1.10053

>  <r_i_glide_ligand_efficiency>  (6) 
-0.0423282

>  <r_i_glide_ligand_efficiency_sa>  (6) 
-0.125397

>  <r_i_glide_ligand_efficiency_ln>  (6) 
-0.258456

>  <r_i_glide_gscore>  (6) 
-1.10053

>  <r_i_glide_lipo>  (6) 
-0.732565

>  <r_i_glide_hbond>  (6) 
-0.116256

>  <r_i_glide_metal>  (6) 
-0

>  <r_i_glide_rewards>  (6) 
-1.07206

>  <r_i_glide_evdw>  (6) 
-23.7345

>  <r_i_glide_ecoul>  (6) 
-0.32333

>  <r_i_glide_erotb>  (6) 
2.05557

>  <r_i_glide_esite>  (6) 
0

>  <r_i_glide_emodel>  (6) 
-21.9268

>  <r_i_glide_energy>  (6) 
-24.0578

>  <r_i_glide_einternal>  (6) 
3.04935

>  <r_i_glide_intrahb_reward>  (6) 
-0

>  <i_i_glide_confnum>  (6) 
14

>  <i_i_glide_posenum>  (6) 
22

>  <r_i_glide_eff_state_penalty>  (6) 
0

>  <ligand_id>  (6) 
1

>  <original_smiles>  (6) 
CCCCCC=CCC=CCC=CCC=CCC(CCC(=O)O)C(C)O

>  <smiles>  (6) 
[H]OC([H])(C([H])([H])[H])C([H])(C([H])([H])C([H])=C([H])C([H])([H])C([H])=C([H])C([H])([H])C([H])=C([H])C([H])([H])C([H])=C([H])C([H])([H])C([H])([H])C([H])([H])C([H])([H])C([H])([H])[H])C([H])([H])C([H])([H])C(=O)[O-]

$$$$
1:5:0
     RDKit          3D

 63 62  0  0  1  0  0  0  0  0999 V2000
   -4.6280    6.3062    1.2950 C   0  0  0  0  0  0  0  0  0  0  0  0
   -3.4279    5.5485    1.8693 C   0  0  0  0  0  0  0  0  0  0  0  0
   -3.5820    3.9894    1.8826 C   0  0  0  0  0  0  0  0  0  0  0  0
   -4.4937    3.3977    2.9220 C   0  0  0  0  0  0  0  0  0  0  0  0
   -3.7169    2.9630    4.1935 C   0  0  0  0  0  0  0  0  0  0  0  0
   -2.5736    3.8634    4.7324 C   0  0  0  0  0  0  0  0  0  0  0  0
   -1.7560    3.6260    5.7828 C   0  0  0  0  0  0  0  0  0  0  0  0
   -1.7181    2.3782    6.5970 C   0  0  0  0  0  0  0  0  0  0  0  0
   -0.7779    1.4195    5.8904 C   0  0  0  0  0  0  0  0  0  0  0  0
   -1.1627    0.2939    5.2600 C   0  0  0  0  0  0  0  0  0  0  0  0
   -0.2195   -0.6556    4.5579 C   0  0  0  0  0  0  0  0  0  0  0  0
   -0.1430   -1.9793    5.2898 C   0  0  0  0  0  0  0  0  0  0  0  0
    0.9635   -2.6560    5.6216 C   0  0  0  0  0  0  0  0  0  0  0  0
    2.4083   -2.2412    5.3910 C   0  0  0  0  0  0  0  0  0  0  0  0
    2.9750   -2.8225    4.1077 C   0  0  0  0  0  0  0  0  0  0  0  0
    3.7799   -3.8823    4.0269 C   0  0  0  0  0  0  0  0  0  0  0  0
    4.4280   -4.3997    2.7518 C   0  0  0  0  0  0  0  0  0  0  0  0
    3.5073   -5.3412    1.9350 C   0  0  2  0  0  0  0  0  0  0  0  0
    3.1417   -6.6448    2.7031 C   0  0  0  0  0  0  0  0  0  0  0  0
    1.9155   -7.4773    2.2255 C   0  0  0  0  0  0  0  0  0  0  0  0
    0.6770   -6.6758    1.7650 C   0  0  0  0  0  0  0  0  0  0  0  0
    0.7431   -6.1251    0.6418 O   0  0  0  0  0  0  0  0  0  0  0  0
   -0.3293   -6.6337    2.4950 O   0  0  0  0  0  0  0  0  0  0  0  0
    4.0753   -5.6450    0.5281 C   0  0  2  0  0  0  0  0  0  0  0  0
    5.5072   -6.1905    0.5135 C   0  0  0  0  0  0  0  0  0  0  0  0
    4.0320   -4.4881   -0.2804 O   0  0  0  0  0  0  0  0  0  0  0  0
   -4.4465    7.3791    1.3352 H   0  0  0  0  0  0  0  0  0  0  0  0
   -5.5166    6.1112    1.8894 H   0  0  0  0  0  0  0  0  0  0  0  0
   -4.8364    6.0384    0.2640 H   0  0  0  0  0  0  0  0  0  0  0  0
   -2.5234    5.8750    1.3150 H   0  0  0  0  0  0  0  0  0  0  0  0
   -3.3118    5.8916    2.8745 H   0  0  0  0  0  0  0  0  0  0  0  0
   -4.0035    3.6274    0.9423 H   0  0  0  0  0  0  0  0  0  0  0  0
   -2.5975    3.5402    2.0804 H   0  0  0  0  0  0  0  0  0  0  0  0
   -5.3565    4.0528    3.0837 H   0  0  0  0  0  0  0  0  0  0  0  0
   -4.9294    2.5341    2.4144 H   0  0  0  0  0  0  0  0  0  0  0  0
   -4.4561    2.9528    4.9792 H   0  0  0  0  0  0  0  0  0  0  0  0
   -3.2671    1.9885    4.0522 H   0  0  0  0  0  0  0  0  0  0  0  0
   -2.3602    4.8286    4.2484 H   0  0  0  0  0  0  0  0  0  0  0  0
   -1.0408    4.3928    6.0348 H   0  0  0  0  0  0  0  0  0  0  0  0
   -1.3470    2.6293    7.5938 H   0  0  0  0  0  0  0  0  0  0  0  0
   -2.7211    1.9531    6.6803 H   0  0  0  0  0  0  0  0  0  0  0  0
    0.2742    1.6993    5.8873 H   0  0  0  0  0  0  0  0  0  0  0  0
   -2.2177    0.0505    5.2241 H   0  0  0  0  0  0  0  0  0  0  0  0
   -0.5873   -0.8356    3.5465 H   0  0  0  0  0  0  0  0  0  0  0  0
    0.7599   -0.1875    4.4527 H   0  0  0  0  0  0  0  0  0  0  0  0
   -1.0984   -2.4132    5.5553 H   0  0  0  0  0  0  0  0  0  0  0  0
    0.8448   -3.6206    6.0993 H   0  0  0  0  0  0  0  0  0  0  0  0
    2.5281   -1.1586    5.3554 H   0  0  0  0  0  0  0  0  0  0  0  0
    2.9932   -2.5633    6.2566 H   0  0  0  0  0  0  0  0  0  0  0  0
    2.6940   -2.3123    3.1954 H   0  0  0  0  0  0  0  0  0  0  0  0
    4.0099   -4.4386    4.9261 H   0  0  0  0  0  0  0  0  0  0  0  0
    4.6849   -3.5449    2.1205 H   0  0  0  0  0  0  0  0  0  0  0  0
    5.3697   -4.8725    3.0352 H   0  0  0  0  0  0  0  0  0  0  0  0
    2.6000   -4.7534    1.7951 H   0  0  0  0  0  0  0  0  0  0  0  0
    4.0091   -7.3110    2.6999 H   0  0  0  0  0  0  0  0  0  0  0  0
    2.9872   -6.3975    3.7500 H   0  0  0  0  0  0  0  0  0  0  0  0
    2.2045   -8.1456    1.4193 H   0  0  0  0  0  0  0  0  0  0  0  0
    1.6206   -8.1330    3.0441 H   0  0  0  0  0  0  0  0  0  0  0  0
    3.4272   -6.3662    0.0303 H   0  0  0  0  0  0  0  0  0  0  0  0
    5.5696   -7.1944    0.9357 H   0  0  0  0  0  0  0  0  0  0  0  0
    6.2198   -5.5499    1.0327 H   0  0  0  0  0  0  0  0  0  0  0  0
    5.8140   -6.2346   -0.5236 H   0  0  0  0  0  0  0  0  0  0  0  0
    3.8063   -4.7641   -1.1670 H   0  0  0  0  0  0  0  0  0  0  0  0
  1  2  1  0
  1 27  1  0
  1 28  1  0
  1 29  1  0
  2  3  1  0
  2 30  1  0
  2 31  1  0
  3  4  1  0
  3 32  1  0
  3 33  1  0
  4  5  1  0
  4 34  1  0
  4 35  1  0
  5  6  1  0
  5 36  1  0
  5 37  1  0
  6  7  2  3
  6 38  1  0
  7  8  1  0
  7 39  1  0
  8  9  1  0
  8 40  1  0
  8 41  1  0
  9 10  2  3
  9 42  1  0
 10 11  1  0
 10 43  1  0
 11 12  1  0
 11 44  1  0
 11 45  1  0
 12 13  2  3
 12 46  1  0
 13 14  1  0
 13 47  1  0
 14 15  1  0
 14 48  1  0
 14 49  1  0
 15 16  2  3
 15 50  1  0
 16 17  1  0
 16 51  1  0
 17 18  1  0
 17 52  1  0
 17 53  1  0
 18 19  1  0
 18 24  1  0
 18 54  1  6
 19 20  1  0
 19 55  1  0
 19 56  1  0
 20 21  1  0
 20 57  1  0
 20 58  1  0
 21 22  2  0
 21 23  1  0
 24 25  1  0
 24 26  1  0
 24 59  1  6
 25 60  1  0
 25 61  1  0
 25 62  1  0
 26 63  1  0
M  CHG  1  23  -1
M  END
>  <i_m_ct_stereo_status>  (7) 
1

>  <s_m_source_file>  (7) 
/var/tmp/pbs.5076255.sched01/tmp5t01l7na/0y8cq_bsf.sdf

>  <i_m_source_file_index>  (7) 
7

>  <i_lp_mmshare_version>  (7) 
48012

>  <i_f3d_flags>  (7) 
0

>  <s_epik_input>  (7) 
W0NIM11bQ0gyXVtDSDJdW0NIMl1bQ0gyXS9bQ0hdPVtDSF0vW0NIMl0vW0NIXT1bQ0hdL1tDSDJdL1tDSF09W0NIXS9bQ0gyXS9bQ0hdPVtDSF0vW0NIMl1bQ0BASF0oW0NASF0oW0NIM10pW09IXSlbQ0gyXVtDSDJdQyg9TylbT0hd

>  <s_epik_cmdline>  (7) 
J2VwaWtfcHl0aG9uJywgJy1waHQnLCAnMi4wJywgJy1waCcsICc3LjAnLCAnLXRuJywgJzgnLCAnLW1hJywgJzIwMCcsICctaW1hZScsICc8aW5maWxlLm1hZT4nLCAnLW9tYWUnLCAnPG91dGZpbGUubWFlPic=

>  <r_epik_Ionization_Penalty>  (7) 
0.00442386

>  <r_epik_Ionization_Penalty_Charging>  (7) 
0.00442292

>  <r_epik_Ionization_Penalty_Neutral>  (7) 
9.38996e-07

>  <r_epik_State_Penalty>  (7) 
0.00318855

>  <r_epik_Charging_Adjusted_Penalty>  (7) 
0.00761147

>  <i_epik_Tot_Q>  (7) 
-1

>  <i_epik_Tot_abs_Q>  (7) 
1

>  <s_lp_Force_Field>  (7) 
OPLS3e

>  <r_lp_Energy>  (7) 
-5.37894

>  <b_lp_Chiralities_Consistent>  (7) 
1

>  <s_lp_Variant>  (7) 
1:0-6

>  <s_i_glide_gridfile>  (7) 
pfpi4k_grid

>  <i_i_glide_lignum>  (7) 
7

>  <i_i_glide_rotatable_bonds>  (7) 
17

>  <r_i_docking_score>  (7) 
-0.951428

>  <r_i_glide_ligand_efficiency>  (7) 
-0.0365934

>  <r_i_glide_ligand_efficiency_sa>  (7) 
-0.108408

>  <r_i_glide_ligand_efficiency_ln>  (7) 
-0.22344

>  <r_i_glide_gscore>  (7) 
-0.951428

>  <r_i_glide_lipo>  (7) 
-0.464369

>  <r_i_glide_hbond>  (7) 
-0.631458

>  <r_i_glide_metal>  (7) 
-0

>  <r_i_glide_rewards>  (7) 
-0.944059

>  <r_i_glide_evdw>  (7) 
1.34353

>  <r_i_glide_ecoul>  (7) 
-6.31376

>  <r_i_glide_erotb>  (7) 
2.05557

>  <r_i_glide_esite>  (7) 
-0.0872255

>  <r_i_glide_emodel>  (7) 
5.8673

>  <r_i_glide_energy>  (7) 
-4.97023

>  <r_i_glide_einternal>  (7) 
17.8409

>  <r_i_glide_intrahb_reward>  (7) 
-0

>  <i_i_glide_confnum>  (7) 
18

>  <i_i_glide_posenum>  (7) 
3

>  <r_i_glide_eff_state_penalty>  (7) 
0

>  <ligand_id>  (7) 
1

>  <original_smiles>  (7) 
CCCCCC=CCC=CCC=CCC=CCC(CCC(=O)O)C(C)O

>  <smiles>  (7) 
[H]OC([H])(C([H])([H])[H])C([H])(C([H])([H])C([H])=C([H])C([H])([H])C([H])=C([H])C([H])([H])C([H])=C([H])C([H])([H])C([H])=C([H])C([H])([H])C([H])([H])C([H])([H])C([H])([H])C([H])([H])[H])C([H])([H])C([H])([H])C(=O)[O-]

$$$$
1:6:0
     RDKit          3D

 63 62  0  0  1  0  0  0  0  0999 V2000
   -2.8583    3.1642   10.1696 C   0  0  0  0  0  0  0  0  0  0  0  0
   -3.3732    3.7640    8.8551 C   0  0  0  0  0  0  0  0  0  0  0  0
   -2.9271    2.9801    7.6095 C   0  0  0  0  0  0  0  0  0  0  0  0
   -1.4038    2.8982    7.4069 C   0  0  0  0  0  0  0  0  0  0  0  0
   -0.6784    4.2624    7.3643 C   0  0  0  0  0  0  0  0  0  0  0  0
    0.7634    4.2148    6.8817 C   0  0  0  0  0  0  0  0  0  0  0  0
    1.3840    3.1591    6.3116 C   0  0  0  0  0  0  0  0  0  0  0  0
    2.7579    3.1420    5.7425 C   0  0  0  0  0  0  0  0  0  0  0  0
    2.7704    3.2395    4.2141 C   0  0  0  0  0  0  0  0  0  0  0  0
    1.7517    3.3827    3.3258 C   0  0  0  0  0  0  0  0  0  0  0  0
    0.2315    3.3665    3.5139 C   0  0  0  0  0  0  0  0  0  0  0  0
   -0.4058    2.0909    2.9320 C   0  0  0  0  0  0  0  0  0  0  0  0
    0.0749    1.0407    2.2116 C   0  0  0  0  0  0  0  0  0  0  0  0
    1.5240    0.8273    1.6983 C   0  0  0  0  0  0  0  0  0  0  0  0
    2.1130   -0.4443    2.2895 C   0  0  0  0  0  0  0  0  0  0  0  0
    2.6067   -1.4301    1.5313 C   0  0  0  0  0  0  0  0  0  0  0  0
    3.2479   -2.6956    2.0751 C   0  0  0  0  0  0  0  0  0  0  0  0
    4.6176   -3.1193    1.4491 C   0  0  2  0  0  0  0  0  0  0  0  0
    4.5139   -3.2241   -0.1128 C   0  0  0  0  0  0  0  0  0  0  0  0
    5.7171   -3.8551   -0.8778 C   0  0  0  0  0  0  0  0  0  0  0  0
    7.0076   -3.0080   -0.7517 C   0  0  0  0  0  0  0  0  0  0  0  0
    8.0051   -3.5908   -0.3186 O   0  0  0  0  0  0  0  0  0  0  0  0
    6.9543   -1.7775   -1.0886 O   0  0  0  0  0  0  0  0  0  0  0  0
    5.1159   -4.4399    2.1205 C   0  0  2  0  0  0  0  0  0  0  0  0
    5.1011   -4.4406    3.6591 C   0  0  0  0  0  0  0  0  0  0  0  0
    6.4936   -4.6851    1.8879 O   0  0  0  0  0  0  0  0  0  0  0  0
   -3.1983    3.7484   11.0228 H   0  0  0  0  0  0  0  0  0  0  0  0
   -1.7690    3.1419   10.2073 H   0  0  0  0  0  0  0  0  0  0  0  0
   -3.2205    2.1422   10.3079 H   0  0  0  0  0  0  0  0  0  0  0  0
   -4.4642    3.7925    8.8821 H   0  0  0  0  0  0  0  0  0  0  0  0
   -3.0483    4.8020    8.7695 H   0  0  0  0  0  0  0  0  0  0  0  0
   -3.3179    1.9652    7.6604 H   0  0  0  0  0  0  0  0  0  0  0  0
   -3.3804    3.4152    6.7166 H   0  0  0  0  0  0  0  0  0  0  0  0
   -0.9463    2.2861    8.1903 H   0  0  0  0  0  0  0  0  0  0  0  0
   -1.2728    2.3509    6.4727 H   0  0  0  0  0  0  0  0  0  0  0  0
   -1.1971    4.9260    6.6762 H   0  0  0  0  0  0  0  0  0  0  0  0
   -0.7171    4.7368    8.3447 H   0  0  0  0  0  0  0  0  0  0  0  0
    1.3411    5.1235    7.0700 H   0  0  0  0  0  0  0  0  0  0  0  0
    0.8487    2.2055    6.2039 H   0  0  0  0  0  0  0  0  0  0  0  0
    3.3458    3.9843    6.1533 H   0  0  0  0  0  0  0  0  0  0  0  0
    3.2761    2.2178    6.0624 H   0  0  0  0  0  0  0  0  0  0  0  0
    3.7758    3.2381    3.8231 H   0  0  0  0  0  0  0  0  0  0  0  0
    2.0824    3.4980    2.2752 H   0  0  0  0  0  0  0  0  0  0  0  0
   -0.1388    3.3900    4.5578 H   0  0  0  0  0  0  0  0  0  0  0  0
   -0.1654    4.2539    2.9681 H   0  0  0  0  0  0  0  0  0  0  0  0
   -1.4500    2.0370    3.1881 H   0  0  0  0  0  0  0  0  0  0  0  0
   -0.6493    0.2601    1.9738 H   0  0  0  0  0  0  0  0  0  0  0  0
    1.4209    0.7149    0.6135 H   0  0  0  0  0  0  0  0  0  0  0  0
    2.2440    1.5958    1.9435 H   0  0  0  0  0  0  0  0  0  0  0  0
    2.1570   -0.4945    3.3741 H   0  0  0  0  0  0  0  0  0  0  0  0
    2.5389   -1.3170    0.4631 H   0  0  0  0  0  0  0  0  0  0  0  0
    3.3395   -2.5057    3.1448 H   0  0  0  0  0  0  0  0  0  0  0  0
    2.5116   -3.4839    1.9353 H   0  0  0  0  0  0  0  0  0  0  0  0
    5.3294   -2.3145    1.6670 H   0  0  0  0  0  0  0  0  0  0  0  0
    3.6058   -3.8062   -0.3651 H   0  0  0  0  0  0  0  0  0  0  0  0
    4.3090   -2.2406   -0.5375 H   0  0  0  0  0  0  0  0  0  0  0  0
    5.8545   -4.8829   -0.5332 H   0  0  0  0  0  0  0  0  0  0  0  0
    5.4690   -3.9145   -1.9378 H   0  0  0  0  0  0  0  0  0  0  0  0
    4.5014   -5.2679    1.7406 H   0  0  0  0  0  0  0  0  0  0  0  0
    4.1085   -4.2776    4.0960 H   0  0  0  0  0  0  0  0  0  0  0  0
    5.7903   -3.6686    4.0240 H   0  0  0  0  0  0  0  0  0  0  0  0
    5.4569   -5.4087    4.0232 H   0  0  0  0  0  0  0  0  0  0  0  0
    6.6343   -5.5818    2.0303 H   0  0  0  0  0  0  0  0  0  0  0  0
  1  2  1  0
  1 27  1  0
  1 28  1  0
  1 29  1  0
  2  3  1  0
  2 30  1  0
  2 31  1  0
  3  4  1  0
  3 32  1  0
  3 33  1  0
  4  5  1  0
  4 34  1  0
  4 35  1  0
  5  6  1  0
  5 36  1  0
  5 37  1  0
  6  7  2  3
  6 38  1  0
  7  8  1  0
  7 39  1  0
  8  9  1  0
  8 40  1  0
  8 41  1  0
  9 10  2  3
  9 42  1  0
 10 11  1  0
 10 43  1  0
 11 12  1  0
 11 44  1  0
 11 45  1  0
 12 13  2  3
 12 46  1  0
 13 14  1  0
 13 47  1  0
 14 15  1  0
 14 48  1  0
 14 49  1  0
 15 16  2  3
 15 50  1  0
 16 17  1  0
 16 51  1  0
 17 18  1  0
 17 52  1  0
 17 53  1  0
 18 19  1  0
 18 24  1  0
 18 54  1  6
 19 20  1  0
 19 55  1  0
 19 56  1  0
 20 21  1  0
 20 57  1  0
 20 58  1  0
 21 22  2  0
 21 23  1  0
 24 25  1  0
 24 26  1  0
 24 59  1  6
 25 60  1  0
 25 61  1  0
 25 62  1  0
 26 63  1  0
M  CHG  1  23  -1
M  END
>  <i_m_ct_stereo_status>  (8) 
1

>  <s_m_source_file>  (8) 
/var/tmp/pbs.5076255.sched01/tmp5t01l7na/0y8cq_bsf.sdf

>  <i_m_source_file_index>  (8) 
8

>  <i_lp_mmshare_version>  (8) 
48012

>  <i_f3d_flags>  (8) 
0

>  <s_epik_input>  (8) 
W0NIM11bQ0gyXVtDSDJdW0NIMl1bQ0gyXS9bQ0hdPVtDSF0vW0NIMl0vW0NIXT1bQ0hdL1tDSDJdL1tDSF09W0NIXS9bQ0gyXS9bQ0hdPVtDSF0vW0NIMl1bQ0BASF0oW0NASF0oW0NIM10pW09IXSlbQ0gyXVtDSDJdQyg9TylbT0hd

>  <s_epik_cmdline>  (8) 
J2VwaWtfcHl0aG9uJywgJy1waHQnLCAnMi4wJywgJy1waCcsICc3LjAnLCAnLXRuJywgJzgnLCAnLW1hJywgJzIwMCcsICctaW1hZScsICc8aW5maWxlLm1hZT4nLCAnLW9tYWUnLCAnPG91dGZpbGUubWFlPic=

>  <r_epik_Ionization_Penalty>  (8) 
0.00442386

>  <r_epik_Ionization_Penalty_Charging>  (8) 
0.00442292

>  <r_epik_Ionization_Penalty_Neutral>  (8) 
9.38996e-07

>  <r_epik_State_Penalty>  (8) 
0.00318855

>  <r_epik_Charging_Adjusted_Penalty>  (8) 
0.00761147

>  <i_epik_Tot_Q>  (8) 
-1

>  <i_epik_Tot_abs_Q>  (8) 
1

>  <s_lp_Force_Field>  (8) 
OPLS3e

>  <r_lp_Energy>  (8) 
0.1878

>  <b_lp_Chiralities_Consistent>  (8) 
1

>  <s_lp_Variant>  (8) 
1:0-7

>  <s_i_glide_gridfile>  (8) 
pfpi4k_grid

>  <i_i_glide_lignum>  (8) 
8

>  <i_i_glide_rotatable_bonds>  (8) 
17

>  <r_i_docking_score>  (8) 
-1.21187

>  <r_i_glide_ligand_efficiency>  (8) 
-0.0466103

>  <r_i_glide_ligand_efficiency_sa>  (8) 
-0.138083

>  <r_i_glide_ligand_efficiency_ln>  (8) 
-0.284603

>  <r_i_glide_gscore>  (8) 
-1.21187

>  <r_i_glide_lipo>  (8) 
-0.381011

>  <r_i_glide_hbond>  (8) 
-0.2

>  <r_i_glide_metal>  (8) 
-0

>  <r_i_glide_rewards>  (8) 
-1.00583

>  <r_i_glide_evdw>  (8) 
-19.5443

>  <r_i_glide_ecoul>  (8) 
-4.68923

>  <r_i_glide_erotb>  (8) 
2.05557

>  <r_i_glide_esite>  (8) 
0

>  <r_i_glide_emodel>  (8) 
-22.5869

>  <r_i_glide_energy>  (8) 
-24.2336

>  <r_i_glide_einternal>  (8) 
5.48661

>  <r_i_glide_intrahb_reward>  (8) 
-0

>  <i_i_glide_confnum>  (8) 
10

>  <i_i_glide_posenum>  (8) 
31

>  <r_i_glide_eff_state_penalty>  (8) 
0

>  <ligand_id>  (8) 
1

>  <original_smiles>  (8) 
CCCCCC=CCC=CCC=CCC=CCC(CCC(=O)O)C(C)O

>  <smiles>  (8) 
[H]OC([H])(C([H])([H])[H])C([H])(C([H])([H])C([H])=C([H])C([H])([H])C([H])=C([H])C([H])([H])C([H])=C([H])C([H])([H])C([H])=C([H])C([H])([H])C([H])([H])C([H])([H])C([H])([H])C([H])([H])[H])C([H])([H])C([H])([H])C(=O)[O-]

$$$$
1:6:1
     RDKit          3D

 63 62  0  0  1  0  0  0  0  0999 V2000
   -4.4242    3.3451    8.8976 C   0  0  0  0  0  0  0  0  0  0  0  0
   -3.0683    3.3811    8.1836 C   0  0  0  0  0  0  0  0  0  0  0  0
   -2.0656    4.3471    8.8416 C   0  0  0  0  0  0  0  0  0  0  0  0
   -0.7196    4.4693    8.0901 C   0  0  0  0  0  0  0  0  0  0  0  0
    0.0753    3.1493    7.9825 C   0  0  0  0  0  0  0  0  0  0  0  0
    1.4078    3.3244    7.2819 C   0  0  0  0  0  0  0  0  0  0  0  0
    1.8128    2.5716    6.2236 C   0  0  0  0  0  0  0  0  0  0  0  0
    3.0724    2.7896    5.4186 C   0  0  0  0  0  0  0  0  0  0  0  0
    2.8315    3.1360    3.9500 C   0  0  0  0  0  0  0  0  0  0  0  0
    1.6772    3.2969    3.2360 C   0  0  0  0  0  0  0  0  0  0  0  0
    0.2248    3.0783    3.6325 C   0  0  0  0  0  0  0  0  0  0  0  0
   -0.4156    1.8693    2.9620 C   0  0  0  0  0  0  0  0  0  0  0  0
    0.0850    0.9556    2.1041 C   0  0  0  0  0  0  0  0  0  0  0  0
    1.5012    0.8018    1.5451 C   0  0  0  0  0  0  0  0  0  0  0  0
    2.2497   -0.3397    2.1842 C   0  0  0  0  0  0  0  0  0  0  0  0
    2.5763   -1.4524    1.5139 C   0  0  0  0  0  0  0  0  0  0  0  0
    3.3455   -2.6313    2.0784 C   0  0  0  0  0  0  0  0  0  0  0  0
    4.3336   -3.3759    1.1126 C   0  0  2  0  0  0  0  0  0  0  0  0
    4.5682   -2.5931   -0.2198 C   0  0  0  0  0  0  0  0  0  0  0  0
    5.6696   -3.1175   -1.1689 C   0  0  0  0  0  0  0  0  0  0  0  0
    7.0808   -2.9680   -0.5446 C   0  0  0  0  0  0  0  0  0  0  0  0
    7.5673   -3.9481    0.0607 O   0  0  0  0  0  0  0  0  0  0  0  0
    7.6364   -1.8653   -0.7181 O   0  0  0  0  0  0  0  0  0  0  0  0
    3.8737   -4.8544    0.8868 C   0  0  2  0  0  0  0  0  0  0  0  0
    3.6243   -5.6677    2.1694 C   0  0  0  0  0  0  0  0  0  0  0  0
    4.8081   -5.6504    0.1949 O   0  0  0  0  0  0  0  0  0  0  0  0
   -5.1010    2.6486    8.4056 H   0  0  0  0  0  0  0  0  0  0  0  0
   -4.9032    4.3232    8.8878 H   0  0  0  0  0  0  0  0  0  0  0  0
   -4.3219    3.0360    9.9378 H   0  0  0  0  0  0  0  0  0  0  0  0
   -2.6600    2.3731    8.1830 H   0  0  0  0  0  0  0  0  0  0  0  0
   -3.2172    3.6577    7.1394 H   0  0  0  0  0  0  0  0  0  0  0  0
   -2.5257    5.3368    8.9149 H   0  0  0  0  0  0  0  0  0  0  0  0
   -1.8841    4.0335    9.8704 H   0  0  0  0  0  0  0  0  0  0  0  0
   -0.8997    4.8954    7.1008 H   0  0  0  0  0  0  0  0  0  0  0  0
   -0.1081    5.2043    8.6181 H   0  0  0  0  0  0  0  0  0  0  0  0
    0.2566    2.7481    8.9817 H   0  0  0  0  0  0  0  0  0  0  0  0
   -0.5219    2.4095    7.4444 H   0  0  0  0  0  0  0  0  0  0  0  0
    2.0684    4.0782    7.6625 H   0  0  0  0  0  0  0  0  0  0  0  0
    1.1848    1.7550    5.8886 H   0  0  0  0  0  0  0  0  0  0  0  0
    3.6510    3.6099    5.8490 H   0  0  0  0  0  0  0  0  0  0  0  0
    3.6631    1.8889    5.4894 H   0  0  0  0  0  0  0  0  0  0  0  0
    3.7538    3.3044    3.4007 H   0  0  0  0  0  0  0  0  0  0  0  0
    1.8105    3.5940    2.2021 H   0  0  0  0  0  0  0  0  0  0  0  0
    0.0536    2.9389    4.6932 H   0  0  0  0  0  0  0  0  0  0  0  0
   -0.3186    3.9788    3.3963 H   0  0  0  0  0  0  0  0  0  0  0  0
   -1.4620    1.7660    3.2110 H   0  0  0  0  0  0  0  0  0  0  0  0
   -0.6046    0.1761    1.7478 H   0  0  0  0  0  0  0  0  0  0  0  0
    1.4142    0.6727    0.4820 H   0  0  0  0  0  0  0  0  0  0  0  0
    2.1736    1.6262    1.6600 H   0  0  0  0  0  0  0  0  0  0  0  0
    2.5227   -0.2235    3.2311 H   0  0  0  0  0  0  0  0  0  0  0  0
    2.2513   -1.5114    0.4859 H   0  0  0  0  0  0  0  0  0  0  0  0
    3.8611   -2.3185    2.9885 H   0  0  0  0  0  0  0  0  0  0  0  0
    2.5299   -3.2625    2.3935 H   0  0  0  0  0  0  0  0  0  0  0  0
    5.2908   -3.3893    1.6380 H   0  0  0  0  0  0  0  0  0  0  0  0
    3.6390   -2.5746   -0.7885 H   0  0  0  0  0  0  0  0  0  0  0  0
    4.7874   -1.5408    0.0149 H   0  0  0  0  0  0  0  0  0  0  0  0
    5.5372   -4.1476   -1.4531 H   0  0  0  0  0  0  0  0  0  0  0  0
    5.6371   -2.5688   -2.1112 H   0  0  0  0  0  0  0  0  0  0  0  0
    2.9776   -4.8504    0.2685 H   0  0  0  0  0  0  0  0  0  0  0  0
    2.8589   -5.2347    2.8055 H   0  0  0  0  0  0  0  0  0  0  0  0
    4.5374   -5.7743    2.7615 H   0  0  0  0  0  0  0  0  0  0  0  0
    3.2692   -6.6659    1.9055 H   0  0  0  0  0  0  0  0  0  0  0  0
    4.8460   -5.3616   -0.7057 H   0  0  0  0  0  0  0  0  0  0  0  0
  1  2  1  0
  1 27  1  0
  1 28  1  0
  1 29  1  0
  2  3  1  0
  2 30  1  0
  2 31  1  0
  3  4  1  0
  3 32  1  0
  3 33  1  0
  4  5  1  0
  4 34  1  0
  4 35  1  0
  5  6  1  0
  5 36  1  0
  5 37  1  0
  6  7  2  3
  6 38  1  0
  7  8  1  0
  7 39  1  0
  8  9  1  0
  8 40  1  0
  8 41  1  0
  9 10  2  3
  9 42  1  0
 10 11  1  0
 10 43  1  0
 11 12  1  0
 11 44  1  0
 11 45  1  0
 12 13  2  3
 12 46  1  0
 13 14  1  0
 13 47  1  0
 14 15  1  0
 14 48  1  0
 14 49  1  0
 15 16  2  3
 15 50  1  0
 16 17  1  0
 16 51  1  0
 17 18  1  0
 17 52  1  0
 17 53  1  0
 18 19  1  0
 18 24  1  0
 18 54  1  1
 19 20  1  0
 19 55  1  0
 19 56  1  0
 20 21  1  0
 20 57  1  0
 20 58  1  0
 21 22  2  0
 21 23  1  0
 24 25  1  0
 24 26  1  0
 24 59  1  6
 25 60  1  0
 25 61  1  0
 25 62  1  0
 26 63  1  0
M  CHG  1  23  -1
M  END
>  <i_m_ct_stereo_status>  (9) 
1

>  <s_m_source_file>  (9) 
/var/tmp/pbs.5076255.sched01/tmp5t01l7na/0y8cq_bsf.sdf

>  <i_m_source_file_index>  (9) 
8

>  <i_lp_mmshare_version>  (9) 
48012

>  <i_f3d_flags>  (9) 
0

>  <s_epik_input>  (9) 
W0NIM11bQ0gyXVtDSDJdW0NIMl1bQ0gyXS9bQ0hdPVtDSF0vW0NIMl0vW0NIXT1bQ0hdL1tDSDJdL1tDSF09W0NIXS9bQ0gyXS9bQ0hdPVtDSF0vW0NIMl1bQ0BASF0oW0NASF0oW0NIM10pW09IXSlbQ0gyXVtDSDJdQyg9TylbT0hd

>  <s_epik_cmdline>  (9) 
J2VwaWtfcHl0aG9uJywgJy1waHQnLCAnMi4wJywgJy1waCcsICc3LjAnLCAnLXRuJywgJzgnLCAnLW1hJywgJzIwMCcsICctaW1hZScsICc8aW5maWxlLm1hZT4nLCAnLW9tYWUnLCAnPG91dGZpbGUubWFlPic=

>  <r_epik_Ionization_Penalty>  (9) 
0.00442386

>  <r_epik_Ionization_Penalty_Charging>  (9) 
0.00442292

>  <r_epik_Ionization_Penalty_Neutral>  (9) 
9.38996e-07

>  <r_epik_State_Penalty>  (9) 
0.00318855

>  <r_epik_Charging_Adjusted_Penalty>  (9) 
0.00761147

>  <i_epik_Tot_Q>  (9) 
-1

>  <i_epik_Tot_abs_Q>  (9) 
1

>  <s_lp_Force_Field>  (9) 
OPLS3e

>  <r_lp_Energy>  (9) 
0.1878

>  <b_lp_Chiralities_Consistent>  (9) 
1

>  <s_lp_Variant>  (9) 
1:0-7

>  <s_i_glide_gridfile>  (9) 
pfpi4k_grid

>  <i_i_glide_lignum>  (9) 
8

>  <i_i_glide_rotatable_bonds>  (9) 
17

>  <r_i_docking_score>  (9) 
-1.11615

>  <r_i_glide_ligand_efficiency>  (9) 
-0.0429289

>  <r_i_glide_ligand_efficiency_sa>  (9) 
-0.127177

>  <r_i_glide_ligand_efficiency_ln>  (9) 
-0.262125

>  <r_i_glide_gscore>  (9) 
-1.11615

>  <r_i_glide_lipo>  (9) 
-0.200711

>  <r_i_glide_hbond>  (9) 
-0.2

>  <r_i_glide_metal>  (9) 
-0

>  <r_i_glide_rewards>  (9) 
-1.01024

>  <r_i_glide_evdw>  (9) 
-19.8893

>  <r_i_glide_ecoul>  (9) 
-5.10873

>  <r_i_glide_erotb>  (9) 
2.05557

>  <r_i_glide_esite>  (9) 
0

>  <r_i_glide_emodel>  (9) 
-21.8713

>  <r_i_glide_energy>  (9) 
-24.9981

>  <r_i_glide_einternal>  (9) 
8.46892

>  <r_i_glide_intrahb_reward>  (9) 
-0

>  <i_i_glide_confnum>  (9) 
10

>  <i_i_glide_posenum>  (9) 
3

>  <r_i_glide_eff_state_penalty>  (9) 
0

>  <ligand_id>  (9) 
1

>  <original_smiles>  (9) 
CCCCCC=CCC=CCC=CCC=CCC(CCC(=O)O)C(C)O

>  <smiles>  (9) 
[H]OC([H])(C([H])([H])[H])C([H])(C([H])([H])C([H])=C([H])C([H])([H])C([H])=C([H])C([H])([H])C([H])=C([H])C([H])([H])C([H])=C([H])C([H])([H])C([H])([H])C([H])([H])C([H])([H])C([H])([H])[H])C([H])([H])C([H])([H])C(=O)[O-]

$$$$
1:8:0
     RDKit          3D

 63 62  0  0  1  0  0  0  0  0999 V2000
    1.4997   -8.8731    3.6888 C   0  0  0  0  0  0  0  0  0  0  0  0
    1.4525   -9.1961    2.1883 C   0  0  0  0  0  0  0  0  0  0  0  0
    2.8269   -9.1337    1.4963 C   0  0  0  0  0  0  0  0  0  0  0  0
    3.4131   -7.7094    1.4016 C   0  0  0  0  0  0  0  0  0  0  0  0
    4.7572   -7.6678    0.6583 C   0  0  0  0  0  0  0  0  0  0  0  0
    5.2822   -6.2560    0.4664 C   0  0  0  0  0  0  0  0  0  0  0  0
    6.5278   -5.8420    0.7762 C   0  0  0  0  0  0  0  0  0  0  0  0
    7.1242   -4.4515    0.5572 C   0  0  0  0  0  0  0  0  0  0  0  0
    6.1681   -3.4629   -0.0858 C   0  0  0  0  0  0  0  0  0  0  0  0
    5.8434   -2.2660    0.4335 C   0  0  0  0  0  0  0  0  0  0  0  0
    4.8937   -1.2779   -0.2071 C   0  0  0  0  0  0  0  0  0  0  0  0
    3.6499   -1.0760    0.6337 C   0  0  0  0  0  0  0  0  0  0  0  0
    3.2575    0.1087    1.1359 C   0  0  0  0  0  0  0  0  0  0  0  0
    1.9880    0.3273    1.9287 C   0  0  0  0  0  0  0  0  0  0  0  0
    2.2850    0.9519    3.2787 C   0  0  0  0  0  0  0  0  0  0  0  0
    1.6237    1.9776    3.8541 C   0  0  0  0  0  0  0  0  0  0  0  0
    0.4428    2.7520    3.2856 C   0  0  0  0  0  0  0  0  0  0  0  0
   -0.8827    2.6159    4.0966 C   0  0  2  0  0  0  0  0  0  0  0  0
   -1.5476    1.2299    3.8720 C   0  0  0  0  0  0  0  0  0  0  0  0
   -0.8530   -0.0124    4.4834 C   0  0  0  0  0  0  0  0  0  0  0  0
   -1.5993   -0.6083    5.6764 C   0  0  0  0  0  0  0  0  0  0  0  0
   -1.5667   -1.8496    5.8086 O   0  0  0  0  0  0  0  0  0  0  0  0
   -2.1840    0.1559    6.4743 O   0  0  0  0  0  0  0  0  0  0  0  0
   -1.9018    3.7847    3.8322 C   0  0  2  0  0  0  0  0  0  0  0  0
   -3.0681    3.4953    2.8767 C   0  0  0  0  0  0  0  0  0  0  0  0
   -1.2838    4.9459    3.3074 O   0  0  0  0  0  0  0  0  0  0  0  0
    0.5079   -8.9488    4.1330 H   0  0  0  0  0  0  0  0  0  0  0  0
    1.8673   -7.8646    3.8712 H   0  0  0  0  0  0  0  0  0  0  0  0
    2.1517   -9.5722    4.2132 H   0  0  0  0  0  0  0  0  0  0  0  0
    1.0450  -10.2035    2.0708 H   0  0  0  0  0  0  0  0  0  0  0  0
    0.7494   -8.5329    1.6792 H   0  0  0  0  0  0  0  0  0  0  0  0
    3.5277   -9.7924    2.0107 H   0  0  0  0  0  0  0  0  0  0  0  0
    2.7205   -9.5472    0.4910 H   0  0  0  0  0  0  0  0  0  0  0  0
    2.7021   -7.0609    0.8962 H   0  0  0  0  0  0  0  0  0  0  0  0
    3.5575   -7.2959    2.3960 H   0  0  0  0  0  0  0  0  0  0  0  0
    5.4937   -8.2805    1.1770 H   0  0  0  0  0  0  0  0  0  0  0  0
    4.6132   -8.1096   -0.3246 H   0  0  0  0  0  0  0  0  0  0  0  0
    4.5740   -5.5681    0.0269 H   0  0  0  0  0  0  0  0  0  0  0  0
    7.2069   -6.5542    1.2247 H   0  0  0  0  0  0  0  0  0  0  0  0
    7.5138   -4.0679    1.5009 H   0  0  0  0  0  0  0  0  0  0  0  0
    7.9917   -4.5466   -0.0996 H   0  0  0  0  0  0  0  0  0  0  0  0
    5.7366   -3.7675   -1.0277 H   0  0  0  0  0  0  0  0  0  0  0  0
    6.2825   -1.9688    1.3718 H   0  0  0  0  0  0  0  0  0  0  0  0
    5.4002   -0.3227   -0.3578 H   0  0  0  0  0  0  0  0  0  0  0  0
    4.5866   -1.6369   -1.1923 H   0  0  0  0  0  0  0  0  0  0  0  0
    3.0471   -1.9532    0.8180 H   0  0  0  0  0  0  0  0  0  0  0  0
    3.8629    0.9850    0.9598 H   0  0  0  0  0  0  0  0  0  0  0  0
    1.3221    0.9333    1.3197 H   0  0  0  0  0  0  0  0  0  0  0  0
    1.4750   -0.6198    2.1031 H   0  0  0  0  0  0  0  0  0  0  0  0
    3.1039    0.5077    3.8243 H   0  0  0  0  0  0  0  0  0  0  0  0
    1.9512    2.3024    4.8275 H   0  0  0  0  0  0  0  0  0  0  0  0
    0.8313    3.7712    3.2989 H   0  0  0  0  0  0  0  0  0  0  0  0
    0.2541    2.5195    2.2399 H   0  0  0  0  0  0  0  0  0  0  0  0
   -0.6312    2.6771    5.1570 H   0  0  0  0  0  0  0  0  0  0  0  0
   -2.5661    1.2621    4.2478 H   0  0  0  0  0  0  0  0  0  0  0  0
   -1.6577    1.0717    2.8025 H   0  0  0  0  0  0  0  0  0  0  0  0
   -0.7774   -0.7860    3.7143 H   0  0  0  0  0  0  0  0  0  0  0  0
    0.1512    0.1760    4.8381 H   0  0  0  0  0  0  0  0  0  0  0  0
   -2.3260    4.0764    4.7956 H   0  0  0  0  0  0  0  0  0  0  0  0
   -3.7973    2.8107    3.3147 H   0  0  0  0  0  0  0  0  0  0  0  0
   -2.7051    3.0523    1.9534 H   0  0  0  0  0  0  0  0  0  0  0  0
   -3.6067    4.4086    2.6188 H   0  0  0  0  0  0  0  0  0  0  0  0
   -0.7610    4.7167    2.5459 H   0  0  0  0  0  0  0  0  0  0  0  0
  1  2  1  0
  1 27  1  0
  1 28  1  0
  1 29  1  0
  2  3  1  0
  2 30  1  0
  2 31  1  0
  3  4  1  0
  3 32  1  0
  3 33  1  0
  4  5  1  0
  4 34  1  0
  4 35  1  0
  5  6  1  0
  5 36  1  0
  5 37  1  0
  6  7  2  3
  6 38  1  0
  7  8  1  0
  7 39  1  0
  8  9  1  0
  8 40  1  0
  8 41  1  0
  9 10  2  3
  9 42  1  0
 10 11  1  0
 10 43  1  0
 11 12  1  0
 11 44  1  0
 11 45  1  0
 12 13  2  3
 12 46  1  0
 13 14  1  0
 13 47  1  0
 14 15  1  0
 14 48  1  0
 14 49  1  0
 15 16  2  3
 15 50  1  0
 16 17  1  0
 16 51  1  0
 17 18  1  0
 17 52  1  0
 17 53  1  0
 18 19  1  0
 18 24  1  0
 18 54  1  1
 19 20  1  0
 19 55  1  0
 19 56  1  0
 20 21  1  0
 20 57  1  0
 20 58  1  0
 21 22  2  0
 21 23  1  0
 24 25  1  0
 24 26  1  0
 24 59  1  1
 25 60  1  0
 25 61  1  0
 25 62  1  0
 26 63  1  0
M  CHG  1  23  -1
M  END
>  <i_m_ct_stereo_status>  (10) 
1

>  <s_m_source_file>  (10) 
/var/tmp/pbs.5076255.sched01/tmp5t01l7na/0y8cq_bsf.sdf

>  <i_m_source_file_index>  (10) 
10

>  <i_lp_mmshare_version>  (10) 
48012

>  <i_f3d_flags>  (10) 
0

>  <s_epik_input>  (10) 
W0NIM11bQ0gyXVtDSDJdW0NIMl1bQ0gyXS9bQ0hdPVtDSF0vW0NIMl0vW0NIXT1bQ0hdL1tDSDJdL1tDSF09W0NIXS9bQ0gyXS9bQ0hdPVtDSF0vW0NIMl1bQ0BASF0oW0NASF0oW0NIM10pW09IXSlbQ0gyXVtDSDJdQyg9TylbT0hd

>  <s_epik_cmdline>  (10) 
J2VwaWtfcHl0aG9uJywgJy1waHQnLCAnMi4wJywgJy1waCcsICc3LjAnLCAnLXRuJywgJzgnLCAnLW1hJywgJzIwMCcsICctaW1hZScsICc8aW5maWxlLm1hZT4nLCAnLW9tYWUnLCAnPG91dGZpbGUubWFlPic=

>  <r_epik_Ionization_Penalty>  (10) 
0.00442386

>  <r_epik_Ionization_Penalty_Charging>  (10) 
0.00442292

>  <r_epik_Ionization_Penalty_Neutral>  (10) 
9.38996e-07

>  <r_epik_State_Penalty>  (10) 
0.00318855

>  <r_epik_Charging_Adjusted_Penalty>  (10) 
0.00761147

>  <i_epik_Tot_Q>  (10) 
-1

>  <i_epik_Tot_abs_Q>  (10) 
1

>  <s_lp_Force_Field>  (10) 
OPLS3e

>  <r_lp_Energy>  (10) 
-5.64097

>  <b_lp_Chiralities_Consistent>  (10) 
1

>  <s_lp_Variant>  (10) 
1:0-9

>  <s_i_glide_gridfile>  (10) 
pfpi4k_grid

>  <i_i_glide_lignum>  (10) 
10

>  <i_i_glide_rotatable_bonds>  (10) 
17

>  <r_i_docking_score>  (10) 
-3.03268

>  <r_i_glide_ligand_efficiency>  (10) 
-0.116642

>  <r_i_glide_ligand_efficiency_sa>  (10) 
-0.34555

>  <r_i_glide_ligand_efficiency_ln>  (10) 
-0.712215

>  <r_i_glide_gscore>  (10) 
-3.03268

>  <r_i_glide_lipo>  (10) 
-0.598556

>  <r_i_glide_hbond>  (10) 
-0.52

>  <r_i_glide_metal>  (10) 
-0

>  <r_i_glide_rewards>  (10) 
-0.944059

>  <r_i_glide_evdw>  (10) 
-24.8434

>  <r_i_glide_ecoul>  (10) 
-11.4008

>  <r_i_glide_erotb>  (10) 
2.05557

>  <r_i_glide_esite>  (10) 
-0.0733539

>  <r_i_glide_emodel>  (10) 
-40.0722

>  <r_i_glide_energy>  (10) 
-36.2442

>  <r_i_glide_einternal>  (10) 
11.4956

>  <r_i_glide_intrahb_reward>  (10) 
-0

>  <i_i_glide_confnum>  (10) 
8

>  <i_i_glide_posenum>  (10) 
9

>  <r_i_glide_eff_state_penalty>  (10) 
0

>  <ligand_id>  (10) 
1

>  <original_smiles>  (10) 
CCCCCC=CCC=CCC=CCC=CCC(CCC(=O)O)C(C)O

>  <smiles>  (10) 
[H]OC([H])(C([H])([H])[H])C([H])(C([H])([H])C([H])=C([H])C([H])([H])C([H])=C([H])C([H])([H])C([H])=C([H])C([H])([H])C([H])=C([H])C([H])([H])C([H])([H])C([H])([H])C([H])([H])C([H])([H])[H])C([H])([H])C([H])([H])C(=O)[O-]

$$$$
1:8:1
     RDKit          3D

 63 62  0  0  1  0  0  0  0  0999 V2000
    0.6328   -9.5801    2.9734 C   0  0  0  0  0  0  0  0  0  0  0  0
    2.0677   -9.9522    3.3639 C   0  0  0  0  0  0  0  0  0  0  0  0
    3.0847   -9.7629    2.2171 C   0  0  0  0  0  0  0  0  0  0  0  0
    3.4753   -8.2954    1.9594 C   0  0  0  0  0  0  0  0  0  0  0  0
    4.6549   -8.1522    0.9877 C   0  0  0  0  0  0  0  0  0  0  0  0
    5.0700   -6.7124    0.7439 C   0  0  0  0  0  0  0  0  0  0  0  0
    6.2933   -6.1988    1.0032 C   0  0  0  0  0  0  0  0  0  0  0  0
    6.7694   -4.7742    0.7348 C   0  0  0  0  0  0  0  0  0  0  0  0
    5.7263   -3.8780    0.0890 C   0  0  0  0  0  0  0  0  0  0  0  0
    5.3205   -2.7068    0.5727 C   0  0  0  0  0  0  0  0  0  0  0  0
    4.2846   -1.8127   -0.0735 C   0  0  0  0  0  0  0  0  0  0  0  0
    3.1111   -1.5550    0.8523 C   0  0  0  0  0  0  0  0  0  0  0  0
    2.8125   -0.3589    1.3931 C   0  0  0  0  0  0  0  0  0  0  0  0
    1.6144   -0.0878    2.2793 C   0  0  0  0  0  0  0  0  0  0  0  0
    2.0692    0.3647    3.6534 C   0  0  0  0  0  0  0  0  0  0  0  0
    1.8528    1.5542    4.2329 C   0  0  0  0  0  0  0  0  0  0  0  0
    1.0929    2.7354    3.6373 C   0  0  0  0  0  0  0  0  0  0  0  0
   -0.0874    3.2566    4.5072 C   0  0  2  0  0  0  0  0  0  0  0  0
   -1.2418    2.2246    4.7758 C   0  0  0  0  0  0  0  0  0  0  0  0
   -0.8191    0.7731    5.0809 C   0  0  0  0  0  0  0  0  0  0  0  0
   -1.8137   -0.0406    5.9136 C   0  0  0  0  0  0  0  0  0  0  0  0
   -1.9677   -1.2528    5.6428 O   0  0  0  0  0  0  0  0  0  0  0  0
   -2.3516    0.5601    6.8673 O   0  0  0  0  0  0  0  0  0  0  0  0
   -0.6482    4.6201    3.9678 C   0  0  2  0  0  0  0  0  0  0  0  0
   -1.8360    4.5227    2.9951 C   0  0  0  0  0  0  0  0  0  0  0  0
    0.3302    5.3748    3.2793 O   0  0  0  0  0  0  0  0  0  0  0  0
   -0.0456   -9.7323    3.8110 H   0  0  0  0  0  0  0  0  0  0  0  0
    0.2823  -10.1985    2.1477 H   0  0  0  0  0  0  0  0  0  0  0  0
    0.5637   -8.5375    2.6688 H   0  0  0  0  0  0  0  0  0  0  0  0
    2.3834   -9.3819    4.2389 H   0  0  0  0  0  0  0  0  0  0  0  0
    2.0790  -10.9989    3.6737 H   0  0  0  0  0  0  0  0  0  0  0  0
    3.9848  -10.3273    2.4650 H   0  0  0  0  0  0  0  0  0  0  0  0
    2.6968  -10.2177    1.3012 H   0  0  0  0  0  0  0  0  0  0  0  0
    2.6128   -7.7515    1.5713 H   0  0  0  0  0  0  0  0  0  0  0  0
    3.7336   -7.8205    2.9045 H   0  0  0  0  0  0  0  0  0  0  0  0
    5.5091   -8.7305    1.3433 H   0  0  0  0  0  0  0  0  0  0  0  0
    4.3825   -8.5861    0.0272 H   0  0  0  0  0  0  0  0  0  0  0  0
    4.2979   -6.0825    0.3256 H   0  0  0  0  0  0  0  0  0  0  0  0
    7.0417   -6.8488    1.4356 H   0  0  0  0  0  0  0  0  0  0  0  0
    7.1414   -4.3312    1.6672 H   0  0  0  0  0  0  0  0  0  0  0  0
    7.6360   -4.8158    0.0756 H   0  0  0  0  0  0  0  0  0  0  0  0
    5.2991   -4.2503   -0.8349 H   0  0  0  0  0  0  0  0  0  0  0  0
    5.7509   -2.3372    1.4942 H   0  0  0  0  0  0  0  0  0  0  0  0
    4.7396   -0.8586   -0.3534 H   0  0  0  0  0  0  0  0  0  0  0  0
    3.9058   -2.2693   -0.9936 H   0  0  0  0  0  0  0  0  0  0  0  0
    2.4767   -2.4048    1.0679 H   0  0  0  0  0  0  0  0  0  0  0  0
    3.4564    0.4949    1.1851 H   0  0  0  0  0  0  0  0  0  0  0  0
    0.9996    0.6521    1.7639 H   0  0  0  0  0  0  0  0  0  0  0  0
    1.0044   -0.9807    2.3829 H   0  0  0  0  0  0  0  0  0  0  0  0
    2.6303   -0.3890    4.2077 H   0  0  0  0  0  0  0  0  0  0  0  0
    2.2882    1.7236    5.2044 H   0  0  0  0  0  0  0  0  0  0  0  0
    1.8613    3.4986    3.5253 H   0  0  0  0  0  0  0  0  0  0  0  0
    0.7328    2.5399    2.6349 H   0  0  0  0  0  0  0  0  0  0  0  0
    0.3579    3.4690    5.4807 H   0  0  0  0  0  0  0  0  0  0  0  0
   -1.8732    2.6565    5.5548 H   0  0  0  0  0  0  0  0  0  0  0  0
   -1.8737    2.1456    3.8998 H   0  0  0  0  0  0  0  0  0  0  0  0
   -0.6460    0.2471    4.1644 H   0  0  0  0  0  0  0  0  0  0  0  0
    0.0674    0.7411    5.7083 H   0  0  0  0  0  0  0  0  0  0  0  0
   -0.9418    5.2118    4.8308 H   0  0  0  0  0  0  0  0  0  0  0  0
   -2.7393    4.1961    3.5062 H   0  0  0  0  0  0  0  0  0  0  0  0
   -1.6255    3.8127    2.1997 H   0  0  0  0  0  0  0  0  0  0  0  0
   -2.0440    5.4833    2.5226 H   0  0  0  0  0  0  0  0  0  0  0  0
    0.3833    5.0260    2.3837 H   0  0  0  0  0  0  0  0  0  0  0  0
  1  2  1  0
  1 27  1  0
  1 28  1  0
  1 29  1  0
  2  3  1  0
  2 30  1  0
  2 31  1  0
  3  4  1  0
  3 32  1  0
  3 33  1  0
  4  5  1  0
  4 34  1  0
  4 35  1  0
  5  6  1  0
  5 36  1  0
  5 37  1  0
  6  7  2  3
  6 38  1  0
  7  8  1  0
  7 39  1  0
  8  9  1  0
  8 40  1  0
  8 41  1  0
  9 10  2  3
  9 42  1  0
 10 11  1  0
 10 43  1  0
 11 12  1  0
 11 44  1  0
 11 45  1  0
 12 13  2  3
 12 46  1  0
 13 14  1  0
 13 47  1  0
 14 15  1  0
 14 48  1  0
 14 49  1  0
 15 16  2  3
 15 50  1  0
 16 17  1  0
 16 51  1  0
 17 18  1  0
 17 52  1  0
 17 53  1  0
 18 19  1  0
 18 24  1  0
 18 54  1  1
 19 20  1  0
 19 55  1  0
 19 56  1  0
 20 21  1  0
 20 57  1  0
 20 58  1  0
 21 22  2  0
 21 23  1  0
 24 25  1  0
 24 26  1  0
 24 59  1  1
 25 60  1  0
 25 61  1  0
 25 62  1  0
 26 63  1  0
M  CHG  1  23  -1
M  END
>  <i_m_ct_stereo_status>  (11) 
1

>  <s_m_source_file>  (11) 
/var/tmp/pbs.5076255.sched01/tmp5t01l7na/0y8cq_bsf.sdf

>  <i_m_source_file_index>  (11) 
10

>  <i_lp_mmshare_version>  (11) 
48012

>  <i_f3d_flags>  (11) 
0

>  <s_epik_input>  (11) 
W0NIM11bQ0gyXVtDSDJdW0NIMl1bQ0gyXS9bQ0hdPVtDSF0vW0NIMl0vW0NIXT1bQ0hdL1tDSDJdL1tDSF09W0NIXS9bQ0gyXS9bQ0hdPVtDSF0vW0NIMl1bQ0BASF0oW0NASF0oW0NIM10pW09IXSlbQ0gyXVtDSDJdQyg9TylbT0hd

>  <s_epik_cmdline>  (11) 
J2VwaWtfcHl0aG9uJywgJy1waHQnLCAnMi4wJywgJy1waCcsICc3LjAnLCAnLXRuJywgJzgnLCAnLW1hJywgJzIwMCcsICctaW1hZScsICc8aW5maWxlLm1hZT4nLCAnLW9tYWUnLCAnPG91dGZpbGUubWFlPic=

>  <r_epik_Ionization_Penalty>  (11) 
0.00442386

>  <r_epik_Ionization_Penalty_Charging>  (11) 
0.00442292

>  <r_epik_Ionization_Penalty_Neutral>  (11) 
9.38996e-07

>  <r_epik_State_Penalty>  (11) 
0.00318855

>  <r_epik_Charging_Adjusted_Penalty>  (11) 
0.00761147

>  <i_epik_Tot_Q>  (11) 
-1

>  <i_epik_Tot_abs_Q>  (11) 
1

>  <s_lp_Force_Field>  (11) 
OPLS3e

>  <r_lp_Energy>  (11) 
-5.64097

>  <b_lp_Chiralities_Consistent>  (11) 
1

>  <s_lp_Variant>  (11) 
1:0-9

>  <s_i_glide_gridfile>  (11) 
pfpi4k_grid

>  <i_i_glide_lignum>  (11) 
10

>  <i_i_glide_rotatable_bonds>  (11) 
17

>  <r_i_docking_score>  (11) 
-2.09176

>  <r_i_glide_ligand_efficiency>  (11) 
-0.0804523

>  <r_i_glide_ligand_efficiency_sa>  (11) 
-0.23834

>  <r_i_glide_ligand_efficiency_ln>  (11) 
-0.491243

>  <r_i_glide_gscore>  (11) 
-2.09176

>  <r_i_glide_lipo>  (11) 
-0.411284

>  <r_i_glide_hbond>  (11) 
-0.379778

>  <r_i_glide_metal>  (11) 
-0

>  <r_i_glide_rewards>  (11) 
-0.944059

>  <r_i_glide_evdw>  (11) 
-21.2919

>  <r_i_glide_ecoul>  (11) 
-8.35628

>  <r_i_glide_erotb>  (11) 
2.05557

>  <r_i_glide_esite>  (11) 
-0.094176

>  <r_i_glide_emodel>  (11) 
-28.9618

>  <r_i_glide_energy>  (11) 
-29.6481

>  <r_i_glide_einternal>  (11) 
11.3715

>  <r_i_glide_intrahb_reward>  (11) 
-0

>  <i_i_glide_confnum>  (11) 
8

>  <i_i_glide_posenum>  (11) 
1

>  <r_i_glide_eff_state_penalty>  (11) 
0

>  <ligand_id>  (11) 
1

>  <original_smiles>  (11) 
CCCCCC=CCC=CCC=CCC=CCC(CCC(=O)O)C(C)O

>  <smiles>  (11) 
[H]OC([H])(C([H])([H])[H])C([H])(C([H])([H])C([H])=C([H])C([H])([H])C([H])=C([H])C([H])([H])C([H])=C([H])C([H])([H])C([H])=C([H])C([H])([H])C([H])([H])C([H])([H])C([H])([H])C([H])([H])[H])C([H])([H])C([H])([H])C(=O)[O-]

$$$$
1:12:0
     RDKit          3D

 63 62  0  0  1  0  0  0  0  0999 V2000
   -1.4095   -6.9223    3.9401 C   0  0  0  0  0  0  0  0  0  0  0  0
   -1.5198   -8.4299    4.1645 C   0  0  0  0  0  0  0  0  0  0  0  0
   -0.6592   -9.2506    3.1916 C   0  0  0  0  0  0  0  0  0  0  0  0
    0.8517   -9.1131    3.4507 C   0  0  0  0  0  0  0  0  0  0  0  0
    1.6944  -10.1113    2.6428 C   0  0  0  0  0  0  0  0  0  0  0  0
    3.1426   -9.6761    2.5276 C   0  0  0  0  0  0  0  0  0  0  0  0
    3.7810   -9.4291    1.3708 C   0  0  0  0  0  0  0  0  0  0  0  0
    5.2289   -8.9838    1.2848 C   0  0  0  0  0  0  0  0  0  0  0  0
    5.3138   -7.5063    0.9522 C   0  0  0  0  0  0  0  0  0  0  0  0
    6.0752   -6.6294    1.6303 C   0  0  0  0  0  0  0  0  0  0  0  0
    6.1510   -5.1502    1.3255 C   0  0  0  0  0  0  0  0  0  0  0  0
    5.9120   -4.3322    2.5779 C   0  0  0  0  0  0  0  0  0  0  0  0
    5.2492   -3.1595    2.6274 C   0  0  0  0  0  0  0  0  0  0  0  0
    4.6098   -2.4512    1.4511 C   0  0  0  0  0  0  0  0  0  0  0  0
    4.5791   -0.9662    1.7603 C   0  0  0  0  0  0  0  0  0  0  0  0
    3.5811   -0.2477    2.2717 C   0  0  0  0  0  0  0  0  0  0  0  0
    2.1327   -0.6748    2.6108 C   0  0  0  0  0  0  0  0  0  0  0  0
    1.3038    0.3857    3.4206 C   0  0  2  0  0  0  0  0  0  0  0  0
    0.0027   -0.2791    3.9631 C   0  0  0  0  0  0  0  0  0  0  0  0
   -0.9179    0.6427    4.8047 C   0  0  0  0  0  0  0  0  0  0  0  0
   -1.8145   -0.0589    5.7975 C   0  0  0  0  0  0  0  0  0  0  0  0
   -2.1744   -1.2382    5.5884 O   0  0  0  0  0  0  0  0  0  0  0  0
   -2.1671    0.6251    6.7990 O   0  0  0  0  0  0  0  0  0  0  0  0
    0.9855    1.7125    2.6365 C   0  0  2  0  0  0  0  0  0  0  0  0
    2.1749    2.4616    2.0739 C   0  0  0  0  0  0  0  0  0  0  0  0
    0.4421    2.7436    3.4510 O   0  0  0  0  0  0  0  0  0  0  0  0
   -2.0418   -6.3873    4.6470 H   0  0  0  0  0  0  0  0  0  0  0  0
   -1.7254   -6.6654    2.9300 H   0  0  0  0  0  0  0  0  0  0  0  0
   -0.3874   -6.5721    4.0822 H   0  0  0  0  0  0  0  0  0  0  0  0
   -1.2518   -8.6740    5.1935 H   0  0  0  0  0  0  0  0  0  0  0  0
   -2.5625   -8.7307    4.0534 H   0  0  0  0  0  0  0  0  0  0  0  0
   -0.9441  -10.2935    3.2886 H   0  0  0  0  0  0  0  0  0  0  0  0
   -0.8956   -8.9804    2.1610 H   0  0  0  0  0  0  0  0  0  0  0  0
    1.1557   -8.0956    3.2060 H   0  0  0  0  0  0  0  0  0  0  0  0
    1.0599   -9.2561    4.5121 H   0  0  0  0  0  0  0  0  0  0  0  0
    1.6597  -11.0969    3.1070 H   0  0  0  0  0  0  0  0  0  0  0  0
    1.2761  -10.2233    1.6485 H   0  0  0  0  0  0  0  0  0  0  0  0
    3.6808   -9.5543    3.4537 H   0  0  0  0  0  0  0  0  0  0  0  0
    3.2564   -9.5452    0.4334 H   0  0  0  0  0  0  0  0  0  0  0  0
    5.7533   -9.2009    2.2138 H   0  0  0  0  0  0  0  0  0  0  0  0
    5.7334   -9.5707    0.5280 H   0  0  0  0  0  0  0  0  0  0  0  0
    4.7220   -7.1584    0.1212 H   0  0  0  0  0  0  0  0  0  0  0  0
    6.6834   -6.9828    2.4461 H   0  0  0  0  0  0  0  0  0  0  0  0
    7.1464   -4.9192    0.9529 H   0  0  0  0  0  0  0  0  0  0  0  0
    5.4317   -4.8857    0.5524 H   0  0  0  0  0  0  0  0  0  0  0  0
    6.3255   -4.7152    3.5010 H   0  0  0  0  0  0  0  0  0  0  0  0
    5.1567   -2.6679    3.5884 H   0  0  0  0  0  0  0  0  0  0  0  0
    5.1828   -2.6080    0.5379 H   0  0  0  0  0  0  0  0  0  0  0  0
    3.5974   -2.8100    1.3161 H   0  0  0  0  0  0  0  0  0  0  0  0
    5.5057   -0.4499    1.5624 H   0  0  0  0  0  0  0  0  0  0  0  0
    3.8372    0.7831    2.4625 H   0  0  0  0  0  0  0  0  0  0  0  0
    1.6039   -0.9052    1.6851 H   0  0  0  0  0  0  0  0  0  0  0  0
    2.1837   -1.6176    3.1504 H   0  0  0  0  0  0  0  0  0  0  0  0
    1.9058    0.6426    4.2925 H   0  0  0  0  0  0  0  0  0  0  0  0
   -0.5784   -0.6563    3.1285 H   0  0  0  0  0  0  0  0  0  0  0  0
    0.2689   -1.1605    4.5534 H   0  0  0  0  0  0  0  0  0  0  0  0
   -0.3260    1.3290    5.4049 H   0  0  0  0  0  0  0  0  0  0  0  0
   -1.5693    1.2346    4.1632 H   0  0  0  0  0  0  0  0  0  0  0  0
    0.2906    1.4936    1.8181 H   0  0  0  0  0  0  0  0  0  0  0  0
    2.5897    1.8190    1.2740 H   0  0  0  0  0  0  0  0  0  0  0  0
    2.9491    2.6152    2.8301 H   0  0  0  0  0  0  0  0  0  0  0  0
    1.9265    3.4374    1.6844 H   0  0  0  0  0  0  0  0  0  0  0  0
    0.2100    3.4457    2.8656 H   0  0  0  0  0  0  0  0  0  0  0  0
  1  2  1  0
  1 27  1  0
  1 28  1  0
  1 29  1  0
  2  3  1  0
  2 30  1  0
  2 31  1  0
  3  4  1  0
  3 32  1  0
  3 33  1  0
  4  5  1  0
  4 34  1  0
  4 35  1  0
  5  6  1  0
  5 36  1  0
  5 37  1  0
  6  7  2  3
  6 38  1  0
  7  8  1  0
  7 39  1  0
  8  9  1  0
  8 40  1  0
  8 41  1  0
  9 10  2  3
  9 42  1  0
 10 11  1  0
 10 43  1  0
 11 12  1  0
 11 44  1  0
 11 45  1  0
 12 13  2  3
 12 46  1  0
 13 14  1  0
 13 47  1  0
 14 15  1  0
 14 48  1  0
 14 49  1  0
 15 16  2  3
 15 50  1  0
 16 17  1  0
 16 51  1  0
 17 18  1  0
 17 52  1  0
 17 53  1  0
 18 19  1  0
 18 24  1  0
 18 54  1  1
 19 20  1  0
 19 55  1  0
 19 56  1  0
 20 21  1  0
 20 57  1  0
 20 58  1  0
 21 22  2  0
 21 23  1  0
 24 25  1  0
 24 26  1  0
 24 59  1  6
 25 60  1  0
 25 61  1  0
 25 62  1  0
 26 63  1  0
M  CHG  1  23  -1
M  END
>  <i_m_ct_stereo_status>  (12) 
1

>  <s_m_source_file>  (12) 
/var/tmp/pbs.5076255.sched01/tmp5t01l7na/0y8cq_bsf.sdf

>  <i_m_source_file_index>  (12) 
14

>  <i_lp_mmshare_version>  (12) 
48012

>  <i_f3d_flags>  (12) 
0

>  <s_epik_input>  (12) 
W0NIM11bQ0gyXVtDSDJdW0NIMl1bQ0gyXS9bQ0hdPVtDSF0vW0NIMl0vW0NIXT1bQ0hdL1tDSDJdL1tDSF09W0NIXS9bQ0gyXS9bQ0hdPVtDSF0vW0NIMl1bQ0BASF0oW0NASF0oW0NIM10pW09IXSlbQ0gyXVtDSDJdQyg9TylbT0hd

>  <s_epik_cmdline>  (12) 
J2VwaWtfcHl0aG9uJywgJy1waHQnLCAnMi4wJywgJy1waCcsICc3LjAnLCAnLXRuJywgJzgnLCAnLW1hJywgJzIwMCcsICctaW1hZScsICc8aW5maWxlLm1hZT4nLCAnLW9tYWUnLCAnPG91dGZpbGUubWFlPic=

>  <r_epik_Ionization_Penalty>  (12) 
0.00442386

>  <r_epik_Ionization_Penalty_Charging>  (12) 
0.00442292

>  <r_epik_Ionization_Penalty_Neutral>  (12) 
9.38996e-07

>  <r_epik_State_Penalty>  (12) 
0.00318855

>  <r_epik_Charging_Adjusted_Penalty>  (12) 
0.00761147

>  <i_epik_Tot_Q>  (12) 
-1

>  <i_epik_Tot_abs_Q>  (12) 
1

>  <s_lp_Force_Field>  (12) 
OPLS3e

>  <r_lp_Energy>  (12) 
-3.87724

>  <b_lp_Chiralities_Consistent>  (12) 
1

>  <s_lp_Variant>  (12) 
1:0-13

>  <s_i_glide_gridfile>  (12) 
pfpi4k_grid

>  <i_i_glide_lignum>  (12) 
14

>  <i_i_glide_rotatable_bonds>  (12) 
17

>  <r_i_docking_score>  (12) 
-1.839

>  <r_i_glide_ligand_efficiency>  (12) 
-0.0707307

>  <r_i_glide_ligand_efficiency_sa>  (12) 
-0.209539

>  <r_i_glide_ligand_efficiency_ln>  (12) 
-0.431883

>  <r_i_glide_gscore>  (12) 
-1.839

>  <r_i_glide_lipo>  (12) 
-0.492717

>  <r_i_glide_hbond>  (12) 
-0.27691

>  <r_i_glide_metal>  (12) 
-0

>  <r_i_glide_rewards>  (12) 
-0.944059

>  <r_i_glide_evdw>  (12) 
-21.7809

>  <r_i_glide_ecoul>  (12) 
-6.70286

>  <r_i_glide_erotb>  (12) 
2.05557

>  <r_i_glide_esite>  (12) 
-0.0864128

>  <r_i_glide_emodel>  (12) 
-25.3797

>  <r_i_glide_energy>  (12) 
-28.4837

>  <r_i_glide_einternal>  (12) 
12.3121

>  <r_i_glide_intrahb_reward>  (12) 
-0

>  <i_i_glide_confnum>  (12) 
6

>  <i_i_glide_posenum>  (12) 
2

>  <r_i_glide_eff_state_penalty>  (12) 
0

>  <ligand_id>  (12) 
1

>  <original_smiles>  (12) 
CCCCCC=CCC=CCC=CCC=CCC(CCC(=O)O)C(C)O

>  <smiles>  (12) 
[H]OC([H])(C([H])([H])[H])C([H])(C([H])([H])C([H])=C([H])C([H])([H])C([H])=C([H])C([H])([H])C([H])=C([H])C([H])([H])C([H])=C([H])C([H])([H])C([H])([H])C([H])([H])C([H])([H])C([H])([H])[H])C([H])([H])C([H])([H])C(=O)[O-]

$$$$
1:12:1
     RDKit          3D

 63 62  0  0  1  0  0  0  0  0999 V2000
    1.4004   -9.1142    8.1431 C   0  0  0  0  0  0  0  0  0  0  0  0
    0.2559   -8.7794    7.1782 C   0  0  0  0  0  0  0  0  0  0  0  0
    0.3746   -9.4911    5.8202 C   0  0  0  0  0  0  0  0  0  0  0  0
    1.6143   -9.0612    5.0108 C   0  0  0  0  0  0  0  0  0  0  0  0
    1.6553   -9.6662    3.5957 C   0  0  0  0  0  0  0  0  0  0  0  0
    2.9668   -9.3879    2.8844 C   0  0  0  0  0  0  0  0  0  0  0  0
    3.0868   -8.7776    1.6939 C   0  0  0  0  0  0  0  0  0  0  0  0
    4.4156   -8.4997    1.0086 C   0  0  0  0  0  0  0  0  0  0  0  0
    4.5531   -7.0223    0.6783 C   0  0  0  0  0  0  0  0  0  0  0  0
    5.4896   -6.2111    1.1968 C   0  0  0  0  0  0  0  0  0  0  0  0
    5.6207   -4.7320    0.8764 C   0  0  0  0  0  0  0  0  0  0  0  0
    5.4743   -3.8871    2.1289 C   0  0  0  0  0  0  0  0  0  0  0  0
    4.9767   -2.6478    2.1678 C   0  0  0  0  0  0  0  0  0  0  0  0
    4.4726   -1.8941    0.9534 C   0  0  0  0  0  0  0  0  0  0  0  0
    4.3619   -0.4196    1.3225 C   0  0  0  0  0  0  0  0  0  0  0  0
    3.3649    0.2247    1.9356 C   0  0  0  0  0  0  0  0  0  0  0  0
    2.0030   -0.2966    2.3963 C   0  0  0  0  0  0  0  0  0  0  0  0
    1.1661    0.7161    3.2947 C   0  0  2  0  0  0  0  0  0  0  0  0
   -0.1930    0.0650    3.7043 C   0  0  0  0  0  0  0  0  0  0  0  0
   -1.0309    0.8472    4.7451 C   0  0  0  0  0  0  0  0  0  0  0  0
   -1.8305    0.0131    5.7241 C   0  0  0  0  0  0  0  0  0  0  0  0
   -2.1545   -1.1774    5.4234 O   0  0  0  0  0  0  0  0  0  0  0  0
   -2.1746    0.5094    6.7807 O   0  0  0  0  0  0  0  0  0  0  0  0
    0.9886    2.1453    2.6122 C   0  0  2  0  0  0  0  0  0  0  0  0
    2.1870    3.1392    2.7087 C   0  0  0  0  0  0  0  0  0  0  0  0
    0.0183    2.9746    3.2670 O   0  0  0  0  0  0  0  0  0  0  0  0
    1.2877   -8.5889    9.0909 H   0  0  0  0  0  0  0  0  0  0  0  0
    2.3660   -8.8258    7.7299 H   0  0  0  0  0  0  0  0  0  0  0  0
    1.4378  -10.1842    8.3524 H   0  0  0  0  0  0  0  0  0  0  0  0
   -0.6858   -9.0611    7.6489 H   0  0  0  0  0  0  0  0  0  0  0  0
    0.2093   -7.7009    7.0265 H   0  0  0  0  0  0  0  0  0  0  0  0
    0.3905  -10.5704    5.9774 H   0  0  0  0  0  0  0  0  0  0  0  0
   -0.5249   -9.2903    5.2393 H   0  0  0  0  0  0  0  0  0  0  0  0
    1.6493   -7.9725    4.9470 H   0  0  0  0  0  0  0  0  0  0  0  0
    2.5131   -9.3688    5.5454 H   0  0  0  0  0  0  0  0  0  0  0  0
    1.5252  -10.7488    3.6545 H   0  0  0  0  0  0  0  0  0  0  0  0
    0.8258   -9.2750    3.0036 H   0  0  0  0  0  0  0  0  0  0  0  0
    3.8558   -9.7245    3.3926 H   0  0  0  0  0  0  0  0  0  0  0  0
    2.1947   -8.4611    1.1751 H   0  0  0  0  0  0  0  0  0  0  0  0
    5.2415   -8.8197    1.6512 H   0  0  0  0  0  0  0  0  0  0  0  0
    4.4769   -9.0846    0.0882 H   0  0  0  0  0  0  0  0  0  0  0  0
    3.8373   -6.6189   -0.0227 H   0  0  0  0  0  0  0  0  0  0  0  0
    6.2093   -6.6222    1.8896 H   0  0  0  0  0  0  0  0  0  0  0  0
    6.6098   -4.5551    0.4510 H   0  0  0  0  0  0  0  0  0  0  0  0
    4.8769   -4.4476    0.1253 H   0  0  0  0  0  0  0  0  0  0  0  0
    5.7900   -4.3199    3.0554 H   0  0  0  0  0  0  0  0  0  0  0  0
    4.9094   -2.1304    3.1188 H   0  0  0  0  0  0  0  0  0  0  0  0
    5.1714   -1.9423    0.0925 H   0  0  0  0  0  0  0  0  0  0  0  0
    3.4693   -2.2175    0.6648 H   0  0  0  0  0  0  0  0  0  0  0  0
    5.1889    0.1947    1.0545 H   0  0  0  0  0  0  0  0  0  0  0  0
    3.6281    1.1964    2.1125 H   0  0  0  0  0  0  0  0  0  0  0  0
    1.3782   -0.5750    1.5038 H   0  0  0  0  0  0  0  0  0  0  0  0
    2.1615   -1.2509    2.9819 H   0  0  0  0  0  0  0  0  0  0  0  0
    1.7235    0.8658    4.2224 H   0  0  0  0  0  0  0  0  0  0  0  0
   -0.8064   -0.0730    2.8238 H   0  0  0  0  0  0  0  0  0  0  0  0
    0.0143   -0.9318    4.0828 H   0  0  0  0  0  0  0  0  0  0  0  0
   -0.3962    1.5054    5.3431 H   0  0  0  0  0  0  0  0  0  0  0  0
   -1.7630    1.4862    4.2467 H   0  0  0  0  0  0  0  0  0  0  0  0
    0.6453    1.9861    1.5705 H   0  0  0  0  0  0  0  0  0  0  0  0
    3.0027    2.9611    2.0830 H   0  0  0  0  0  0  0  0  0  0  0  0
    2.5800    3.1545    3.7339 H   0  0  0  0  0  0  0  0  0  0  0  0
    1.8682    4.1411    2.3676 H   0  0  0  0  0  0  0  0  0  0  0  0
   -0.2342    3.6257    2.6218 H   0  0  0  0  0  0  0  0  0  0  0  0
  1  2  1  0
  1 27  1  0
  1 28  1  0
  1 29  1  0
  2  3  1  0
  2 30  1  0
  2 31  1  0
  3  4  1  0
  3 32  1  0
  3 33  1  0
  4  5  1  0
  4 34  1  0
  4 35  1  0
  5  6  1  0
  5 36  1  0
  5 37  1  0
  6  7  2  3
  6 38  1  0
  7  8  1  0
  7 39  1  0
  8  9  1  0
  8 40  1  0
  8 41  1  0
  9 10  2  3
  9 42  1  0
 10 11  1  0
 10 43  1  0
 11 12  1  0
 11 44  1  0
 11 45  1  0
 12 13  2  3
 12 46  1  0
 13 14  1  0
 13 47  1  0
 14 15  1  0
 14 48  1  0
 14 49  1  0
 15 16  2  3
 15 50  1  0
 16 17  1  0
 16 51  1  0
 17 18  1  0
 17 52  1  0
 17 53  1  0
 18 19  1  0
 18 24  1  0
 18 54  1  1
 19 20  1  0
 19 55  1  0
 19 56  1  0
 20 21  1  0
 20 57  1  0
 20 58  1  0
 21 22  2  0
 21 23  1  0
 24 25  1  0
 24 26  1  0
 24 59  1  6
 25 60  1  0
 25 61  1  0
 25 62  1  0
 26 63  1  0
M  CHG  1  23  -1
M  END
>  <i_m_ct_stereo_status>  (13) 
1

>  <s_m_source_file>  (13) 
/var/tmp/pbs.5076255.sched01/tmp5t01l7na/0y8cq_bsf.sdf

>  <i_m_source_file_index>  (13) 
14

>  <i_lp_mmshare_version>  (13) 
48012

>  <i_f3d_flags>  (13) 
0

>  <s_epik_input>  (13) 
W0NIM11bQ0gyXVtDSDJdW0NIMl1bQ0gyXS9bQ0hdPVtDSF0vW0NIMl0vW0NIXT1bQ0hdL1tDSDJdL1tDSF09W0NIXS9bQ0gyXS9bQ0hdPVtDSF0vW0NIMl1bQ0BASF0oW0NASF0oW0NIM10pW09IXSlbQ0gyXVtDSDJdQyg9TylbT0hd

>  <s_epik_cmdline>  (13) 
J2VwaWtfcHl0aG9uJywgJy1waHQnLCAnMi4wJywgJy1waCcsICc3LjAnLCAnLXRuJywgJzgnLCAnLW1hJywgJzIwMCcsICctaW1hZScsICc8aW5maWxlLm1hZT4nLCAnLW9tYWUnLCAnPG91dGZpbGUubWFlPic=

>  <r_epik_Ionization_Penalty>  (13) 
0.00442386

>  <r_epik_Ionization_Penalty_Charging>  (13) 
0.00442292

>  <r_epik_Ionization_Penalty_Neutral>  (13) 
9.38996e-07

>  <r_epik_State_Penalty>  (13) 
0.00318855

>  <r_epik_Charging_Adjusted_Penalty>  (13) 
0.00761147

>  <i_epik_Tot_Q>  (13) 
-1

>  <i_epik_Tot_abs_Q>  (13) 
1

>  <s_lp_Force_Field>  (13) 
OPLS3e

>  <r_lp_Energy>  (13) 
-3.87724

>  <b_lp_Chiralities_Consistent>  (13) 
1

>  <s_lp_Variant>  (13) 
1:0-13

>  <s_i_glide_gridfile>  (13) 
pfpi4k_grid

>  <i_i_glide_lignum>  (13) 
14

>  <i_i_glide_rotatable_bonds>  (13) 
17

>  <r_i_docking_score>  (13) 
-1.65135

>  <r_i_glide_ligand_efficiency>  (13) 
-0.0635136

>  <r_i_glide_ligand_efficiency_sa>  (13) 
-0.188159

>  <r_i_glide_ligand_efficiency_ln>  (13) 
-0.387815

>  <r_i_glide_gscore>  (13) 
-1.65135

>  <r_i_glide_lipo>  (13) 
-0.529621

>  <r_i_glide_hbond>  (13) 
-0.346994

>  <r_i_glide_metal>  (13) 
-0

>  <r_i_glide_rewards>  (13) 
-0.944059

>  <r_i_glide_evdw>  (13) 
-21.2614

>  <r_i_glide_ecoul>  (13) 
-8.86154

>  <r_i_glide_erotb>  (13) 
2.05557

>  <r_i_glide_esite>  (13) 
-0.0792982

>  <r_i_glide_emodel>  (13) 
-23.718

>  <r_i_glide_energy>  (13) 
-30.1229

>  <r_i_glide_einternal>  (13) 
14.1467

>  <r_i_glide_intrahb_reward>  (13) 
-0

>  <i_i_glide_confnum>  (13) 
6

>  <i_i_glide_posenum>  (13) 
25

>  <r_i_glide_eff_state_penalty>  (13) 
0

>  <ligand_id>  (13) 
1

>  <original_smiles>  (13) 
CCCCCC=CCC=CCC=CCC=CCC(CCC(=O)O)C(C)O

>  <smiles>  (13) 
[H]OC([H])(C([H])([H])[H])C([H])(C([H])([H])C([H])=C([H])C([H])([H])C([H])=C([H])C([H])([H])C([H])=C([H])C([H])([H])C([H])=C([H])C([H])([H])C([H])([H])C([H])([H])C([H])([H])C([H])([H])[H])C([H])([H])C([H])([H])C(=O)[O-]

$$$$
1:12:2
     RDKit          3D

 63 62  0  0  1  0  0  0  0  0999 V2000
   -2.1090   -8.1084    4.0513 C   0  0  0  0  0  0  0  0  0  0  0  0
   -1.1345   -8.6563    3.0150 C   0  0  0  0  0  0  0  0  0  0  0  0
    0.0958   -9.3000    3.6640 C   0  0  0  0  0  0  0  0  0  0  0  0
    1.1766   -9.6195    2.6298 C   0  0  0  0  0  0  0  0  0  0  0  0
    2.5609   -9.9311    3.2306 C   0  0  0  0  0  0  0  0  0  0  0  0
    3.7455   -9.4296    2.4308 C   0  0  0  0  0  0  0  0  0  0  0  0
    3.6875   -8.6301    1.3583 C   0  0  0  0  0  0  0  0  0  0  0  0
    4.8740   -8.0620    0.6064 C   0  0  0  0  0  0  0  0  0  0  0  0
    4.6848   -6.5888    0.2816 C   0  0  0  0  0  0  0  0  0  0  0  0
    4.0091   -5.7005    1.0428 C   0  0  0  0  0  0  0  0  0  0  0  0
    3.7895   -4.2426    0.6990 C   0  0  0  0  0  0  0  0  0  0  0  0
    4.6204   -3.3326    1.5821 C   0  0  0  0  0  0  0  0  0  0  0  0
    4.2117   -2.6941    2.6936 C   0  0  0  0  0  0  0  0  0  0  0  0
    2.8426   -2.7963    3.3247 C   0  0  0  0  0  0  0  0  0  0  0  0
    2.8597   -2.3378    4.7702 C   0  0  0  0  0  0  0  0  0  0  0  0
    2.0943   -1.3754    5.3139 C   0  0  0  0  0  0  0  0  0  0  0  0
    1.0759   -0.5150    4.5914 C   0  0  0  0  0  0  0  0  0  0  0  0
    0.8750    0.9017    5.2116 C   0  0  2  0  0  0  0  0  0  0  0  0
   -0.3763    1.6426    4.6501 C   0  0  0  0  0  0  0  0  0  0  0  0
   -1.6576    0.8028    4.4493 C   0  0  0  0  0  0  0  0  0  0  0  0
   -2.0297   -0.0147    5.6807 C   0  0  0  0  0  0  0  0  0  0  0  0
   -2.1359    0.5930    6.7738 O   0  0  0  0  0  0  0  0  0  0  0  0
   -2.2128   -1.2435    5.5387 O   0  0  0  0  0  0  0  0  0  0  0  0
    2.1474    1.7983    5.1097 C   0  0  2  0  0  0  0  0  0  0  0  0
    2.6573    2.0267    3.6752 C   0  0  0  0  0  0  0  0  0  0  0  0
    3.2218    1.2402    5.8339 O   0  0  0  0  0  0  0  0  0  0  0  0
   -2.9835   -7.6550    3.5834 H   0  0  0  0  0  0  0  0  0  0  0  0
   -1.6406   -7.3523    4.6856 H   0  0  0  0  0  0  0  0  0  0  0  0
   -2.4414   -8.9305    4.6835 H   0  0  0  0  0  0  0  0  0  0  0  0
   -1.6443   -9.3845    2.3811 H   0  0  0  0  0  0  0  0  0  0  0  0
   -0.8362   -7.8347    2.3596 H   0  0  0  0  0  0  0  0  0  0  0  0
    0.5046   -8.6086    4.3931 H   0  0  0  0  0  0  0  0  0  0  0  0
   -0.1810  -10.1982    4.2190 H   0  0  0  0  0  0  0  0  0  0  0  0
    0.8434  -10.4581    2.0119 H   0  0  0  0  0  0  0  0  0  0  0  0
    1.2357   -8.7547    1.9592 H   0  0  0  0  0  0  0  0  0  0  0  0
    2.6502   -9.4843    4.2174 H   0  0  0  0  0  0  0  0  0  0  0  0
    2.6647  -11.0009    3.3891 H   0  0  0  0  0  0  0  0  0  0  0  0
    4.7102   -9.7483    2.7863 H   0  0  0  0  0  0  0  0  0  0  0  0
    2.7223   -8.3350    0.9657 H   0  0  0  0  0  0  0  0  0  0  0  0
    5.8045   -8.2050    1.1646 H   0  0  0  0  0  0  0  0  0  0  0  0
    4.9565   -8.6476   -0.3055 H   0  0  0  0  0  0  0  0  0  0  0  0
    5.1220   -6.2481   -0.6440 H   0  0  0  0  0  0  0  0  0  0  0  0
    3.5740   -6.0209    1.9755 H   0  0  0  0  0  0  0  0  0  0  0  0
    4.0563   -4.0520   -0.3415 H   0  0  0  0  0  0  0  0  0  0  0  0
    2.7275   -4.0062    0.7929 H   0  0  0  0  0  0  0  0  0  0  0  0
    5.6420   -3.1925    1.2673 H   0  0  0  0  0  0  0  0  0  0  0  0
    4.9105   -2.0454    3.1993 H   0  0  0  0  0  0  0  0  0  0  0  0
    2.1282   -2.2390    2.7177 H   0  0  0  0  0  0  0  0  0  0  0  0
    2.5079   -3.8338    3.3121 H   0  0  0  0  0  0  0  0  0  0  0  0
    3.5456   -2.8631    5.4201 H   0  0  0  0  0  0  0  0  0  0  0  0
    2.1735   -1.1993    6.3759 H   0  0  0  0  0  0  0  0  0  0  0  0
    1.2904   -0.4239    3.5239 H   0  0  0  0  0  0  0  0  0  0  0  0
    0.1704   -1.1157    4.6489 H   0  0  0  0  0  0  0  0  0  0  0  0
    0.6834    0.7623    6.2789 H   0  0  0  0  0  0  0  0  0  0  0  0
   -0.6116    2.4834    5.3044 H   0  0  0  0  0  0  0  0  0  0  0  0
   -0.1473    2.0851    3.6823 H   0  0  0  0  0  0  0  0  0  0  0  0
   -2.4990    1.4524    4.2040 H   0  0  0  0  0  0  0  0  0  0  0  0
   -1.5385    0.1347    3.5962 H   0  0  0  0  0  0  0  0  0  0  0  0
    1.9505    2.7643    5.5783 H   0  0  0  0  0  0  0  0  0  0  0  0
    1.9512    2.6130    3.0899 H   0  0  0  0  0  0  0  0  0  0  0  0
    2.8359    1.0915    3.1448 H   0  0  0  0  0  0  0  0  0  0  0  0
    3.6037    2.5677    3.6808 H   0  0  0  0  0  0  0  0  0  0  0  0
    3.4161    0.3935    5.4467 H   0  0  0  0  0  0  0  0  0  0  0  0
  1  2  1  0
  1 27  1  0
  1 28  1  0
  1 29  1  0
  2  3  1  0
  2 30  1  0
  2 31  1  0
  3  4  1  0
  3 32  1  0
  3 33  1  0
  4  5  1  0
  4 34  1  0
  4 35  1  0
  5  6  1  0
  5 36  1  0
  5 37  1  0
  6  7  2  3
  6 38  1  0
  7  8  1  0
  7 39  1  0
  8  9  1  0
  8 40  1  0
  8 41  1  0
  9 10  2  3
  9 42  1  0
 10 11  1  0
 10 43  1  0
 11 12  1  0
 11 44  1  0
 11 45  1  0
 12 13  2  3
 12 46  1  0
 13 14  1  0
 13 47  1  0
 14 15  1  0
 14 48  1  0
 14 49  1  0
 15 16  2  3
 15 50  1  0
 16 17  1  0
 16 51  1  0
 17 18  1  0
 17 52  1  0
 17 53  1  0
 18 19  1  0
 18 24  1  0
 18 54  1  1
 19 20  1  0
 19 55  1  0
 19 56  1  0
 20 21  1  0
 20 57  1  0
 20 58  1  0
 21 22  2  0
 21 23  1  0
 24 25  1  0
 24 26  1  0
 24 59  1  1
 25 60  1  0
 25 61  1  0
 25 62  1  0
 26 63  1  0
M  CHG  1  23  -1
M  END
>  <i_m_ct_stereo_status>  (14) 
1

>  <s_m_source_file>  (14) 
/var/tmp/pbs.5076255.sched01/tmp5t01l7na/0y8cq_bsf.sdf

>  <i_m_source_file_index>  (14) 
14

>  <i_lp_mmshare_version>  (14) 
48012

>  <i_f3d_flags>  (14) 
0

>  <s_epik_input>  (14) 
W0NIM11bQ0gyXVtDSDJdW0NIMl1bQ0gyXS9bQ0hdPVtDSF0vW0NIMl0vW0NIXT1bQ0hdL1tDSDJdL1tDSF09W0NIXS9bQ0gyXS9bQ0hdPVtDSF0vW0NIMl1bQ0BASF0oW0NASF0oW0NIM10pW09IXSlbQ0gyXVtDSDJdQyg9TylbT0hd

>  <s_epik_cmdline>  (14) 
J2VwaWtfcHl0aG9uJywgJy1waHQnLCAnMi4wJywgJy1waCcsICc3LjAnLCAnLXRuJywgJzgnLCAnLW1hJywgJzIwMCcsICctaW1hZScsICc8aW5maWxlLm1hZT4nLCAnLW9tYWUnLCAnPG91dGZpbGUubWFlPic=

>  <r_epik_Ionization_Penalty>  (14) 
0.00442386

>  <r_epik_Ionization_Penalty_Charging>  (14) 
0.00442292

>  <r_epik_Ionization_Penalty_Neutral>  (14) 
9.38996e-07

>  <r_epik_State_Penalty>  (14) 
0.00318855

>  <r_epik_Charging_Adjusted_Penalty>  (14) 
0.00761147

>  <i_epik_Tot_Q>  (14) 
-1

>  <i_epik_Tot_abs_Q>  (14) 
1

>  <s_lp_Force_Field>  (14) 
OPLS3e

>  <r_lp_Energy>  (14) 
-3.87724

>  <b_lp_Chiralities_Consistent>  (14) 
1

>  <s_lp_Variant>  (14) 
1:0-13

>  <s_i_glide_gridfile>  (14) 
pfpi4k_grid

>  <i_i_glide_lignum>  (14) 
14

>  <i_i_glide_rotatable_bonds>  (14) 
17

>  <r_i_docking_score>  (14) 
-1.14754

>  <r_i_glide_ligand_efficiency>  (14) 
-0.0441361

>  <r_i_glide_ligand_efficiency_sa>  (14) 
-0.130753

>  <r_i_glide_ligand_efficiency_ln>  (14) 
-0.269496

>  <r_i_glide_gscore>  (14) 
-1.14754

>  <r_i_glide_lipo>  (14) 
-0.29468

>  <r_i_glide_hbond>  (14) 
-0.213387

>  <r_i_glide_metal>  (14) 
-0

>  <r_i_glide_rewards>  (14) 
-0.944059

>  <r_i_glide_evdw>  (14) 
-16.8486

>  <r_i_glide_ecoul>  (14) 
-5.54474

>  <r_i_glide_erotb>  (14) 
2.05557

>  <r_i_glide_esite>  (14) 
-0.0768449

>  <r_i_glide_emodel>  (14) 
-18.4369

>  <r_i_glide_energy>  (14) 
-22.3933

>  <r_i_glide_einternal>  (14) 
12.7692

>  <r_i_glide_intrahb_reward>  (14) 
-0

>  <i_i_glide_confnum>  (14) 
14

>  <i_i_glide_posenum>  (14) 
38

>  <r_i_glide_eff_state_penalty>  (14) 
0

>  <ligand_id>  (14) 
1

>  <original_smiles>  (14) 
CCCCCC=CCC=CCC=CCC=CCC(CCC(=O)O)C(C)O

>  <smiles>  (14) 
[H]OC([H])(C([H])([H])[H])C([H])(C([H])([H])C([H])=C([H])C([H])([H])C([H])=C([H])C([H])([H])C([H])=C([H])C([H])([H])C([H])=C([H])C([H])([H])C([H])([H])C([H])([H])C([H])([H])C([H])([H])[H])C([H])([H])C([H])([H])C(=O)[O-]

$$$$
1:13:0
     RDKit          3D

 63 62  0  0  1  0  0  0  0  0999 V2000
   -1.1727   -8.6082    2.1300 C   0  0  0  0  0  0  0  0  0  0  0  0
   -0.3134   -9.0471    3.3145 C   0  0  0  0  0  0  0  0  0  0  0  0
    0.7320  -10.1187    2.9518 C   0  0  0  0  0  0  0  0  0  0  0  0
    1.4424  -10.6958    4.1914 C   0  0  0  0  0  0  0  0  0  0  0  0
    2.2222   -9.5953    4.9281 C   0  0  0  0  0  0  0  0  0  0  0  0
    2.9062  -10.0979    6.1963 C   0  0  0  0  0  0  0  0  0  0  0  0
    4.1907   -9.9416    6.5898 C   0  0  0  0  0  0  0  0  0  0  0  0
    5.3451   -9.2278    5.9039 C   0  0  0  0  0  0  0  0  0  0  0  0
    4.9940   -8.5350    4.6201 C   0  0  0  0  0  0  0  0  0  0  0  0
    5.3136   -8.9532    3.3860 C   0  0  0  0  0  0  0  0  0  0  0  0
    4.8121   -8.3029    2.1078 C   0  0  0  0  0  0  0  0  0  0  0  0
    5.9583   -7.7252    1.3090 C   0  0  0  0  0  0  0  0  0  0  0  0
    6.0831   -6.4518    0.8794 C   0  0  0  0  0  0  0  0  0  0  0  0
    5.1068   -5.3020    1.0692 C   0  0  0  0  0  0  0  0  0  0  0  0
    5.8507   -4.1012    1.6299 C   0  0  0  0  0  0  0  0  0  0  0  0
    6.0296   -2.9054    1.0562 C   0  0  0  0  0  0  0  0  0  0  0  0
    5.4767   -2.4071   -0.2824 C   0  0  0  0  0  0  0  0  0  0  0  0
    4.0695   -1.7263   -0.2061 C   0  0  2  0  0  0  0  0  0  0  0  0
    3.5801   -1.3384   -1.6416 C   0  0  0  0  0  0  0  0  0  0  0  0
    3.1725   -2.5281   -2.5557 C   0  0  0  0  0  0  0  0  0  0  0  0
    3.9134   -2.5595   -3.8976 C   0  0  0  0  0  0  0  0  0  0  0  0
    4.2366   -3.6852   -4.3340 O   0  0  0  0  0  0  0  0  0  0  0  0
    4.1492   -1.4715   -4.4768 O   0  0  0  0  0  0  0  0  0  0  0  0
    3.9586   -0.4892    0.7473 C   0  0  2  0  0  0  0  0  0  0  0  0
    4.6987   -0.5854    2.0962 C   0  0  0  0  0  0  0  0  0  0  0  0
    2.5891   -0.2763    1.0727 O   0  0  0  0  0  0  0  0  0  0  0  0
   -1.9066   -7.8671    2.4470 H   0  0  0  0  0  0  0  0  0  0  0  0
   -1.7088   -9.4568    1.7073 H   0  0  0  0  0  0  0  0  0  0  0  0
   -0.5596   -8.1657    1.3447 H   0  0  0  0  0  0  0  0  0  0  0  0
    0.1733   -8.1601    3.7209 H   0  0  0  0  0  0  0  0  0  0  0  0
   -0.9560   -9.4394    4.1024 H   0  0  0  0  0  0  0  0  0  0  0  0
    0.2484  -10.9346    2.4119 H   0  0  0  0  0  0  0  0  0  0  0  0
    1.4597   -9.6912    2.2525 H   0  0  0  0  0  0  0  0  0  0  0  0
    0.7307  -11.2136    4.8455 H   0  0  0  0  0  0  0  0  0  0  0  0
    2.1614  -11.4466    3.8564 H   0  0  0  0  0  0  0  0  0  0  0  0
    2.8760   -9.1984    4.1881 H   0  0  0  0  0  0  0  0  0  0  0  0
    1.5582   -8.7966    5.2681 H   0  0  0  0  0  0  0  0  0  0  0  0
    2.2698  -10.6445    6.8767 H   0  0  0  0  0  0  0  0  0  0  0  0
    4.4595  -10.3871    7.5372 H   0  0  0  0  0  0  0  0  0  0  0  0
    5.7504   -8.4751    6.5925 H   0  0  0  0  0  0  0  0  0  0  0  0
    6.1558   -9.9397    5.7341 H   0  0  0  0  0  0  0  0  0  0  0  0
    4.3389   -7.6642    4.7254 H   0  0  0  0  0  0  0  0  0  0  0  0
    5.9813   -9.7917    3.2635 H   0  0  0  0  0  0  0  0  0  0  0  0
    4.3247   -9.0681    1.5053 H   0  0  0  0  0  0  0  0  0  0  0  0
    4.0483   -7.5676    2.3387 H   0  0  0  0  0  0  0  0  0  0  0  0
    6.7516   -8.4205    1.0658 H   0  0  0  0  0  0  0  0  0  0  0  0
    6.9805   -6.1974    0.3256 H   0  0  0  0  0  0  0  0  0  0  0  0
    4.6685   -5.0558    0.1035 H   0  0  0  0  0  0  0  0  0  0  0  0
    4.2909   -5.5494    1.7442 H   0  0  0  0  0  0  0  0  0  0  0  0
    6.2755   -4.2770    2.6069 H   0  0  0  0  0  0  0  0  0  0  0  0
    6.6186   -2.1824    1.5981 H   0  0  0  0  0  0  0  0  0  0  0  0
    6.1950   -1.6961   -0.6855 H   0  0  0  0  0  0  0  0  0  0  0  0
    5.4547   -3.2330   -1.0012 H   0  0  0  0  0  0  0  0  0  0  0  0
    3.3752   -2.4822    0.1683 H   0  0  0  0  0  0  0  0  0  0  0  0
    2.7071   -0.6865   -1.5853 H   0  0  0  0  0  0  0  0  0  0  0  0
    4.3323   -0.6986   -2.1091 H   0  0  0  0  0  0  0  0  0  0  0  0
    3.3309   -3.4752   -2.0396 H   0  0  0  0  0  0  0  0  0  0  0  0
    2.1043   -2.4838   -2.7663 H   0  0  0  0  0  0  0  0  0  0  0  0
    4.3291    0.3972    0.2365 H   0  0  0  0  0  0  0  0  0  0  0  0
    5.7655   -0.5641    1.9443 H   0  0  0  0  0  0  0  0  0  0  0  0
    4.4525   -1.5257    2.5882 H   0  0  0  0  0  0  0  0  0  0  0  0
    4.3973    0.2070    2.7933 H   0  0  0  0  0  0  0  0  0  0  0  0
    2.0312   -0.4450    0.3096 H   0  0  0  0  0  0  0  0  0  0  0  0
  1  2  1  0
  1 27  1  0
  1 28  1  0
  1 29  1  0
  2  3  1  0
  2 30  1  0
  2 31  1  0
  3  4  1  0
  3 32  1  0
  3 33  1  0
  4  5  1  0
  4 34  1  0
  4 35  1  0
  5  6  1  0
  5 36  1  0
  5 37  1  0
  6  7  2  3
  6 38  1  0
  7  8  1  0
  7 39  1  0
  8  9  1  0
  8 40  1  0
  8 41  1  0
  9 10  2  3
  9 42  1  0
 10 11  1  0
 10 43  1  0
 11 12  1  0
 11 44  1  0
 11 45  1  0
 12 13  2  3
 12 46  1  0
 13 14  1  0
 13 47  1  0
 14 15  1  0
 14 48  1  0
 14 49  1  0
 15 16  2  3
 15 50  1  0
 16 17  1  0
 16 51  1  0
 17 18  1  0
 17 52  1  0
 17 53  1  0
 18 19  1  0
 18 24  1  0
 18 54  1  1
 19 20  1  0
 19 55  1  0
 19 56  1  0
 20 21  1  0
 20 57  1  0
 20 58  1  0
 21 22  2  0
 21 23  1  0
 24 25  1  0
 24 26  1  0
 24 59  1  6
 25 60  1  0
 25 61  1  0
 25 62  1  0
 26 63  1  0
M  CHG  1  23  -1
M  END
>  <i_m_ct_stereo_status>  (15) 
1

>  <s_m_source_file>  (15) 
/var/tmp/pbs.5076255.sched01/tmp5t01l7na/0y8cq_bsf.sdf

>  <i_m_source_file_index>  (15) 
15

>  <i_lp_mmshare_version>  (15) 
48012

>  <i_f3d_flags>  (15) 
0

>  <s_epik_input>  (15) 
W0NIM11bQ0gyXVtDSDJdW0NIMl1bQ0gyXS9bQ0hdPVtDSF0vW0NIMl0vW0NIXT1bQ0hdL1tDSDJdL1tDSF09W0NIXS9bQ0gyXS9bQ0hdPVtDSF0vW0NIMl1bQ0BASF0oW0NASF0oW0NIM10pW09IXSlbQ0gyXVtDSDJdQyg9TylbT0hd

>  <s_epik_cmdline>  (15) 
J2VwaWtfcHl0aG9uJywgJy1waHQnLCAnMi4wJywgJy1waCcsICc3LjAnLCAnLXRuJywgJzgnLCAnLW1hJywgJzIwMCcsICctaW1hZScsICc8aW5maWxlLm1hZT4nLCAnLW9tYWUnLCAnPG91dGZpbGUubWFlPic=

>  <r_epik_Ionization_Penalty>  (15) 
0.00442386

>  <r_epik_Ionization_Penalty_Charging>  (15) 
0.00442292

>  <r_epik_Ionization_Penalty_Neutral>  (15) 
9.38996e-07

>  <r_epik_State_Penalty>  (15) 
0.00318855

>  <r_epik_Charging_Adjusted_Penalty>  (15) 
0.00761147

>  <i_epik_Tot_Q>  (15) 
-1

>  <i_epik_Tot_abs_Q>  (15) 
1

>  <s_lp_Force_Field>  (15) 
OPLS3e

>  <r_lp_Energy>  (15) 
-0.360204

>  <b_lp_Chiralities_Consistent>  (15) 
1

>  <s_lp_Variant>  (15) 
1:0-14

>  <s_i_glide_gridfile>  (15) 
pfpi4k_grid

>  <i_i_glide_lignum>  (15) 
15

>  <i_i_glide_rotatable_bonds>  (15) 
17

>  <r_i_docking_score>  (15) 
-2.00515

>  <r_i_glide_ligand_efficiency>  (15) 
-0.0771213

>  <r_i_glide_ligand_efficiency_sa>  (15) 
-0.228471

>  <r_i_glide_ligand_efficiency_ln>  (15) 
-0.470904

>  <r_i_glide_gscore>  (15) 
-2.00515

>  <r_i_glide_lipo>  (15) 
-0.615538

>  <r_i_glide_hbond>  (15) 
-0.360597

>  <r_i_glide_metal>  (15) 
-0

>  <r_i_glide_rewards>  (15) 
-1.0291

>  <r_i_glide_evdw>  (15) 
-22.5076

>  <r_i_glide_ecoul>  (15) 
-6.20068

>  <r_i_glide_erotb>  (15) 
2.05557

>  <r_i_glide_esite>  (15) 
0

>  <r_i_glide_emodel>  (15) 
-27.8472

>  <r_i_glide_energy>  (15) 
-28.7083

>  <r_i_glide_einternal>  (15) 
9.11732

>  <r_i_glide_intrahb_reward>  (15) 
-0

>  <i_i_glide_confnum>  (15) 
17

>  <i_i_glide_posenum>  (15) 
27

>  <r_i_glide_eff_state_penalty>  (15) 
0

>  <ligand_id>  (15) 
1

>  <original_smiles>  (15) 
CCCCCC=CCC=CCC=CCC=CCC(CCC(=O)O)C(C)O

>  <smiles>  (15) 
[H]OC([H])(C([H])([H])[H])C([H])(C([H])([H])C([H])=C([H])C([H])([H])C([H])=C([H])C([H])([H])C([H])=C([H])C([H])([H])C([H])=C([H])C([H])([H])C([H])([H])C([H])([H])C([H])([H])C([H])([H])[H])C([H])([H])C([H])([H])C(=O)[O-]

$$$$
1:13:1
     RDKit          3D

 63 62  0  0  1  0  0  0  0  0999 V2000
    2.2275   -9.1063    1.4762 C   0  0  0  0  0  0  0  0  0  0  0  0
    1.9153   -9.6676    2.8640 C   0  0  0  0  0  0  0  0  0  0  0  0
    0.5176  -10.3024    2.9985 C   0  0  0  0  0  0  0  0  0  0  0  0
   -0.6587   -9.3169    2.8290 C   0  0  0  0  0  0  0  0  0  0  0  0
   -0.6168   -8.0727    3.7484 C   0  0  0  0  0  0  0  0  0  0  0  0
   -0.5084   -8.4312    5.2266 C   0  0  0  0  0  0  0  0  0  0  0  0
    0.4668   -8.1113    6.0806 C   0  0  0  0  0  0  0  0  0  0  0  0
    1.7431   -7.3377    5.8115 C   0  0  0  0  0  0  0  0  0  0  0  0
    1.6467   -5.9197    6.2534 C   0  0  0  0  0  0  0  0  0  0  0  0
    2.6099   -5.2765    6.9385 C   0  0  0  0  0  0  0  0  0  0  0  0
    2.5775   -3.8249    7.3555 C   0  0  0  0  0  0  0  0  0  0  0  0
    1.1872   -3.2094    7.2444 C   0  0  0  0  0  0  0  0  0  0  0  0
    0.6465   -2.6040    6.1774 C   0  0  0  0  0  0  0  0  0  0  0  0
    1.2725   -2.4494    4.7999 C   0  0  0  0  0  0  0  0  0  0  0  0
    2.2684   -1.2993    4.7947 C   0  0  0  0  0  0  0  0  0  0  0  0
    2.1728   -0.1066    4.2167 C   0  0  0  0  0  0  0  0  0  0  0  0
    1.0226    0.4734    3.3993 C   0  0  0  0  0  0  0  0  0  0  0  0
    0.6327    1.9260    3.7997 C   0  0  2  0  0  0  0  0  0  0  0  0
   -0.8800    2.1924    3.5271 C   0  0  0  0  0  0  0  0  0  0  0  0
   -1.9021    1.3584    4.3418 C   0  0  0  0  0  0  0  0  0  0  0  0
   -1.7653    1.4814    5.8730 C   0  0  0  0  0  0  0  0  0  0  0  0
   -2.1954    0.5293    6.5544 O   0  0  0  0  0  0  0  0  0  0  0  0
   -1.2765    2.5349    6.3468 O   0  0  0  0  0  0  0  0  0  0  0  0
    1.5351    3.0123    3.1206 C   0  0  2  0  0  0  0  0  0  0  0  0
    2.9601    3.1101    3.6858 C   0  0  0  0  0  0  0  0  0  0  0  0
    0.9843    4.3239    3.2946 O   0  0  0  0  0  0  0  0  0  0  0  0
    3.1814   -8.5985    1.4796 H   0  0  0  0  0  0  0  0  0  0  0  0
    1.4867   -8.3816    1.1712 H   0  0  0  0  0  0  0  0  0  0  0  0
    2.2695   -9.8780    0.7033 H   0  0  0  0  0  0  0  0  0  0  0  0
    2.6790  -10.4011    3.1471 H   0  0  0  0  0  0  0  0  0  0  0  0
    2.0018   -8.8446    3.5872 H   0  0  0  0  0  0  0  0  0  0  0  0
    0.3865  -11.1341    2.2898 H   0  0  0  0  0  0  0  0  0  0  0  0
    0.4397  -10.7641    3.9798 H   0  0  0  0  0  0  0  0  0  0  0  0
   -0.7193   -8.9791    1.7946 H   0  0  0  0  0  0  0  0  0  0  0  0
   -1.5958   -9.8507    3.0033 H   0  0  0  0  0  0  0  0  0  0  0  0
    0.1862   -7.3986    3.4533 H   0  0  0  0  0  0  0  0  0  0  0  0
   -1.5374   -7.4951    3.6034 H   0  0  0  0  0  0  0  0  0  0  0  0
   -1.3396   -9.0204    5.5903 H   0  0  0  0  0  0  0  0  0  0  0  0
    0.3464   -8.4458    7.1104 H   0  0  0  0  0  0  0  0  0  0  0  0
    2.5839   -7.8632    6.2694 H   0  0  0  0  0  0  0  0  0  0  0  0
    1.9719   -7.2235    4.7461 H   0  0  0  0  0  0  0  0  0  0  0  0
    0.7452   -5.4170    5.9545 H   0  0  0  0  0  0  0  0  0  0  0  0
    3.4958   -5.8198    7.2223 H   0  0  0  0  0  0  0  0  0  0  0  0
    2.8884   -3.7535    8.4026 H   0  0  0  0  0  0  0  0  0  0  0  0
    3.3114   -3.2762    6.7640 H   0  0  0  0  0  0  0  0  0  0  0  0
    0.5929   -3.2907    8.1493 H   0  0  0  0  0  0  0  0  0  0  0  0
   -0.3433   -2.1735    6.2737 H   0  0  0  0  0  0  0  0  0  0  0  0
    1.7978   -3.3628    4.5069 H   0  0  0  0  0  0  0  0  0  0  0  0
    0.4709   -2.2929    4.0801 H   0  0  0  0  0  0  0  0  0  0  0  0
    3.1745   -1.5100    5.3494 H   0  0  0  0  0  0  0  0  0  0  0  0
    3.0371    0.5269    4.3594 H   0  0  0  0  0  0  0  0  0  0  0  0
    1.2523    0.4316    2.3361 H   0  0  0  0  0  0  0  0  0  0  0  0
    0.1721   -0.1900    3.5200 H   0  0  0  0  0  0  0  0  0  0  0  0
    0.7857    2.0412    4.8754 H   0  0  0  0  0  0  0  0  0  0  0  0
   -1.1524    3.2359    3.7209 H   0  0  0  0  0  0  0  0  0  0  0  0
   -1.0824    2.0537    2.4595 H   0  0  0  0  0  0  0  0  0  0  0  0
   -2.8898    1.7437    4.0833 H   0  0  0  0  0  0  0  0  0  0  0  0
   -1.8891    0.3020    4.0530 H   0  0  0  0  0  0  0  0  0  0  0  0
    1.5910    2.8227    2.0378 H   0  0  0  0  0  0  0  0  0  0  0  0
    3.5687    2.2553    3.3871 H   0  0  0  0  0  0  0  0  0  0  0  0
    2.9395    3.1625    4.7778 H   0  0  0  0  0  0  0  0  0  0  0  0
    3.4582    4.0142    3.3253 H   0  0  0  0  0  0  0  0  0  0  0  0
    0.6334    4.5340    2.4091 H   0  0  0  0  0  0  0  0  0  0  0  0
  1  2  1  0
  1 27  1  0
  1 28  1  0
  1 29  1  0
  2  3  1  0
  2 30  1  0
  2 31  1  0
  3  4  1  0
  3 32  1  0
  3 33  1  0
  4  5  1  0
  4 34  1  0
  4 35  1  0
  5  6  1  0
  5 36  1  0
  5 37  1  0
  6  7  2  3
  6 38  1  0
  7  8  1  0
  7 39  1  0
  8  9  1  0
  8 40  1  0
  8 41  1  0
  9 10  2  3
  9 42  1  0
 10 11  1  0
 10 43  1  0
 11 12  1  0
 11 44  1  0
 11 45  1  0
 12 13  2  3
 12 46  1  0
 13 14  1  0
 13 47  1  0
 14 15  1  0
 14 48  1  0
 14 49  1  0
 15 16  2  3
 15 50  1  0
 16 17  1  0
 16 51  1  0
 17 18  1  0
 17 52  1  0
 17 53  1  0
 18 19  1  0
 18 24  1  0
 18 54  1  1
 19 20  1  0
 19 55  1  0
 19 56  1  0
 20 21  1  0
 20 57  1  0
 20 58  1  0
 21 22  2  0
 21 23  1  0
 24 25  1  0
 24 26  1  0
 24 59  1  6
 25 60  1  0
 25 61  1  0
 25 62  1  0
 26 63  1  0
M  CHG  1  23  -1
M  END
>  <i_m_ct_stereo_status>  (16) 
1

>  <s_m_source_file>  (16) 
/var/tmp/pbs.5076255.sched01/tmp5t01l7na/0y8cq_bsf.sdf

>  <i_m_source_file_index>  (16) 
15

>  <i_lp_mmshare_version>  (16) 
48012

>  <i_f3d_flags>  (16) 
0

>  <s_epik_input>  (16) 
W0NIM11bQ0gyXVtDSDJdW0NIMl1bQ0gyXS9bQ0hdPVtDSF0vW0NIMl0vW0NIXT1bQ0hdL1tDSDJdL1tDSF09W0NIXS9bQ0gyXS9bQ0hdPVtDSF0vW0NIMl1bQ0BASF0oW0NASF0oW0NIM10pW09IXSlbQ0gyXVtDSDJdQyg9TylbT0hd

>  <s_epik_cmdline>  (16) 
J2VwaWtfcHl0aG9uJywgJy1waHQnLCAnMi4wJywgJy1waCcsICc3LjAnLCAnLXRuJywgJzgnLCAnLW1hJywgJzIwMCcsICctaW1hZScsICc8aW5maWxlLm1hZT4nLCAnLW9tYWUnLCAnPG91dGZpbGUubWFlPic=

>  <r_epik_Ionization_Penalty>  (16) 
0.00442386

>  <r_epik_Ionization_Penalty_Charging>  (16) 
0.00442292

>  <r_epik_Ionization_Penalty_Neutral>  (16) 
9.38996e-07

>  <r_epik_State_Penalty>  (16) 
0.00318855

>  <r_epik_Charging_Adjusted_Penalty>  (16) 
0.00761147

>  <i_epik_Tot_Q>  (16) 
-1

>  <i_epik_Tot_abs_Q>  (16) 
1

>  <s_lp_Force_Field>  (16) 
OPLS3e

>  <r_lp_Energy>  (16) 
-0.360204

>  <b_lp_Chiralities_Consistent>  (16) 
1

>  <s_lp_Variant>  (16) 
1:0-14

>  <s_i_glide_gridfile>  (16) 
pfpi4k_grid

>  <i_i_glide_lignum>  (16) 
15

>  <i_i_glide_rotatable_bonds>  (16) 
17

>  <r_i_docking_score>  (16) 
-1.6755

>  <r_i_glide_ligand_efficiency>  (16) 
-0.0644424

>  <r_i_glide_ligand_efficiency_sa>  (16) 
-0.19091

>  <r_i_glide_ligand_efficiency_ln>  (16) 
-0.393486

>  <r_i_glide_gscore>  (16) 
-1.6755

>  <r_i_glide_lipo>  (16) 
-0.170968

>  <r_i_glide_hbond>  (16) 
-0.36

>  <r_i_glide_metal>  (16) 
-0

>  <r_i_glide_rewards>  (16) 
-0.944059

>  <r_i_glide_evdw>  (16) 
-18.7965

>  <r_i_glide_ecoul>  (16) 
-8.57902

>  <r_i_glide_erotb>  (16) 
2.05557

>  <r_i_glide_esite>  (16) 
-0.0293679

>  <r_i_glide_emodel>  (16) 
-24.2595

>  <r_i_glide_energy>  (16) 
-27.3755

>  <r_i_glide_einternal>  (16) 
12.4174

>  <r_i_glide_intrahb_reward>  (16) 
-0

>  <i_i_glide_confnum>  (16) 
10

>  <i_i_glide_posenum>  (16) 
1

>  <r_i_glide_eff_state_penalty>  (16) 
0

>  <ligand_id>  (16) 
1

>  <original_smiles>  (16) 
CCCCCC=CCC=CCC=CCC=CCC(CCC(=O)O)C(C)O

>  <smiles>  (16) 
[H]OC([H])(C([H])([H])[H])C([H])(C([H])([H])C([H])=C([H])C([H])([H])C([H])=C([H])C([H])([H])C([H])=C([H])C([H])([H])C([H])=C([H])C([H])([H])C([H])([H])C([H])([H])C([H])([H])C([H])([H])[H])C([H])([H])C([H])([H])C(=O)[O-]

$$$$
1:13:2
     RDKit          3D

 63 62  0  0  1  0  0  0  0  0999 V2000
   -1.1491   -4.1885    9.9645 C   0  0  0  0  0  0  0  0  0  0  0  0
   -0.9852   -4.0387    8.4500 C   0  0  0  0  0  0  0  0  0  0  0  0
    0.3150   -4.6570    7.9096 C   0  0  0  0  0  0  0  0  0  0  0  0
    0.4548   -4.5178    6.3849 C   0  0  0  0  0  0  0  0  0  0  0  0
    0.6713   -3.0627    5.9253 C   0  0  0  0  0  0  0  0  0  0  0  0
    0.8484   -2.9401    4.4267 C   0  0  0  0  0  0  0  0  0  0  0  0
    0.3880   -1.9441    3.6491 C   0  0  0  0  0  0  0  0  0  0  0  0
   -0.4106   -0.7297    4.0811 C   0  0  0  0  0  0  0  0  0  0  0  0
    0.1778    0.5345    3.4777 C   0  0  0  0  0  0  0  0  0  0  0  0
    0.1487    1.7225    4.0858 C   0  0  0  0  0  0  0  0  0  0  0  0
    0.6394    3.0092    3.4750 C   0  0  0  0  0  0  0  0  0  0  0  0
   -0.3657    4.1369    3.6329 C   0  0  0  0  0  0  0  0  0  0  0  0
   -1.7156    4.1033    3.7625 C   0  0  0  0  0  0  0  0  0  0  0  0
   -2.6814    2.9266    3.6661 C   0  0  0  0  0  0  0  0  0  0  0  0
   -3.7844    3.1184    2.6428 C   0  0  0  0  0  0  0  0  0  0  0  0
   -4.1585    4.1579    1.8994 C   0  0  0  0  0  0  0  0  0  0  0  0
   -3.6408    5.5844    1.9154 C   0  0  0  0  0  0  0  0  0  0  0  0
   -4.2558    6.5120    0.8613 C   0  0  2  0  0  0  0  0  0  0  0  0
   -3.2987    7.7271    0.5886 C   0  0  0  0  0  0  0  0  0  0  0  0
   -3.5043    8.5904   -0.6860 C   0  0  0  0  0  0  0  0  0  0  0  0
   -3.5467    7.7366   -1.9599 C   0  0  0  0  0  0  0  0  0  0  0  0
   -2.8624    8.1017   -2.9488 O   0  0  0  0  0  0  0  0  0  0  0  0
   -4.2815    6.7612   -1.9579 O   0  0  0  0  0  0  0  0  0  0  0  0
   -5.6877    6.9245    1.3046 C   0  0  2  0  0  0  0  0  0  0  0  0
   -6.7403    5.8275    1.1344 C   0  0  0  0  0  0  0  0  0  0  0  0
   -6.1750    7.9852    0.5417 O   0  0  0  0  0  0  0  0  0  0  0  0
   -2.0769   -3.7264   10.3002 H   0  0  0  0  0  0  0  0  0  0  0  0
   -0.3274   -3.7085   10.4951 H   0  0  0  0  0  0  0  0  0  0  0  0
   -1.1743   -5.2356   10.2603 H   0  0  0  0  0  0  0  0  0  0  0  0
   -1.8415   -4.4844    7.9416 H   0  0  0  0  0  0  0  0  0  0  0  0
   -0.9941   -2.9784    8.2116 H   0  0  0  0  0  0  0  0  0  0  0  0
    1.1739   -4.1941    8.3987 H   0  0  0  0  0  0  0  0  0  0  0  0
    0.3460   -5.7147    8.1713 H   0  0  0  0  0  0  0  0  0  0  0  0
    1.3088   -5.1136    6.0620 H   0  0  0  0  0  0  0  0  0  0  0  0
   -0.4194   -4.9424    5.8891 H   0  0  0  0  0  0  0  0  0  0  0  0
   -0.1640   -2.4420    6.2395 H   0  0  0  0  0  0  0  0  0  0  0  0
    1.5689   -2.6609    6.3964 H   0  0  0  0  0  0  0  0  0  0  0  0
    1.4092   -3.7295    3.9497 H   0  0  0  0  0  0  0  0  0  0  0  0
    0.5985   -2.0016    2.5965 H   0  0  0  0  0  0  0  0  0  0  0  0
   -1.4394   -0.8248    3.7102 H   0  0  0  0  0  0  0  0  0  0  0  0
   -0.4778   -0.6103    5.1591 H   0  0  0  0  0  0  0  0  0  0  0  0
    0.6130    0.4464    2.4937 H   0  0  0  0  0  0  0  0  0  0  0  0
   -0.2838    1.7998    5.0737 H   0  0  0  0  0  0  0  0  0  0  0  0
    1.5557    3.3079    3.9981 H   0  0  0  0  0  0  0  0  0  0  0  0
    0.9043    2.8854    2.4255 H   0  0  0  0  0  0  0  0  0  0  0  0
    0.1089    5.1034    3.6303 H   0  0  0  0  0  0  0  0  0  0  0  0
   -2.2052    5.0102    3.9594 H   0  0  0  0  0  0  0  0  0  0  0  0
   -2.1902    2.0115    3.3206 H   0  0  0  0  0  0  0  0  0  0  0  0
   -3.1002    2.7399    4.6532 H   0  0  0  0  0  0  0  0  0  0  0  0
   -4.3572    2.2320    2.4613 H   0  0  0  0  0  0  0  0  0  0  0  0
   -4.9411    3.9634    1.1792 H   0  0  0  0  0  0  0  0  0  0  0  0
   -3.8070    5.9825    2.8777 H   0  0  0  0  0  0  0  0  0  0  0  0
   -2.5508    5.5669    1.6745 H   0  0  0  0  0  0  0  0  0  0  0  0
   -4.2662    5.8525    0.0169 H   0  0  0  0  0  0  0  0  0  0  0  0
   -3.3218    8.3998    1.4481 H   0  0  0  0  0  0  0  0  0  0  0  0
   -2.2689    7.3870    0.5793 H   0  0  0  0  0  0  0  0  0  0  0  0
   -4.4357    9.1585   -0.6409 H   0  0  0  0  0  0  0  0  0  0  0  0
   -2.6717    9.2916   -0.7624 H   0  0  0  0  0  0  0  0  0  0  0  0
   -5.6803    7.2514    2.3628 H   0  0  0  0  0  0  0  0  0  0  0  0
   -6.6252    5.0327    1.8724 H   0  0  0  0  0  0  0  0  0  0  0  0
   -6.6134    5.3797    0.1459 H   0  0  0  0  0  0  0  0  0  0  0  0
   -7.7500    6.2253    1.1689 H   0  0  0  0  0  0  0  0  0  0  0  0
   -5.4745    8.6253    0.3957 H   0  0  0  0  0  0  0  0  0  0  0  0
  1  2  1  0
  1 27  1  0
  1 28  1  0
  1 29  1  0
  2  3  1  0
  2 30  1  0
  2 31  1  0
  3  4  1  0
  3 32  1  0
  3 33  1  0
  4  5  1  0
  4 34  1  0
  4 35  1  0
  5  6  1  0
  5 36  1  0
  5 37  1  0
  6  7  2  3
  6 38  1  0
  7  8  1  0
  7 39  1  0
  8  9  1  0
  8 40  1  0
  8 41  1  0
  9 10  2  3
  9 42  1  0
 10 11  1  0
 10 43  1  0
 11 12  1  0
 11 44  1  0
 11 45  1  0
 12 13  2  3
 12 46  1  0
 13 14  1  0
 13 47  1  0
 14 15  1  0
 14 48  1  0
 14 49  1  0
 15 16  2  3
 15 50  1  0
 16 17  1  0
 16 51  1  0
 17 18  1  0
 17 52  1  0
 17 53  1  0
 18 19  1  0
 18 24  1  0
 18 54  1  6
 19 20  1  0
 19 55  1  0
 19 56  1  0
 20 21  1  0
 20 57  1  0
 20 58  1  0
 21 22  2  0
 21 23  1  0
 24 25  1  0
 24 26  1  0
 24 59  1  1
 25 60  1  0
 25 61  1  0
 25 62  1  0
 26 63  1  0
M  CHG  1  23  -1
M  END
>  <i_m_ct_stereo_status>  (17) 
1

>  <s_m_source_file>  (17) 
/var/tmp/pbs.5076255.sched01/tmp5t01l7na/0y8cq_bsf.sdf

>  <i_m_source_file_index>  (17) 
15

>  <i_lp_mmshare_version>  (17) 
48012

>  <i_f3d_flags>  (17) 
0

>  <s_epik_input>  (17) 
W0NIM11bQ0gyXVtDSDJdW0NIMl1bQ0gyXS9bQ0hdPVtDSF0vW0NIMl0vW0NIXT1bQ0hdL1tDSDJdL1tDSF09W0NIXS9bQ0gyXS9bQ0hdPVtDSF0vW0NIMl1bQ0BASF0oW0NASF0oW0NIM10pW09IXSlbQ0gyXVtDSDJdQyg9TylbT0hd

>  <s_epik_cmdline>  (17) 
J2VwaWtfcHl0aG9uJywgJy1waHQnLCAnMi4wJywgJy1waCcsICc3LjAnLCAnLXRuJywgJzgnLCAnLW1hJywgJzIwMCcsICctaW1hZScsICc8aW5maWxlLm1hZT4nLCAnLW9tYWUnLCAnPG91dGZpbGUubWFlPic=

>  <r_epik_Ionization_Penalty>  (17) 
0.00442386

>  <r_epik_Ionization_Penalty_Charging>  (17) 
0.00442292

>  <r_epik_Ionization_Penalty_Neutral>  (17) 
9.38996e-07

>  <r_epik_State_Penalty>  (17) 
0.00318855

>  <r_epik_Charging_Adjusted_Penalty>  (17) 
0.00761147

>  <i_epik_Tot_Q>  (17) 
-1

>  <i_epik_Tot_abs_Q>  (17) 
1

>  <s_lp_Force_Field>  (17) 
OPLS3e

>  <r_lp_Energy>  (17) 
-0.360204

>  <b_lp_Chiralities_Consistent>  (17) 
1

>  <s_lp_Variant>  (17) 
1:0-14

>  <s_i_glide_gridfile>  (17) 
pfpi4k_grid

>  <i_i_glide_lignum>  (17) 
15

>  <i_i_glide_rotatable_bonds>  (17) 
17

>  <r_i_docking_score>  (17) 
-1.02539

>  <r_i_glide_ligand_efficiency>  (17) 
-0.0394379

>  <r_i_glide_ligand_efficiency_sa>  (17) 
-0.116835

>  <r_i_glide_ligand_efficiency_ln>  (17) 
-0.240808

>  <r_i_glide_gscore>  (17) 
-1.02539

>  <r_i_glide_lipo>  (17) 
-0.526673

>  <r_i_glide_hbond>  (17) 
-0.0826366

>  <r_i_glide_metal>  (17) 
-0

>  <r_i_glide_rewards>  (17) 
-1.10188

>  <r_i_glide_evdw>  (17) 
-23.6299

>  <r_i_glide_ecoul>  (17) 
-1.25515

>  <r_i_glide_erotb>  (17) 
2.05557

>  <r_i_glide_esite>  (17) 
0

>  <r_i_glide_emodel>  (17) 
-20.4668

>  <r_i_glide_energy>  (17) 
-24.8851

>  <r_i_glide_einternal>  (17) 
9.20677

>  <r_i_glide_intrahb_reward>  (17) 
-0

>  <i_i_glide_confnum>  (17) 
18

>  <i_i_glide_posenum>  (17) 
5

>  <r_i_glide_eff_state_penalty>  (17) 
0

>  <ligand_id>  (17) 
1

>  <original_smiles>  (17) 
CCCCCC=CCC=CCC=CCC=CCC(CCC(=O)O)C(C)O

>  <smiles>  (17) 
[H]OC([H])(C([H])([H])[H])C([H])(C([H])([H])C([H])=C([H])C([H])([H])C([H])=C([H])C([H])([H])C([H])=C([H])C([H])([H])C([H])=C([H])C([H])([H])C([H])([H])C([H])([H])C([H])([H])C([H])([H])[H])C([H])([H])C([H])([H])C(=O)[O-]

$$$$
4:0:0
     RDKit          3D

 33 35  0  0  1  0  0  0  0  0999 V2000
    2.3048    2.8170    2.8845 C   0  0  0  0  0  0  0  0  0  0  0  0
    1.6363    1.4363    2.9128 C   0  0  1  0  0  0  0  0  0  0  0  0
    1.9957    0.8110    1.6840 O   0  0  0  0  0  0  0  0  0  0  0  0
    2.1719    0.6125    4.1012 C   0  0  0  0  0  0  0  0  0  0  0  0
    3.0952   -0.1900    3.9465 O   0  0  0  0  0  0  0  0  0  0  0  0
    1.5815    0.8688    5.4244 C   0  0  0  0  0  0  0  0  0  0  0  0
    0.3435    1.3807    5.5570 C   0  0  0  0  0  0  0  0  0  0  0  0
   -0.1390    1.7085    6.8930 C   0  0  0  0  0  0  0  0  0  0  0  0
   -1.2935    2.3824    7.1001 C   0  0  0  0  0  0  0  0  0  0  0  0
   -1.7613    2.7122    8.4165 C   0  0  0  0  0  0  0  0  0  0  0  0
   -1.0070    2.5542    9.5506 C   0  0  0  0  0  0  0  0  0  0  0  0
   -1.7001    2.9559   10.7243 C   0  0  0  0  0  0  0  0  0  0  0  0
   -2.9740    3.3855   10.4768 C   0  0  0  0  0  0  0  0  0  0  0  0
   -3.3491    3.3542    8.7772 S   0  0  0  0  0  0  0  0  0  0  0  0
   -2.1405    2.8435    5.9178 C   0  0  0  0  0  0  0  0  0  0  0  0
   -1.3667    2.9193    4.5894 C   0  0  0  0  0  0  0  0  0  0  0  0
   -0.5863    1.6260    4.3707 C   0  0  1  0  0  0  0  0  0  0  0  0
    0.0984    1.5608    2.9991 C   0  0  0  0  0  0  0  0  0  0  0  0
   -0.5947    1.5957    1.9858 O   0  0  0  0  0  0  0  0  0  0  0  0
    2.0652    3.3943    3.7680 H   0  0  0  0  0  0  0  0  0  0  0  0
    1.9751    3.3786    2.0125 H   0  0  0  0  0  0  0  0  0  0  0  0
    3.3900    2.7307    2.8245 H   0  0  0  0  0  0  0  0  0  0  0  0
    1.4320    0.0667    1.5244 H   0  0  0  0  0  0  0  0  0  0  0  0
    2.1956    0.6581    6.2914 H   0  0  0  0  0  0  0  0  0  0  0  0
    0.4745    1.3831    7.7240 H   0  0  0  0  0  0  0  0  0  0  0  0
    0.0049    2.1901    9.6045 H   0  0  0  0  0  0  0  0  0  0  0  0
   -1.2536    2.8851   11.7045 H   0  0  0  0  0  0  0  0  0  0  0  0
   -3.6887    3.6919   11.2278 H   0  0  0  0  0  0  0  0  0  0  0  0
   -2.9663    2.1462    5.8493 H   0  0  0  0  0  0  0  0  0  0  0  0
   -2.5288    3.8460    6.1110 H   0  0  0  0  0  0  0  0  0  0  0  0
   -2.0478    3.1211    3.7594 H   0  0  0  0  0  0  0  0  0  0  0  0
   -0.6768    3.7631    4.6177 H   0  0  0  0  0  0  0  0  0  0  0  0
   -1.3078    0.8117    4.3741 H   0  0  0  0  0  0  0  0  0  0  0  0
  1  2  1  0
  1 20  1  0
  1 21  1  0
  1 22  1  0
  2 18  1  0
  2  3  1  6
  2  4  1  0
  3 23  1  0
  4  5  2  0
  4  6  1  0
  6  7  2  0
  6 24  1  0
  7 17  1  0
  7  8  1  0
  8  9  2  0
  8 25  1  0
  9 10  1  0
  9 15  1  0
 10 14  1  0
 10 11  2  0
 11 12  1  0
 11 26  1  0
 12 13  2  0
 12 27  1  0
 13 14  1  0
 13 28  1  0
 15 16  1  0
 15 29  1  0
 15 30  1  0
 16 17  1  0
 16 31  1  0
 16 32  1  0
 17 18  1  0
 17 33  1  6
 18 19  2  0
M  END
>  <i_m_ct_stereo_status>  (18) 
1

>  <s_m_source_file>  (18) 
/var/tmp/pbs.5076255.sched01/tmp5t01l7na/0y8cq_bsf.sdf

>  <i_m_source_file_index>  (18) 
21

>  <i_lp_mmshare_version>  (18) 
48012

>  <i_f3d_flags>  (18) 
0

>  <s_epik_input>  (18) 
Tz1DKFtDSF09MSlbQ0BAXShbQ0gzXSkoW09IXSlDKD1PKVtDQEBIXShDMTIpW0NIMl1bQ0gyXUMoPVtDSF0yKWMzW2NIXVtjSF1bY0hdczM=

>  <s_epik_cmdline>  (18) 
J2VwaWtfcHl0aG9uJywgJy1waHQnLCAnMi4wJywgJy1waCcsICc3LjAnLCAnLXRuJywgJzgnLCAnLW1hJywgJzIwMCcsICctaW1hZScsICc8aW5maWxlLm1hZT4nLCAnLW9tYWUnLCAnPG91dGZpbGUubWFlPic=

>  <r_lp_tautomer_probability>  (18) 
1

>  <r_epik_Ionization_Penalty>  (18) 
4.18713e-06

>  <r_epik_Ionization_Penalty_Charging>  (18) 
0

>  <r_epik_Ionization_Penalty_Neutral>  (18) 
4.18713e-06

>  <r_epik_State_Penalty>  (18) 
-0

>  <r_epik_Charging_Adjusted_Penalty>  (18) 
0

>  <i_epik_Tot_Q>  (18) 
0

>  <i_epik_Tot_abs_Q>  (18) 
0

>  <s_lp_Force_Field>  (18) 
OPLS3e

>  <r_lp_Energy>  (18) 
25.4788

>  <b_lp_Chiralities_Consistent>  (18) 
1

>  <s_lp_Variant>  (18) 
4:0-1

>  <s_i_glide_gridfile>  (18) 
pfpi4k_grid

>  <i_i_glide_lignum>  (18) 
21

>  <i_i_glide_rotatable_bonds>  (18) 
2

>  <r_i_docking_score>  (18) 
-2.81708

>  <r_i_glide_ligand_efficiency>  (18) 
-0.148268

>  <r_i_glide_ligand_efficiency_sa>  (18) 
-0.395638

>  <r_i_glide_ligand_efficiency_ln>  (18) 
-0.714191

>  <r_i_glide_gscore>  (18) 
-2.81708

>  <r_i_glide_lipo>  (18) 
-0.0909524

>  <r_i_glide_hbond>  (18) 
0

>  <r_i_glide_metal>  (18) 
-0

>  <r_i_glide_rewards>  (18) 
-1.53862

>  <r_i_glide_evdw>  (18) 
-22.8985

>  <r_i_glide_ecoul>  (18) 
-1.56454

>  <r_i_glide_erotb>  (18) 
0.238573

>  <r_i_glide_esite>  (18) 
-0.0464775

>  <r_i_glide_emodel>  (18) 
-27.522

>  <r_i_glide_energy>  (18) 
-24.4631

>  <r_i_glide_einternal>  (18) 
1.97908

>  <r_i_glide_intrahb_reward>  (18) 
-0

>  <i_i_glide_confnum>  (18) 
1

>  <i_i_glide_posenum>  (18) 
36

>  <r_i_glide_eff_state_penalty>  (18) 
0

>  <ligand_id>  (18) 
4

>  <original_smiles>  (18) 
CC1(O)C(=O)C=C2C=C(c3cccs3)CCC2C1=O

>  <smiles>  (18) 
[H]OC1(C([H])([H])[H])C(=O)C([H])=C2C([H])=C(c3sc([H])c([H])c3[H])C([H])([H])C([H])([H])C2([H])C1=O

$$$$
4:0:1
     RDKit          3D

 33 35  0  0  1  0  0  0  0  0999 V2000
    1.9350    2.2581    2.5306 C   0  0  0  0  0  0  0  0  0  0  0  0
    1.3522    0.8753    2.8319 C   0  0  1  0  0  0  0  0  0  0  0  0
    1.5995    0.0565    1.7003 O   0  0  0  0  0  0  0  0  0  0  0  0
    2.0580    0.2697    4.0635 C   0  0  0  0  0  0  0  0  0  0  0  0
    3.0340   -0.4691    3.9241 O   0  0  0  0  0  0  0  0  0  0  0  0
    1.5962    0.6771    5.3958 C   0  0  0  0  0  0  0  0  0  0  0  0
    0.3533    1.1562    5.5966 C   0  0  0  0  0  0  0  0  0  0  0  0
    0.0034    1.6482    6.9216 C   0  0  0  0  0  0  0  0  0  0  0  0
   -1.1585    2.2963    7.1822 C   0  0  0  0  0  0  0  0  0  0  0  0
   -1.4839    2.7835    8.5002 C   0  0  0  0  0  0  0  0  0  0  0  0
   -0.5922    2.8631    9.5448 C   0  0  0  0  0  0  0  0  0  0  0  0
   -1.1872    3.3880   10.7279 C   0  0  0  0  0  0  0  0  0  0  0  0
   -2.5111    3.6933   10.5762 C   0  0  0  0  0  0  0  0  0  0  0  0
   -3.0774    3.3425    8.9661 S   0  0  0  0  0  0  0  0  0  0  0  0
   -2.1603    2.5424    6.0537 C   0  0  0  0  0  0  0  0  0  0  0  0
   -1.5428    2.4639    4.6441 C   0  0  0  0  0  0  0  0  0  0  0  0
   -0.7131    1.1820    4.5016 C   0  0  1  0  0  0  0  0  0  0  0  0
   -0.1670    0.9809    3.0724 C   0  0  0  0  0  0  0  0  0  0  0  0
   -0.9490    0.9407    2.1238 O   0  0  0  0  0  0  0  0  0  0  0  0
    1.7637    2.9451    3.3553 H   0  0  0  0  0  0  0  0  0  0  0  0
    1.4673    2.6866    1.6471 H   0  0  0  0  0  0  0  0  0  0  0  0
    3.0086    2.2099    2.3502 H   0  0  0  0  0  0  0  0  0  0  0  0
    1.0728    0.3417    0.9624 H   0  0  0  0  0  0  0  0  0  0  0  0
    2.3139    0.6287    6.2035 H   0  0  0  0  0  0  0  0  0  0  0  0
    0.7132    1.4677    7.7172 H   0  0  0  0  0  0  0  0  0  0  0  0
    0.4496    2.5855    9.5247 H   0  0  0  0  0  0  0  0  0  0  0  0
   -0.6335    3.5075   11.6494 H   0  0  0  0  0  0  0  0  0  0  0  0
   -3.1858    4.0714   11.3310 H   0  0  0  0  0  0  0  0  0  0  0  0
   -2.9580    1.8118    6.1786 H   0  0  0  0  0  0  0  0  0  0  0  0
   -2.6054    3.5321    6.1593 H   0  0  0  0  0  0  0  0  0  0  0  0
   -2.3254    2.5152    3.8843 H   0  0  0  0  0  0  0  0  0  0  0  0
   -0.9029    3.3331    4.4780 H   0  0  0  0  0  0  0  0  0  0  0  0
   -1.3754    0.3365    4.6892 H   0  0  0  0  0  0  0  0  0  0  0  0
  1  2  1  0
  1 20  1  0
  1 21  1  0
  1 22  1  0
  2 18  1  0
  2  3  1  6
  2  4  1  0
  3 23  1  0
  4  5  2  0
  4  6  1  0
  6  7  2  0
  6 24  1  0
  7 17  1  0
  7  8  1  0
  8  9  2  0
  8 25  1  0
  9 10  1  0
  9 15  1  0
 10 14  1  0
 10 11  2  0
 11 12  1  0
 11 26  1  0
 12 13  2  0
 12 27  1  0
 13 14  1  0
 13 28  1  0
 15 16  1  0
 15 29  1  0
 15 30  1  0
 16 17  1  0
 16 31  1  0
 16 32  1  0
 17 18  1  0
 17 33  1  1
 18 19  2  0
M  END
>  <i_m_ct_stereo_status>  (19) 
1

>  <s_m_source_file>  (19) 
/var/tmp/pbs.5076255.sched01/tmp5t01l7na/0y8cq_bsf.sdf

>  <i_m_source_file_index>  (19) 
21

>  <i_lp_mmshare_version>  (19) 
48012

>  <i_f3d_flags>  (19) 
0

>  <s_epik_input>  (19) 
Tz1DKFtDSF09MSlbQ0BAXShbQ0gzXSkoW09IXSlDKD1PKVtDQEBIXShDMTIpW0NIMl1bQ0gyXUMoPVtDSF0yKWMzW2NIXVtjSF1bY0hdczM=

>  <s_epik_cmdline>  (19) 
J2VwaWtfcHl0aG9uJywgJy1waHQnLCAnMi4wJywgJy1waCcsICc3LjAnLCAnLXRuJywgJzgnLCAnLW1hJywgJzIwMCcsICctaW1hZScsICc8aW5maWxlLm1hZT4nLCAnLW9tYWUnLCAnPG91dGZpbGUubWFlPic=

>  <r_lp_tautomer_probability>  (19) 
1

>  <r_epik_Ionization_Penalty>  (19) 
4.18713e-06

>  <r_epik_Ionization_Penalty_Charging>  (19) 
0

>  <r_epik_Ionization_Penalty_Neutral>  (19) 
4.18713e-06

>  <r_epik_State_Penalty>  (19) 
-0

>  <r_epik_Charging_Adjusted_Penalty>  (19) 
0

>  <i_epik_Tot_Q>  (19) 
0

>  <i_epik_Tot_abs_Q>  (19) 
0

>  <s_lp_Force_Field>  (19) 
OPLS3e

>  <r_lp_Energy>  (19) 
25.4788

>  <b_lp_Chiralities_Consistent>  (19) 
1

>  <s_lp_Variant>  (19) 
4:0-1

>  <s_i_glide_gridfile>  (19) 
pfpi4k_grid

>  <i_i_glide_lignum>  (19) 
21

>  <i_i_glide_rotatable_bonds>  (19) 
2

>  <r_i_docking_score>  (19) 
-2.6243

>  <r_i_glide_ligand_efficiency>  (19) 
-0.138121

>  <r_i_glide_ligand_efficiency_sa>  (19) 
-0.368563

>  <r_i_glide_ligand_efficiency_ln>  (19) 
-0.665317

>  <r_i_glide_gscore>  (19) 
-2.6243

>  <r_i_glide_lipo>  (19) 
-0.0720473

>  <r_i_glide_hbond>  (19) 
0

>  <r_i_glide_metal>  (19) 
-0

>  <r_i_glide_rewards>  (19) 
-1.53862

>  <r_i_glide_evdw>  (19) 
-22.4644

>  <r_i_glide_ecoul>  (19) 
-0.599499

>  <r_i_glide_erotb>  (19) 
0.238573

>  <r_i_glide_esite>  (19) 
-0.0390669

>  <r_i_glide_emodel>  (19) 
-26.6457

>  <r_i_glide_energy>  (19) 
-23.0639

>  <r_i_glide_einternal>  (19) 
0.243095

>  <r_i_glide_intrahb_reward>  (19) 
-0

>  <i_i_glide_confnum>  (19) 
3

>  <i_i_glide_posenum>  (19) 
10

>  <r_i_glide_eff_state_penalty>  (19) 
0

>  <ligand_id>  (19) 
4

>  <original_smiles>  (19) 
CC1(O)C(=O)C=C2C=C(c3cccs3)CCC2C1=O

>  <smiles>  (19) 
[H]OC1(C([H])([H])[H])C(=O)C([H])=C2C([H])=C(c3sc([H])c([H])c3[H])C([H])([H])C([H])([H])C2([H])C1=O

$$$$
4:0:2
     RDKit          3D

 33 35  0  0  1  0  0  0  0  0999 V2000
    1.9621    2.1645    2.5079 C   0  0  0  0  0  0  0  0  0  0  0  0
    1.3224    0.8186    2.8604 C   0  0  1  0  0  0  0  0  0  0  0  0
    1.5555   -0.0573    1.7690 O   0  0  0  0  0  0  0  0  0  0  0  0
    1.9859    0.2324    4.1246 C   0  0  0  0  0  0  0  0  0  0  0  0
    2.9322   -0.5502    4.0308 O   0  0  0  0  0  0  0  0  0  0  0  0
    1.5238    0.7114    5.4335 C   0  0  0  0  0  0  0  0  0  0  0  0
    0.3029    1.2591    5.5940 C   0  0  0  0  0  0  0  0  0  0  0  0
   -0.0459    1.8201    6.8905 C   0  0  0  0  0  0  0  0  0  0  0  0
   -1.1631    2.5551    7.1037 C   0  0  0  0  0  0  0  0  0  0  0  0
   -1.4582    3.0014    8.4400 C   0  0  0  0  0  0  0  0  0  0  0  0
   -2.1166    4.1727    8.7137 C   0  0  0  0  0  0  0  0  0  0  0  0
   -2.2216    4.4251   10.1113 C   0  0  0  0  0  0  0  0  0  0  0  0
   -1.6517    3.4405   10.8783 C   0  0  0  0  0  0  0  0  0  0  0  0
   -0.9463    2.1859    9.8962 S   0  0  0  0  0  0  0  0  0  0  0  0
   -2.1613    2.7749    5.9659 C   0  0  0  0  0  0  0  0  0  0  0  0
   -1.5327    2.5974    4.5649 C   0  0  0  0  0  0  0  0  0  0  0  0
   -0.7522    1.2774    4.4876 C   0  0  1  0  0  0  0  0  0  0  0  0
   -0.1933    0.9941    3.0772 C   0  0  0  0  0  0  0  0  0  0  0  0
   -0.9636    0.9478    2.1169 O   0  0  0  0  0  0  0  0  0  0  0  0
    1.8128    2.8921    3.3024 H   0  0  0  0  0  0  0  0  0  0  0  0
    1.5219    2.5712    1.6002 H   0  0  0  0  0  0  0  0  0  0  0  0
    3.0330    2.0652    2.3413 H   0  0  0  0  0  0  0  0  0  0  0  0
    1.0698    0.2272    1.0026 H   0  0  0  0  0  0  0  0  0  0  0  0
    2.2283    0.6690    6.2559 H   0  0  0  0  0  0  0  0  0  0  0  0
    0.6292    1.6403    7.7143 H   0  0  0  0  0  0  0  0  0  0  0  0
   -2.5102    4.8664    7.9879 H   0  0  0  0  0  0  0  0  0  0  0  0
   -2.7082    5.3085   10.4984 H   0  0  0  0  0  0  0  0  0  0  0  0
   -1.6210    3.3727   11.9602 H   0  0  0  0  0  0  0  0  0  0  0  0
   -2.9800    2.0750    6.1186 H   0  0  0  0  0  0  0  0  0  0  0  0
   -2.5920    3.7743    6.0121 H   0  0  0  0  0  0  0  0  0  0  0  0
   -2.2957    2.6490    3.7874 H   0  0  0  0  0  0  0  0  0  0  0  0
   -0.8489    3.4259    4.3712 H   0  0  0  0  0  0  0  0  0  0  0  0
   -1.4486    0.4650    4.7012 H   0  0  0  0  0  0  0  0  0  0  0  0
  1  2  1  0
  1 20  1  0
  1 21  1  0
  1 22  1  0
  2 18  1  0
  2  3  1  6
  2  4  1  0
  3 23  1  0
  4  5  2  0
  4  6  1  0
  6  7  2  0
  6 24  1  0
  7 17  1  0
  7  8  1  0
  8  9  2  0
  8 25  1  0
  9 10  1  0
  9 15  1  0
 10 14  1  0
 10 11  2  0
 11 12  1  0
 11 26  1  0
 12 13  2  0
 12 27  1  0
 13 14  1  0
 13 28  1  0
 15 16  1  0
 15 29  1  0
 15 30  1  0
 16 17  1  0
 16 31  1  0
 16 32  1  0
 17 18  1  0
 17 33  1  1
 18 19  2  0
M  END
>  <i_m_ct_stereo_status>  (20) 
1

>  <s_m_source_file>  (20) 
/var/tmp/pbs.5076255.sched01/tmp5t01l7na/0y8cq_bsf.sdf

>  <i_m_source_file_index>  (20) 
21

>  <i_lp_mmshare_version>  (20) 
48012

>  <i_f3d_flags>  (20) 
0

>  <s_epik_input>  (20) 
Tz1DKFtDSF09MSlbQ0BAXShbQ0gzXSkoW09IXSlDKD1PKVtDQEBIXShDMTIpW0NIMl1bQ0gyXUMoPVtDSF0yKWMzW2NIXVtjSF1bY0hdczM=

>  <s_epik_cmdline>  (20) 
J2VwaWtfcHl0aG9uJywgJy1waHQnLCAnMi4wJywgJy1waCcsICc3LjAnLCAnLXRuJywgJzgnLCAnLW1hJywgJzIwMCcsICctaW1hZScsICc8aW5maWxlLm1hZT4nLCAnLW9tYWUnLCAnPG91dGZpbGUubWFlPic=

>  <r_lp_tautomer_probability>  (20) 
1

>  <r_epik_Ionization_Penalty>  (20) 
4.18713e-06

>  <r_epik_Ionization_Penalty_Charging>  (20) 
0

>  <r_epik_Ionization_Penalty_Neutral>  (20) 
4.18713e-06

>  <r_epik_State_Penalty>  (20) 
-0

>  <r_epik_Charging_Adjusted_Penalty>  (20) 
0

>  <i_epik_Tot_Q>  (20) 
0

>  <i_epik_Tot_abs_Q>  (20) 
0

>  <s_lp_Force_Field>  (20) 
OPLS3e

>  <r_lp_Energy>  (20) 
25.4788

>  <b_lp_Chiralities_Consistent>  (20) 
1

>  <s_lp_Variant>  (20) 
4:0-1

>  <s_i_glide_gridfile>  (20) 
pfpi4k_grid

>  <i_i_glide_lignum>  (20) 
21

>  <i_i_glide_rotatable_bonds>  (20) 
2

>  <r_i_docking_score>  (20) 
-2.60832

>  <r_i_glide_ligand_efficiency>  (20) 
-0.13728

>  <r_i_glide_ligand_efficiency_sa>  (20) 
-0.366319

>  <r_i_glide_ligand_efficiency_ln>  (20) 
-0.661266

>  <r_i_glide_gscore>  (20) 
-2.60832

>  <r_i_glide_lipo>  (20) 
-0.0761358

>  <r_i_glide_hbond>  (20) 
0

>  <r_i_glide_metal>  (20) 
-0

>  <r_i_glide_rewards>  (20) 
-1.53862

>  <r_i_glide_evdw>  (20) 
-21.1579

>  <r_i_glide_ecoul>  (20) 
-0.900248

>  <r_i_glide_erotb>  (20) 
0.238573

>  <r_i_glide_esite>  (20) 
-0.0392083

>  <r_i_glide_emodel>  (20) 
-25.2506

>  <r_i_glide_energy>  (20) 
-22.0582

>  <r_i_glide_einternal>  (20) 
1.00759

>  <r_i_glide_intrahb_reward>  (20) 
-0

>  <i_i_glide_confnum>  (20) 
2

>  <i_i_glide_posenum>  (20) 
26

>  <r_i_glide_eff_state_penalty>  (20) 
0

>  <ligand_id>  (20) 
4

>  <original_smiles>  (20) 
CC1(O)C(=O)C=C2C=C(c3cccs3)CCC2C1=O

>  <smiles>  (20) 
[H]OC1(C([H])([H])[H])C(=O)C([H])=C2C([H])=C(c3sc([H])c([H])c3[H])C([H])([H])C([H])([H])C2([H])C1=O

$$$$
6:0:0
     RDKit          3D

 58 63  0  0  1  0  0  0  0  0999 V2000
    5.6309   -1.2536    0.5377 C   0  0  0  0  0  0  0  0  0  0  0  0
    4.7410   -0.5245    1.5558 C   0  0  2  0  0  0  0  0  0  0  0  0
    5.2666   -0.6607    2.9898 C   0  0  0  0  0  0  0  0  0  0  0  0
    4.4137    0.1843    3.9478 C   0  0  0  0  0  0  0  0  0  0  0  0
    2.9198   -0.2444    3.9615 C   0  0  2  0  0  0  0  0  0  0  0  0
    2.3922   -0.3599    2.5449 C   0  0  1  0  0  0  0  0  0  0  0  0
    3.2874   -1.0186    1.5029 C   0  0  0  0  0  0  0  0  0  0  0  0
    1.0058   -0.6935    2.3884 O   0  0  0  0  0  0  0  0  0  0  0  0
    1.3766    0.6887    2.3052 C   0  0  1  0  0  0  0  0  0  0  0  0
    1.1739    1.5468    3.5465 C   0  0  1  0  0  0  0  0  0  0  0  0
    1.8436    2.9027    3.2244 C   0  0  0  0  0  0  0  0  0  0  0  0
   -0.3573    1.6861    3.8043 C   0  0  2  0  0  0  0  0  0  0  0  0
   -1.1151    3.0397    3.8338 C   0  0  1  0  0  0  0  0  0  0  0  0
   -2.4810    3.1143    3.1617 C   0  0  0  0  0  0  0  0  0  0  0  0
   -1.1049    2.9479    5.3569 C   0  0  0  0  0  0  0  0  0  0  0  0
   -0.9213    1.4404    5.2131 C   0  0  2  0  0  0  0  0  0  0  0  0
   -0.0184    0.9369    6.1786 O   0  0  0  0  0  0  0  0  0  0  0  0
    0.9241    0.0022    5.6701 C   0  0  1  0  0  0  0  0  0  0  0  0
    0.2083   -1.2761    5.1849 C   0  0  2  0  0  0  0  0  0  0  0  0
   -0.8463   -1.6311    6.1333 O   0  0  0  0  0  0  0  0  0  0  0  0
   -0.1889   -2.7512    6.4931 C   0  0  0  0  0  0  0  0  0  0  0  0
   -0.4660   -3.5251    7.4126 O   0  0  0  0  0  0  0  0  0  0  0  0
    0.9037   -2.6092    5.4405 C   0  0  1  0  0  0  0  0  0  0  0  0
    0.8625   -3.6785    4.3720 C   0  0  0  0  0  0  0  0  0  0  0  0
    1.9288    0.7514    4.7018 C   0  0  1  0  0  0  0  0  0  0  0  0
    2.6756    1.7087    5.6830 C   0  0  0  0  0  0  0  0  0  0  0  0
    5.6622   -2.3266    0.7324 H   0  0  0  0  0  0  0  0  0  0  0  0
    6.6549   -0.8775    0.5689 H   0  0  0  0  0  0  0  0  0  0  0  0
    5.2576   -1.1121   -0.4776 H   0  0  0  0  0  0  0  0  0  0  0  0
    4.7438    0.5318    1.2815 H   0  0  0  0  0  0  0  0  0  0  0  0
    5.2402   -1.7070    3.2971 H   0  0  0  0  0  0  0  0  0  0  0  0
    6.3111   -0.3485    3.0409 H   0  0  0  0  0  0  0  0  0  0  0  0
    4.8338    0.1075    4.9491 H   0  0  0  0  0  0  0  0  0  0  0  0
    4.5122    1.2290    3.6576 H   0  0  0  0  0  0  0  0  0  0  0  0
    2.8918   -1.2325    4.4133 H   0  0  0  0  0  0  0  0  0  0  0  0
    2.8709   -0.8225    0.5169 H   0  0  0  0  0  0  0  0  0  0  0  0
    3.2540   -2.0983    1.6566 H   0  0  0  0  0  0  0  0  0  0  0  0
    1.2662    1.1356    1.3212 H   0  0  0  0  0  0  0  0  0  0  0  0
    1.7309    3.6224    4.0332 H   0  0  0  0  0  0  0  0  0  0  0  0
    1.4158    3.3511    2.3322 H   0  0  0  0  0  0  0  0  0  0  0  0
    2.9045    2.7958    3.0130 H   0  0  0  0  0  0  0  0  0  0  0  0
   -0.9042    1.0370    3.1259 H   0  0  0  0  0  0  0  0  0  0  0  0
   -0.4991    3.8716    3.5122 H   0  0  0  0  0  0  0  0  0  0  0  0
   -3.1419    2.3124    3.4942 H   0  0  0  0  0  0  0  0  0  0  0  0
   -2.3863    3.0297    2.0848 H   0  0  0  0  0  0  0  0  0  0  0  0
   -2.9788    4.0629    3.3668 H   0  0  0  0  0  0  0  0  0  0  0  0
   -0.2329    3.4408    5.7981 H   0  0  0  0  0  0  0  0  0  0  0  0
   -2.0419    3.2390    5.8344 H   0  0  0  0  0  0  0  0  0  0  0  0
   -1.8749    0.9053    5.1749 H   0  0  0  0  0  0  0  0  0  0  0  0
    1.4916   -0.2823    6.5585 H   0  0  0  0  0  0  0  0  0  0  0  0
   -0.2421   -1.2213    4.1962 H   0  0  0  0  0  0  0  0  0  0  0  0
    1.8835   -2.4906    5.9018 H   0  0  0  0  0  0  0  0  0  0  0  0
    1.0559   -4.6705    4.7794 H   0  0  0  0  0  0  0  0  0  0  0  0
    1.6013   -3.4734    3.5978 H   0  0  0  0  0  0  0  0  0  0  0  0
   -0.1102   -3.6951    3.8932 H   0  0  0  0  0  0  0  0  0  0  0  0
    1.9830    2.4039    6.1610 H   0  0  0  0  0  0  0  0  0  0  0  0
    3.4428    2.3202    5.2130 H   0  0  0  0  0  0  0  0  0  0  0  0
    3.1650    1.1509    6.4833 H   0  0  0  0  0  0  0  0  0  0  0  0
  1  2  1  0
  1 27  1  0
  1 28  1  0
  1 29  1  0
  2  7  1  0
  2  3  1  0
  2 30  1  6
  3  4  1  0
  3 31  1  0
  3 32  1  0
  4  5  1  0
  4 33  1  0
  4 34  1  0
  5 25  1  0
  5  6  1  0
  5 35  1  1
  6  9  1  0
  6  7  1  0
  6  8  1  1
  7 36  1  0
  7 37  1  0
  8  9  1  0
  9 10  1  0
  9 38  1  6
 10 25  1  0
 10 11  1  6
 10 12  1  0
 11 39  1  0
 11 40  1  0
 11 41  1  0
 12 16  1  0
 12 13  1  0
 12 42  1  6
 13 14  1  0
 13 15  1  0
 13 43  1  1
 14 44  1  0
 14 45  1  0
 14 46  1  0
 15 16  1  0
 15 47  1  0
 15 48  1  0
 16 17  1  0
 16 49  1  6
 17 18  1  0
 18 19  1  0
 18 25  1  0
 18 50  1  1
 19 23  1  0
 19 20  1  0
 19 51  1  6
 20 21  1  0
 21 22  2  0
 21 23  1  0
 23 24  1  0
 23 52  1  1
 24 53  1  0
 24 54  1  0
 24 55  1  0
 25 26  1  1
 26 56  1  0
 26 57  1  0
 26 58  1  0
M  END
>  <i_m_ct_stereo_status>  (21) 
1

>  <s_m_source_file>  (21) 
/var/tmp/pbs.5076255.sched01/tmp5t01l7na/0y8cq_bsf.sdf

>  <i_m_source_file_index>  (21) 
23

>  <i_lp_mmshare_version>  (21) 
48012

>  <i_f3d_flags>  (21) 
0

>  <s_epik_input>  (21) 
W0NIM11bQ0BASF0oW0NIMl0xKVtDSDJdW0NIMl1bQ0BIXShbQ0BAXTEyMylbQ0BAXTQoW0NIM10pW0NAXShbQ0BASF0zTzIpKFtDSDNdKVtDQEhdNVtDQEhdKFtDSDJdW0NAQEhdNVtDSDNdKU9bQ0BIXTRbQ0BASF02T0MoPU8pW0NASF02W0NIM10=

>  <s_epik_cmdline>  (21) 
J2VwaWtfcHl0aG9uJywgJy1waHQnLCAnMi4wJywgJy1waCcsICc3LjAnLCAnLXRuJywgJzgnLCAnLW1hJywgJzIwMCcsICctaW1hZScsICc8aW5maWxlLm1hZT4nLCAnLW9tYWUnLCAnPG91dGZpbGUubWFlPic=

>  <r_lp_tautomer_probability>  (21) 
1

>  <r_epik_Ionization_Penalty>  (21) 
3.78834e-11

>  <r_epik_Ionization_Penalty_Charging>  (21) 
0

>  <r_epik_Ionization_Penalty_Neutral>  (21) 
3.78834e-11

>  <r_epik_State_Penalty>  (21) 
-0

>  <r_epik_Charging_Adjusted_Penalty>  (21) 
0

>  <i_epik_Tot_Q>  (21) 
0

>  <i_epik_Tot_abs_Q>  (21) 
0

>  <s_epik_Chemistry_Notes>  (21) 
This compound has an ester and may undergo hydrolysis at high or low pH.

>  <s_lp_Force_Field>  (21) 
OPLS3e

>  <r_lp_Energy>  (21) 
69.3451

>  <b_lp_Chiralities_Consistent>  (21) 
1

>  <s_lp_Variant>  (21) 
6:0-1

>  <s_i_glide_gridfile>  (21) 
pfpi4k_grid

>  <i_i_glide_lignum>  (21) 
23

>  <i_i_glide_rotatable_bonds>  (21) 
1

>  <r_i_docking_score>  (21) 
-2.66914

>  <r_i_glide_ligand_efficiency>  (21) 
-0.102659

>  <r_i_glide_ligand_efficiency_sa>  (21) 
-0.304128

>  <r_i_glide_ligand_efficiency_ln>  (21) 
-0.62684

>  <r_i_glide_gscore>  (21) 
-2.66914

>  <r_i_glide_lipo>  (21) 
-0.402494

>  <r_i_glide_hbond>  (21) 
0

>  <r_i_glide_metal>  (21) 
-0

>  <r_i_glide_rewards>  (21) 
-0.951224

>  <r_i_glide_evdw>  (21) 
-19.3163

>  <r_i_glide_ecoul>  (21) 
-3.12108

>  <r_i_glide_erotb>  (21) 
0.147591

>  <r_i_glide_esite>  (21) 
-0.0290396

>  <r_i_glide_emodel>  (21) 
-25.769

>  <r_i_glide_energy>  (21) 
-22.4374

>  <r_i_glide_einternal>  (21) 
1.0772

>  <r_i_glide_intrahb_reward>  (21) 
-0

>  <i_i_glide_confnum>  (21) 
4

>  <i_i_glide_posenum>  (21) 
1

>  <r_i_glide_eff_state_penalty>  (21) 
0

>  <ligand_id>  (21) 
6

>  <original_smiles>  (21) 
CC1CCC2C3(C1)OC3C1(C)C3C(C)CC3OC(C3OC(=O)C3C)C21C

>  <smiles>  (21) 
[H]C([H])([H])C1([H])C(=O)OC1([H])C1([H])OC2([H])C([H])([H])C([H])(C([H])([H])[H])C2([H])C2(C([H])([H])[H])C3([H])OC34C([H])([H])C([H])(C([H])([H])[H])C([H])([H])C([H])([H])C4([H])C12C([H])([H])[H]

$$$$
6:0:1
     RDKit          3D

 58 63  0  0  1  0  0  0  0  0999 V2000
    1.6989   -5.0960    4.4542 C   0  0  0  0  0  0  0  0  0  0  0  0
    1.6290   -3.5603    4.4843 C   0  0  2  0  0  0  0  0  0  0  0  0
    2.8682   -2.9368    5.1348 C   0  0  0  0  0  0  0  0  0  0  0  0
    2.7923   -1.4047    5.0268 C   0  0  0  0  0  0  0  0  0  0  0  0
    1.5482   -0.7932    5.7471 C   0  0  2  0  0  0  0  0  0  0  0  0
    0.2990   -1.5474    5.3342 C   0  0  1  0  0  0  0  0  0  0  0  0
    0.3709   -3.0586    5.2186 C   0  0  0  0  0  0  0  0  0  0  0  0
   -0.9543   -1.0727    5.8495 O   0  0  0  0  0  0  0  0  0  0  0  0
   -0.5727   -0.6437    4.5303 C   0  0  1  0  0  0  0  0  0  0  0  0
    0.0538    0.7368    4.3860 C   0  0  1  0  0  0  0  0  0  0  0  0
    0.5343    0.8328    2.9111 C   0  0  0  0  0  0  0  0  0  0  0  0
   -1.0089    1.8404    4.6955 C   0  0  2  0  0  0  0  0  0  0  0  0
   -1.4829    2.9168    3.6956 C   0  0  1  0  0  0  0  0  0  0  0  0
   -2.9826    3.2083    3.6767 C   0  0  0  0  0  0  0  0  0  0  0  0
   -0.5773    3.9185    4.4195 C   0  0  0  0  0  0  0  0  0  0  0  0
   -0.6655    3.0144    5.6326 C   0  0  2  0  0  0  0  0  0  0  0  0
    0.5670    2.8885    6.3334 O   0  0  0  0  0  0  0  0  0  0  0  0
    0.8676    1.5422    6.7265 C   0  0  1  0  0  0  0  0  0  0  0  0
   -0.1358    1.0063    7.7997 C   0  0  2  0  0  0  0  0  0  0  0  0
   -1.5493    0.9667    7.4662 O   0  0  0  0  0  0  0  0  0  0  0  0
   -1.8015    2.0072    8.2801 C   0  0  0  0  0  0  0  0  0  0  0  0
   -2.8403    2.7151    8.4223 O   0  0  0  0  0  0  0  0  0  0  0  0
   -0.4301    1.9909    8.9563 C   0  0  1  0  0  0  0  0  0  0  0  0
   -0.5125    1.4601   10.3744 C   0  0  0  0  0  0  0  0  0  0  0  0
    1.2504    0.7273    5.4331 C   0  0  1  0  0  0  0  0  0  0  0  0
    2.5165    1.4637    4.8895 C   0  0  0  0  0  0  0  0  0  0  0  0
    1.7423   -5.5130    5.4603 H   0  0  0  0  0  0  0  0  0  0  0  0
    2.5815   -5.4385    3.9125 H   0  0  0  0  0  0  0  0  0  0  0  0
    0.8249   -5.5188    3.9566 H   0  0  0  0  0  0  0  0  0  0  0  0
    1.5799   -3.2212    3.4485 H   0  0  0  0  0  0  0  0  0  0  0  0
    2.9297   -3.2290    6.1835 H   0  0  0  0  0  0  0  0  0  0  0  0
    3.7757   -3.3055    4.6535 H   0  0  0  0  0  0  0  0  0  0  0  0
    3.7079   -0.9860    5.4419 H   0  0  0  0  0  0  0  0  0  0  0  0
    2.7947   -1.1549    3.9646 H   0  0  0  0  0  0  0  0  0  0  0  0
    1.6943   -0.9502    6.8180 H   0  0  0  0  0  0  0  0  0  0  0  0
   -0.5145   -3.4140    4.6935 H   0  0  0  0  0  0  0  0  0  0  0  0
    0.3422   -3.4788    6.2253 H   0  0  0  0  0  0  0  0  0  0  0  0
   -1.1814   -1.0364    3.7260 H   0  0  0  0  0  0  0  0  0  0  0  0
    0.9770    1.8043    2.6957 H   0  0  0  0  0  0  0  0  0  0  0  0
   -0.2969    0.7010    2.2194 H   0  0  0  0  0  0  0  0  0  0  0  0
    1.2666    0.0645    2.6701 H   0  0  0  0  0  0  0  0  0  0  0  0
   -1.9006    1.3538    5.0833 H   0  0  0  0  0  0  0  0  0  0  0  0
   -1.1189    2.7724    2.6845 H   0  0  0  0  0  0  0  0  0  0  0  0
   -3.3930    3.3382    4.6862 H   0  0  0  0  0  0  0  0  0  0  0  0
   -3.5559    2.3955    3.2333 H   0  0  0  0  0  0  0  0  0  0  0  0
   -3.2019    4.1019    3.0893 H   0  0  0  0  0  0  0  0  0  0  0  0
    0.4347    4.0063    4.0070 H   0  0  0  0  0  0  0  0  0  0  0  0
   -1.0447    4.8750    4.6477 H   0  0  0  0  0  0  0  0  0  0  0  0
   -1.4936    3.3475    6.2205 H   0  0  0  0  0  0  0  0  0  0  0  0
    1.8030    1.6262    7.2693 H   0  0  0  0  0  0  0  0  0  0  0  0
    0.1713    0.0400    8.2094 H   0  0  0  0  0  0  0  0  0  0  0  0
    0.0873    2.9320    8.8565 H   0  0  0  0  0  0  0  0  0  0  0  0
   -1.1078    2.1239   11.0027 H   0  0  0  0  0  0  0  0  0  0  0  0
    0.4853    1.3737   10.8193 H   0  0  0  0  0  0  0  0  0  0  0  0
   -0.9761    0.4723   10.4221 H   0  0  0  0  0  0  0  0  0  0  0  0
    2.2983    2.5063    4.6572 H   0  0  0  0  0  0  0  0  0  0  0  0
    2.9343    1.0450    3.9755 H   0  0  0  0  0  0  0  0  0  0  0  0
    3.3183    1.4727    5.6246 H   0  0  0  0  0  0  0  0  0  0  0  0
  1  2  1  0
  1 27  1  0
  1 28  1  0
  1 29  1  0
  2  7  1  0
  2  3  1  0
  2 30  1  6
  3  4  1  0
  3 31  1  0
  3 32  1  0
  4  5  1  0
  4 33  1  0
  4 34  1  0
  5 25  1  0
  5  6  1  0
  5 35  1  1
  6  9  1  0
  6  7  1  0
  6  8  1  1
  7 36  1  0
  7 37  1  0
  8  9  1  0
  9 10  1  0
  9 38  1  6
 10 25  1  0
 10 11  1  6
 10 12  1  0
 11 39  1  0
 11 40  1  0
 11 41  1  0
 12 16  1  0
 12 13  1  0
 12 42  1  1
 13 14  1  0
 13 15  1  0
 13 43  1  6
 14 44  1  0
 14 45  1  0
 14 46  1  0
 15 16  1  0
 15 47  1  0
 15 48  1  0
 16 17  1  0
 16 49  1  1
 17 18  1  0
 18 19  1  0
 18 25  1  0
 18 50  1  1
 19 23  1  0
 19 20  1  0
 19 51  1  1
 20 21  1  0
 21 22  2  0
 21 23  1  0
 23 24  1  0
 23 52  1  1
 24 53  1  0
 24 54  1  0
 24 55  1  0
 25 26  1  6
 26 56  1  0
 26 57  1  0
 26 58  1  0
M  END
>  <i_m_ct_stereo_status>  (22) 
1

>  <s_m_source_file>  (22) 
/var/tmp/pbs.5076255.sched01/tmp5t01l7na/0y8cq_bsf.sdf

>  <i_m_source_file_index>  (22) 
23

>  <i_lp_mmshare_version>  (22) 
48012

>  <i_f3d_flags>  (22) 
0

>  <s_epik_input>  (22) 
W0NIM11bQ0BASF0oW0NIMl0xKVtDSDJdW0NIMl1bQ0BIXShbQ0BAXTEyMylbQ0BAXTQoW0NIM10pW0NAXShbQ0BASF0zTzIpKFtDSDNdKVtDQEhdNVtDQEhdKFtDSDJdW0NAQEhdNVtDSDNdKU9bQ0BIXTRbQ0BASF02T0MoPU8pW0NASF02W0NIM10=

>  <s_epik_cmdline>  (22) 
J2VwaWtfcHl0aG9uJywgJy1waHQnLCAnMi4wJywgJy1waCcsICc3LjAnLCAnLXRuJywgJzgnLCAnLW1hJywgJzIwMCcsICctaW1hZScsICc8aW5maWxlLm1hZT4nLCAnLW9tYWUnLCAnPG91dGZpbGUubWFlPic=

>  <r_lp_tautomer_probability>  (22) 
1

>  <r_epik_Ionization_Penalty>  (22) 
3.78834e-11

>  <r_epik_Ionization_Penalty_Charging>  (22) 
0

>  <r_epik_Ionization_Penalty_Neutral>  (22) 
3.78834e-11

>  <r_epik_State_Penalty>  (22) 
-0

>  <r_epik_Charging_Adjusted_Penalty>  (22) 
0

>  <i_epik_Tot_Q>  (22) 
0

>  <i_epik_Tot_abs_Q>  (22) 
0

>  <s_epik_Chemistry_Notes>  (22) 
This compound has an ester and may undergo hydrolysis at high or low pH.

>  <s_lp_Force_Field>  (22) 
OPLS3e

>  <r_lp_Energy>  (22) 
69.3451

>  <b_lp_Chiralities_Consistent>  (22) 
1

>  <s_lp_Variant>  (22) 
6:0-1

>  <s_i_glide_gridfile>  (22) 
pfpi4k_grid

>  <i_i_glide_lignum>  (22) 
23

>  <i_i_glide_rotatable_bonds>  (22) 
1

>  <r_i_docking_score>  (22) 
-2.35707

>  <r_i_glide_ligand_efficiency>  (22) 
-0.0906565

>  <r_i_glide_ligand_efficiency_sa>  (22) 
-0.268569

>  <r_i_glide_ligand_efficiency_ln>  (22) 
-0.55355

>  <r_i_glide_gscore>  (22) 
-2.35707

>  <r_i_glide_lipo>  (22) 
-0.00931021

>  <r_i_glide_hbond>  (22) 
-0.147878

>  <r_i_glide_metal>  (22) 
-0

>  <r_i_glide_rewards>  (22) 
-0.951224

>  <r_i_glide_evdw>  (22) 
-15.9003

>  <r_i_glide_ecoul>  (22) 
-3.73878

>  <r_i_glide_erotb>  (22) 
0.147591

>  <r_i_glide_esite>  (22) 
-0.0404133

>  <r_i_glide_emodel>  (22) 
-20.0465

>  <r_i_glide_energy>  (22) 
-19.6391

>  <r_i_glide_einternal>  (22) 
3.57515

>  <r_i_glide_intrahb_reward>  (22) 
-0

>  <i_i_glide_confnum>  (22) 
5

>  <i_i_glide_posenum>  (22) 
4

>  <r_i_glide_eff_state_penalty>  (22) 
0

>  <ligand_id>  (22) 
6

>  <original_smiles>  (22) 
CC1CCC2C3(C1)OC3C1(C)C3C(C)CC3OC(C3OC(=O)C3C)C21C

>  <smiles>  (22) 
[H]C([H])([H])C1([H])C(=O)OC1([H])C1([H])OC2([H])C([H])([H])C([H])(C([H])([H])[H])C2([H])C2(C([H])([H])[H])C3([H])OC34C([H])([H])C([H])(C([H])([H])[H])C([H])([H])C([H])([H])C4([H])C12C([H])([H])[H]

$$$$
6:0:2
     RDKit          3D

 58 63  0  0  1  0  0  0  0  0999 V2000
   -1.2355   -9.3074    2.4849 C   0  0  0  0  0  0  0  0  0  0  0  0
   -0.1833   -8.5751    3.3321 C   0  0  2  0  0  0  0  0  0  0  0  0
    0.0330   -9.2324    4.6980 C   0  0  0  0  0  0  0  0  0  0  0  0
    1.1863   -8.5420    5.4360 C   0  0  0  0  0  0  0  0  0  0  0  0
    0.8972   -7.0429    5.6975 C   0  0  2  0  0  0  0  0  0  0  0  0
    0.4458   -6.3565    4.4277 C   0  0  1  0  0  0  0  0  0  0  0  0
   -0.5484   -7.1015    3.5410 C   0  0  0  0  0  0  0  0  0  0  0  0
    0.2098   -4.9393    4.4889 O   0  0  0  0  0  0  0  0  0  0  0  0
    1.4750   -5.3877    3.9978 C   0  0  1  0  0  0  0  0  0  0  0  0
    2.6415   -5.3564    4.9620 C   0  0  1  0  0  0  0  0  0  0  0  0
    3.8013   -6.0525    4.2189 C   0  0  0  0  0  0  0  0  0  0  0  0
    2.9610   -3.8696    5.2953 C   0  0  2  0  0  0  0  0  0  0  0  0
    4.3239   -3.1876    5.0053 C   0  0  1  0  0  0  0  0  0  0  0  0
    4.3245   -1.7726    4.4442 C   0  0  0  0  0  0  0  0  0  0  0  0
    4.6482   -3.3508    6.4938 C   0  0  0  0  0  0  0  0  0  0  0  0
    3.1482   -3.4414    6.7620 C   0  0  2  0  0  0  0  0  0  0  0  0
    2.8513   -4.4126    7.7441 O   0  0  0  0  0  0  0  0  0  0  0  0
    1.7421   -5.2484    7.4449 C   0  0  1  0  0  0  0  0  0  0  0  0
    0.4413   -4.4151    7.3848 C   0  0  2  0  0  0  0  0  0  0  0  0
    0.3634   -3.5668    8.5685 O   0  0  0  0  0  0  0  0  0  0  0  0
   -0.7125   -4.2396    9.0323 C   0  0  0  0  0  0  0  0  0  0  0  0
   -1.2896   -4.1105   10.0951 O   0  0  0  0  0  0  0  0  0  0  0  0
   -0.8609   -5.0941    7.7774 C   0  0  1  0  0  0  0  0  0  0  0  0
   -2.1220   -4.8136    6.9876 C   0  0  0  0  0  0  0  0  0  0  0  0
    2.1258   -6.1836    6.2234 C   0  0  1  0  0  0  0  0  0  0  0  0
    3.2482   -7.0764    6.8378 C   0  0  0  0  0  0  0  0  0  0  0  0
   -2.2096   -9.3200    2.9764 H   0  0  0  0  0  0  0  0  0  0  0  0
   -0.9347  -10.3384    2.3107 H   0  0  0  0  0  0  0  0  0  0  0  0
   -1.3579   -8.8406    1.5073 H   0  0  0  0  0  0  0  0  0  0  0  0
    0.7572   -8.6252    2.7797 H   0  0  0  0  0  0  0  0  0  0  0  0
   -0.8768   -9.1541    5.2923 H   0  0  0  0  0  0  0  0  0  0  0  0
    0.2455  -10.2968    4.5819 H   0  0  0  0  0  0  0  0  0  0  0  0
    1.3410   -9.0573    6.3842 H   0  0  0  0  0  0  0  0  0  0  0  0
    2.0926   -8.6766    4.8460 H   0  0  0  0  0  0  0  0  0  0  0  0
    0.0689   -7.0352    6.3931 H   0  0  0  0  0  0  0  0  0  0  0  0
   -0.5865   -6.6156    2.5711 H   0  0  0  0  0  0  0  0  0  0  0  0
   -1.5400   -7.0265    3.9913 H   0  0  0  0  0  0  0  0  0  0  0  0
    1.6430   -5.2000    2.9412 H   0  0  0  0  0  0  0  0  0  0  0  0
    4.7154   -6.0722    4.8095 H   0  0  0  0  0  0  0  0  0  0  0  0
    4.0329   -5.5470    3.2821 H   0  0  0  0  0  0  0  0  0  0  0  0
    3.5526   -7.0773    3.9546 H   0  0  0  0  0  0  0  0  0  0  0  0
    2.1950   -3.2215    4.8776 H   0  0  0  0  0  0  0  0  0  0  0  0
    4.9974   -3.8177    4.4316 H   0  0  0  0  0  0  0  0  0  0  0  0
    3.7003   -1.1008    5.0348 H   0  0  0  0  0  0  0  0  0  0  0  0
    3.9519   -1.7478    3.4198 H   0  0  0  0  0  0  0  0  0  0  0  0
    5.3294   -1.3526    4.4334 H   0  0  0  0  0  0  0  0  0  0  0  0
    5.1708   -4.2900    6.7060 H   0  0  0  0  0  0  0  0  0  0  0  0
    5.1325   -2.4858    6.9497 H   0  0  0  0  0  0  0  0  0  0  0  0
    2.7042   -2.4593    6.9525 H   0  0  0  0  0  0  0  0  0  0  0  0
    1.6596   -5.8848    8.3253 H   0  0  0  0  0  0  0  0  0  0  0  0
    0.3336   -3.7906    6.4979 H   0  0  0  0  0  0  0  0  0  0  0  0
   -0.7448   -6.1458    8.0525 H   0  0  0  0  0  0  0  0  0  0  0  0
   -3.0195   -5.0549    7.5516 H   0  0  0  0  0  0  0  0  0  0  0  0
   -2.1242   -5.4305    6.0899 H   0  0  0  0  0  0  0  0  0  0  0  0
   -2.1819   -3.7698    6.6838 H   0  0  0  0  0  0  0  0  0  0  0  0
    4.0971   -6.4717    7.1604 H   0  0  0  0  0  0  0  0  0  0  0  0
    3.6420   -7.8234    6.1528 H   0  0  0  0  0  0  0  0  0  0  0  0
    2.8832   -7.6117    7.7167 H   0  0  0  0  0  0  0  0  0  0  0  0
  1  2  1  0
  1 27  1  0
  1 28  1  0
  1 29  1  0
  2  7  1  0
  2  3  1  0
  2 30  1  6
  3  4  1  0
  3 31  1  0
  3 32  1  0
  4  5  1  0
  4 33  1  0
  4 34  1  0
  5 25  1  0
  5  6  1  0
  5 35  1  1
  6  9  1  0
  6  7  1  0
  6  8  1  1
  7 36  1  0
  7 37  1  0
  8  9  1  0
  9 10  1  0
  9 38  1  6
 10 25  1  0
 10 11  1  6
 10 12  1  0
 11 39  1  0
 11 40  1  0
 11 41  1  0
 12 16  1  0
 12 13  1  0
 12 42  1  6
 13 14  1  0
 13 15  1  0
 13 43  1  6
 14 44  1  0
 14 45  1  0
 14 46  1  0
 15 16  1  0
 15 47  1  0
 15 48  1  0
 16 17  1  0
 16 49  1  1
 17 18  1  0
 18 19  1  0
 18 25  1  0
 18 50  1  1
 19 23  1  0
 19 20  1  0
 19 51  1  6
 20 21  1  0
 21 22  2  0
 21 23  1  0
 23 24  1  0
 23 52  1  1
 24 53  1  0
 24 54  1  0
 24 55  1  0
 25 26  1  1
 26 56  1  0
 26 57  1  0
 26 58  1  0
M  END
>  <i_m_ct_stereo_status>  (23) 
1

>  <s_m_source_file>  (23) 
/var/tmp/pbs.5076255.sched01/tmp5t01l7na/0y8cq_bsf.sdf

>  <i_m_source_file_index>  (23) 
23

>  <i_lp_mmshare_version>  (23) 
48012

>  <i_f3d_flags>  (23) 
0

>  <s_epik_input>  (23) 
W0NIM11bQ0BASF0oW0NIMl0xKVtDSDJdW0NIMl1bQ0BIXShbQ0BAXTEyMylbQ0BAXTQoW0NIM10pW0NAXShbQ0BASF0zTzIpKFtDSDNdKVtDQEhdNVtDQEhdKFtDSDJdW0NAQEhdNVtDSDNdKU9bQ0BIXTRbQ0BASF02T0MoPU8pW0NASF02W0NIM10=

>  <s_epik_cmdline>  (23) 
J2VwaWtfcHl0aG9uJywgJy1waHQnLCAnMi4wJywgJy1waCcsICc3LjAnLCAnLXRuJywgJzgnLCAnLW1hJywgJzIwMCcsICctaW1hZScsICc8aW5maWxlLm1hZT4nLCAnLW9tYWUnLCAnPG91dGZpbGUubWFlPic=

>  <r_lp_tautomer_probability>  (23) 
1

>  <r_epik_Ionization_Penalty>  (23) 
3.78834e-11

>  <r_epik_Ionization_Penalty_Charging>  (23) 
0

>  <r_epik_Ionization_Penalty_Neutral>  (23) 
3.78834e-11

>  <r_epik_State_Penalty>  (23) 
-0

>  <r_epik_Charging_Adjusted_Penalty>  (23) 
0

>  <i_epik_Tot_Q>  (23) 
0

>  <i_epik_Tot_abs_Q>  (23) 
0

>  <s_epik_Chemistry_Notes>  (23) 
This compound has an ester and may undergo hydrolysis at high or low pH.

>  <s_lp_Force_Field>  (23) 
OPLS3e

>  <r_lp_Energy>  (23) 
69.3451

>  <b_lp_Chiralities_Consistent>  (23) 
1

>  <s_lp_Variant>  (23) 
6:0-1

>  <s_i_glide_gridfile>  (23) 
pfpi4k_grid

>  <i_i_glide_lignum>  (23) 
23

>  <i_i_glide_rotatable_bonds>  (23) 
1

>  <r_i_docking_score>  (23) 
-1.92505

>  <r_i_glide_ligand_efficiency>  (23) 
-0.0740403

>  <r_i_glide_ligand_efficiency_sa>  (23) 
-0.219344

>  <r_i_glide_ligand_efficiency_ln>  (23) 
-0.452091

>  <r_i_glide_gscore>  (23) 
-1.92505

>  <r_i_glide_lipo>  (23) 
-0.32485

>  <r_i_glide_hbond>  (23) 
0

>  <r_i_glide_metal>  (23) 
-0

>  <r_i_glide_rewards>  (23) 
-0.951224

>  <r_i_glide_evdw>  (23) 
-16.6279

>  <r_i_glide_ecoul>  (23) 
0.413907

>  <r_i_glide_erotb>  (23) 
0.147591

>  <r_i_glide_esite>  (23) 
-0.0272576

>  <r_i_glide_emodel>  (23) 
-18.7224

>  <r_i_glide_energy>  (23) 
-16.214

>  <r_i_glide_einternal>  (23) 
0.400632

>  <r_i_glide_intrahb_reward>  (23) 
-0

>  <i_i_glide_confnum>  (23) 
4

>  <i_i_glide_posenum>  (23) 
38

>  <r_i_glide_eff_state_penalty>  (23) 
0

>  <ligand_id>  (23) 
6

>  <original_smiles>  (23) 
CC1CCC2C3(C1)OC3C1(C)C3C(C)CC3OC(C3OC(=O)C3C)C21C

>  <smiles>  (23) 
[H]C([H])([H])C1([H])C(=O)OC1([H])C1([H])OC2([H])C([H])([H])C([H])(C([H])([H])[H])C2([H])C2(C([H])([H])[H])C3([H])OC34C([H])([H])C([H])(C([H])([H])[H])C([H])([H])C([H])([H])C4([H])C12C([H])([H])[H]

$$$$
8:0:0
     RDKit          3D

 49 53  0  0  1  0  0  0  0  0999 V2000
    4.8494   -5.8742    3.5519 O   0  0  0  0  0  0  0  0  0  0  0  0
    4.6117   -4.6549    3.6872 C   0  0  0  0  0  0  0  0  0  0  0  0
    5.1846   -3.9351    4.5394 O   0  0  0  0  0  0  0  0  0  0  0  0
    3.5093   -3.9839    2.7881 C   0  0  1  0  0  0  0  0  0  0  0  0
    2.6195   -3.0416    3.6720 C   0  0  0  0  0  0  0  0  0  0  0  0
    1.9983   -1.8777    3.3545 C   0  0  0  0  0  0  0  0  0  0  0  0
    1.8813   -1.0672    2.0808 C   0  0  0  0  0  0  0  0  0  0  0  0
    3.0320   -1.0742    1.0811 C   0  0  1  0  0  0  0  0  0  0  0  0
    4.2338   -0.2472    1.5602 C   0  0  0  0  0  0  0  0  0  0  0  0
    5.0917   -1.0040    2.5719 C   0  0  0  0  0  0  0  0  0  0  0  0
    5.4970   -2.3493    1.9691 C   0  0  0  0  0  0  0  0  0  0  0  0
    4.2991   -3.2822    1.5515 C   0  0  1  0  0  0  0  0  0  0  0  0
    4.9874   -4.2492    0.5519 C   0  0  0  0  0  0  0  0  0  0  0  0
    5.6308   -5.2488    0.8472 O   0  0  0  0  0  0  0  0  0  0  0  0
    4.8121   -3.8162   -0.8931 C   0  0  0  0  0  0  0  0  0  0  0  0
    4.0459   -2.5019   -0.7996 C   0  0  0  0  0  0  0  0  0  0  0  0
    3.3778   -2.4904    0.5941 C   0  0  2  0  0  0  0  0  0  0  0  0
    2.2155   -3.6459    5.0252 C   0  0  0  0  0  0  0  0  0  0  0  0
    1.8505   -5.1443    4.9328 C   0  0  0  0  0  0  0  0  0  0  0  0
    1.6512   -5.6264    3.5025 C   0  0  0  0  0  0  0  0  0  0  0  0
    0.6429   -6.5804    3.2478 C   0  0  0  0  0  0  0  0  0  0  0  0
    0.4089   -7.0290    1.9385 C   0  0  0  0  0  0  0  0  0  0  0  0
   -0.5868   -7.9191    1.6858 O   0  0  0  0  0  0  0  0  0  0  0  0
    1.1919   -6.5284    0.8908 C   0  0  0  0  0  0  0  0  0  0  0  0
    2.1990   -5.5814    1.1381 C   0  0  0  0  0  0  0  0  0  0  0  0
    2.4666   -5.1046    2.4475 C   0  0  0  0  0  0  0  0  0  0  0  0
    1.3530   -1.4548    4.1076 H   0  0  0  0  0  0  0  0  0  0  0  0
    0.9679   -1.3939    1.5905 H   0  0  0  0  0  0  0  0  0  0  0  0
    1.6925   -0.0335    2.3763 H   0  0  0  0  0  0  0  0  0  0  0  0
    2.6363   -0.5386    0.2164 H   0  0  0  0  0  0  0  0  0  0  0  0
    4.8494    0.0256    0.7006 H   0  0  0  0  0  0  0  0  0  0  0  0
    3.8869    0.6930    1.9867 H   0  0  0  0  0  0  0  0  0  0  0  0
    5.9798   -0.4145    2.8082 H   0  0  0  0  0  0  0  0  0  0  0  0
    4.5641   -1.1444    3.5145 H   0  0  0  0  0  0  0  0  0  0  0  0
    6.1064   -2.1087    1.0977 H   0  0  0  0  0  0  0  0  0  0  0  0
    6.2091   -2.8407    2.6237 H   0  0  0  0  0  0  0  0  0  0  0  0
    5.7739   -3.7042   -1.3897 H   0  0  0  0  0  0  0  0  0  0  0  0
    4.2393   -4.5732   -1.4252 H   0  0  0  0  0  0  0  0  0  0  0  0
    4.7509   -1.6740   -0.9102 H   0  0  0  0  0  0  0  0  0  0  0  0
    3.3018   -2.4104   -1.5972 H   0  0  0  0  0  0  0  0  0  0  0  0
    2.4333   -3.0213    0.4810 H   0  0  0  0  0  0  0  0  0  0  0  0
    2.9859   -3.4794    5.7784 H   0  0  0  0  0  0  0  0  0  0  0  0
    1.3337   -3.1301    5.4028 H   0  0  0  0  0  0  0  0  0  0  0  0
    2.6609   -5.7381    5.3631 H   0  0  0  0  0  0  0  0  0  0  0  0
    0.9722   -5.3610    5.5458 H   0  0  0  0  0  0  0  0  0  0  0  0
    0.0357   -6.9547    4.0592 H   0  0  0  0  0  0  0  0  0  0  0  0
   -0.3893   -8.5116    0.9586 H   0  0  0  0  0  0  0  0  0  0  0  0
    1.0057   -6.8363   -0.1217 H   0  0  0  0  0  0  0  0  0  0  0  0
    2.7063   -5.2195    0.2656 H   0  0  0  0  0  0  0  0  0  0  0  0
  1  2  2  0
  2  3  1  0
  4  2  1  1
  4 12  1  0
  4 26  1  0
  4  5  1  0
  5  6  2  0
  5 18  1  0
  6  7  1  0
  6 27  1  0
  7  8  1  0
  7 28  1  0
  7 29  1  0
  8 17  1  0
  8  9  1  0
  8 30  1  6
  9 10  1  0
  9 31  1  0
  9 32  1  0
 10 11  1  0
 10 33  1  0
 10 34  1  0
 12 11  1  1
 11 35  1  0
 11 36  1  0
 12 17  1  0
 12 13  1  0
 13 14  2  0
 13 15  1  0
 15 16  1  0
 15 37  1  0
 15 38  1  0
 16 17  1  0
 16 39  1  0
 16 40  1  0
 17 41  1  6
 18 19  1  0
 18 42  1  0
 18 43  1  0
 19 20  1  0
 19 44  1  0
 19 45  1  0
 20 26  2  0
 20 21  1  0
 21 22  2  0
 21 46  1  0
 22 23  1  0
 22 24  1  0
 23 47  1  0
 24 25  2  0
 24 48  1  0
 25 26  1  0
 25 49  1  0
M  CHG  1   3  -1
M  END
>  <i_m_ct_stereo_status>  (24) 
1

>  <s_m_source_file>  (24) 
/var/tmp/pbs.5076255.sched01/tmp5t01l7na/0y8cq_bsf.sdf

>  <i_m_source_file_index>  (24) 
25

>  <i_lp_mmshare_version>  (24) 
48012

>  <i_f3d_flags>  (24) 
0

>  <s_epik_input>  (24) 
W2NIXTFjKFtPSF0pW2NIXVtjSF1jMmMxW0NIMl1bQ0gyXUMoW0NAQF0yKFtDQEBdMzQ1KUMoPU8pW09IXSk9W0NIXVtDSDJdW0NAQEhdKFtDSDJdW0NIMl1bQ0gyXTMpW0NASF01W0NIMl1bQ0gyXUM0PU8=

>  <s_epik_cmdline>  (24) 
J2VwaWtfcHl0aG9uJywgJy1waHQnLCAnMi4wJywgJy1waCcsICc3LjAnLCAnLXRuJywgJzgnLCAnLW1hJywgJzIwMCcsICctaW1hZScsICc8aW5maWxlLm1hZT4nLCAnLW9tYWUnLCAnPG91dGZpbGUubWFlPic=

>  <r_lp_tautomer_probability>  (24) 
1

>  <r_epik_Ionization_Penalty>  (24) 
0.000445676

>  <r_epik_Ionization_Penalty_Charging>  (24) 
0.000287472

>  <r_epik_Ionization_Penalty_Neutral>  (24) 
0.000158204

>  <r_epik_State_Penalty>  (24) 
-0

>  <r_epik_Charging_Adjusted_Penalty>  (24) 
0.000287472

>  <i_epik_Tot_Q>  (24) 
-1

>  <i_epik_Tot_abs_Q>  (24) 
1

>  <s_lp_Force_Field>  (24) 
OPLS3e

>  <r_lp_Energy>  (24) 
69.3181

>  <b_lp_Chiralities_Consistent>  (24) 
1

>  <s_lp_Variant>  (24) 
8:0-1

>  <s_i_glide_gridfile>  (24) 
pfpi4k_grid

>  <i_i_glide_lignum>  (24) 
25

>  <i_i_glide_rotatable_bonds>  (24) 
2

>  <r_i_docking_score>  (24) 
-3.46685

>  <r_i_glide_ligand_efficiency>  (24) 
-0.13334

>  <r_i_glide_ligand_efficiency_sa>  (24) 
-0.39502

>  <r_i_glide_ligand_efficiency_ln>  (24) 
-0.814177

>  <r_i_glide_gscore>  (24) 
-3.46685

>  <r_i_glide_lipo>  (24) 
-0.290047

>  <r_i_glide_hbond>  (24) 
-0.32

>  <r_i_glide_metal>  (24) 
-0

>  <r_i_glide_rewards>  (24) 
-1.07762

>  <r_i_glide_evdw>  (24) 
-23.7563

>  <r_i_glide_ecoul>  (24) 
-3.94238

>  <r_i_glide_erotb>  (24) 
0

>  <r_i_glide_esite>  (24) 
0

>  <r_i_glide_emodel>  (24) 
-34.4027

>  <r_i_glide_energy>  (24) 
-27.6987

>  <r_i_glide_einternal>  (24) 
0.901562

>  <r_i_glide_intrahb_reward>  (24) 
-0

>  <i_i_glide_confnum>  (24) 
2

>  <i_i_glide_posenum>  (24) 
34

>  <r_i_glide_eff_state_penalty>  (24) 
0

>  <ligand_id>  (24) 
8

>  <original_smiles>  (24) 
O=C(O)C12C(=CCC3CCCC14C(=O)CCC34)CCc1cc(O)ccc12

>  <smiles>  (24) 
[H]Oc1c([H])c([H])c2c(c1[H])C([H])([H])C([H])([H])C1=C([H])C([H])([H])C3([H])C([H])([H])C([H])([H])C([H])([H])C4(C(=O)C([H])([H])C([H])([H])C34[H])C12C(=O)[O-]

$$$$
8:0:1
     RDKit          3D

 49 53  0  0  1  0  0  0  0  0999 V2000
    1.1160   -5.7827    6.3989 O   0  0  0  0  0  0  0  0  0  0  0  0
    0.9532   -5.7368    5.1565 C   0  0  0  0  0  0  0  0  0  0  0  0
    0.2146   -4.8961    4.5982 O   0  0  0  0  0  0  0  0  0  0  0  0
    1.7485   -6.7657    4.2737 C   0  0  1  0  0  0  0  0  0  0  0  0
    3.2193   -6.9017    4.8021 C   0  0  0  0  0  0  0  0  0  0  0  0
    4.0566   -7.9707    4.7925 C   0  0  0  0  0  0  0  0  0  0  0  0
    3.9467   -9.3918    4.2748 C   0  0  0  0  0  0  0  0  0  0  0  0
    2.5845  -10.0774    4.2709 C   0  0  1  0  0  0  0  0  0  0  0  0
    2.1362  -10.4690    5.6787 C   0  0  0  0  0  0  0  0  0  0  0  0
    1.5592   -9.2994    6.4792 C   0  0  0  0  0  0  0  0  0  0  0  0
    0.4312   -8.6554    5.6753 C   0  0  0  0  0  0  0  0  0  0  0  0
    0.8647   -8.1289    4.2566 C   0  0  1  0  0  0  0  0  0  0  0  0
   -0.5014   -8.0400    3.5253 C   0  0  0  0  0  0  0  0  0  0  0  0
   -1.2790   -7.0878    3.5535 O   0  0  0  0  0  0  0  0  0  0  0  0
   -0.8003   -9.2797    2.7043 C   0  0  0  0  0  0  0  0  0  0  0  0
    0.3895  -10.1939    2.9651 C   0  0  0  0  0  0  0  0  0  0  0  0
    1.5288   -9.2946    3.4784 C   0  0  2  0  0  0  0  0  0  0  0  0
    3.8813   -5.5602    5.1650 C   0  0  0  0  0  0  0  0  0  0  0  0
    3.5471   -4.4314    4.1654 C   0  0  0  0  0  0  0  0  0  0  0  0
    2.9089   -4.9379    2.8793 C   0  0  0  0  0  0  0  0  0  0  0  0
    3.2540   -4.2980    1.6720 C   0  0  0  0  0  0  0  0  0  0  0  0
    2.7398   -4.7658    0.4561 C   0  0  0  0  0  0  0  0  0  0  0  0
    3.1283   -4.1950   -0.7216 O   0  0  0  0  0  0  0  0  0  0  0  0
    1.8496   -5.8527    0.4593 C   0  0  0  0  0  0  0  0  0  0  0  0
    1.5020   -6.4945    1.6554 C   0  0  0  0  0  0  0  0  0  0  0  0
    2.0124   -6.0531    2.9049 C   0  0  0  0  0  0  0  0  0  0  0  0
    5.0678   -7.7923    5.1290 H   0  0  0  0  0  0  0  0  0  0  0  0
    4.3648   -9.4059    3.2676 H   0  0  0  0  0  0  0  0  0  0  0  0
    4.6251   -9.9970    4.8775 H   0  0  0  0  0  0  0  0  0  0  0  0
    2.7497  -11.0194    3.7436 H   0  0  0  0  0  0  0  0  0  0  0  0
    1.3726  -11.2436    5.6085 H   0  0  0  0  0  0  0  0  0  0  0  0
    2.9571  -10.9206    6.2350 H   0  0  0  0  0  0  0  0  0  0  0  0
    1.1696   -9.6754    7.4272 H   0  0  0  0  0  0  0  0  0  0  0  0
    2.3232   -8.5670    6.7403 H   0  0  0  0  0  0  0  0  0  0  0  0
   -0.3348   -9.4273    5.5737 H   0  0  0  0  0  0  0  0  0  0  0  0
   -0.0744   -7.9058    6.2832 H   0  0  0  0  0  0  0  0  0  0  0  0
   -1.7475   -9.7407    2.9821 H   0  0  0  0  0  0  0  0  0  0  0  0
   -0.8550   -8.9928    1.6585 H   0  0  0  0  0  0  0  0  0  0  0  0
    0.1016  -10.9458    3.7025 H   0  0  0  0  0  0  0  0  0  0  0  0
    0.6894  -10.7261    2.0657 H   0  0  0  0  0  0  0  0  0  0  0  0
    2.0354   -8.9019    2.5994 H   0  0  0  0  0  0  0  0  0  0  0  0
    3.6339   -5.2593    6.1826 H   0  0  0  0  0  0  0  0  0  0  0  0
    4.9643   -5.6772    5.1551 H   0  0  0  0  0  0  0  0  0  0  0  0
    2.8336   -3.7418    4.6194 H   0  0  0  0  0  0  0  0  0  0  0  0
    4.4366   -3.8353    3.9504 H   0  0  0  0  0  0  0  0  0  0  0  0
    3.9529   -3.4744    1.6695 H   0  0  0  0  0  0  0  0  0  0  0  0
    2.9645   -4.7547   -1.4706 H   0  0  0  0  0  0  0  0  0  0  0  0
    1.4670   -6.2327   -0.4706 H   0  0  0  0  0  0  0  0  0  0  0  0
    0.8798   -7.3638    1.5487 H   0  0  0  0  0  0  0  0  0  0  0  0
  1  2  2  0
  2  3  1  0
  4  2  1  1
  4 12  1  0
  4 26  1  0
  4  5  1  0
  5  6  2  0
  5 18  1  0
  6  7  1  0
  6 27  1  0
  7  8  1  0
  7 28  1  0
  7 29  1  0
  8 17  1  0
  8  9  1  0
  8 30  1  6
  9 10  1  0
  9 31  1  0
  9 32  1  0
 10 11  1  0
 10 33  1  0
 10 34  1  0
 12 11  1  1
 11 35  1  0
 11 36  1  0
 12 17  1  0
 12 13  1  0
 13 14  2  0
 13 15  1  0
 15 16  1  0
 15 37  1  0
 15 38  1  0
 16 17  1  0
 16 39  1  0
 16 40  1  0
 17 41  1  6
 18 19  1  0
 18 42  1  0
 18 43  1  0
 19 20  1  0
 19 44  1  0
 19 45  1  0
 20 26  2  0
 20 21  1  0
 21 22  2  0
 21 46  1  0
 22 23  1  0
 22 24  1  0
 23 47  1  0
 24 25  2  0
 24 48  1  0
 25 26  1  0
 25 49  1  0
M  CHG  1   3  -1
M  END
>  <i_m_ct_stereo_status>  (25) 
1

>  <s_m_source_file>  (25) 
/var/tmp/pbs.5076255.sched01/tmp5t01l7na/0y8cq_bsf.sdf

>  <i_m_source_file_index>  (25) 
25

>  <i_lp_mmshare_version>  (25) 
48012

>  <i_f3d_flags>  (25) 
0

>  <s_epik_input>  (25) 
W2NIXTFjKFtPSF0pW2NIXVtjSF1jMmMxW0NIMl1bQ0gyXUMoW0NAQF0yKFtDQEBdMzQ1KUMoPU8pW09IXSk9W0NIXVtDSDJdW0NAQEhdKFtDSDJdW0NIMl1bQ0gyXTMpW0NASF01W0NIMl1bQ0gyXUM0PU8=

>  <s_epik_cmdline>  (25) 
J2VwaWtfcHl0aG9uJywgJy1waHQnLCAnMi4wJywgJy1waCcsICc3LjAnLCAnLXRuJywgJzgnLCAnLW1hJywgJzIwMCcsICctaW1hZScsICc8aW5maWxlLm1hZT4nLCAnLW9tYWUnLCAnPG91dGZpbGUubWFlPic=

>  <r_lp_tautomer_probability>  (25) 
1

>  <r_epik_Ionization_Penalty>  (25) 
0.000445676

>  <r_epik_Ionization_Penalty_Charging>  (25) 
0.000287472

>  <r_epik_Ionization_Penalty_Neutral>  (25) 
0.000158204

>  <r_epik_State_Penalty>  (25) 
-0

>  <r_epik_Charging_Adjusted_Penalty>  (25) 
0.000287472

>  <i_epik_Tot_Q>  (25) 
-1

>  <i_epik_Tot_abs_Q>  (25) 
1

>  <s_lp_Force_Field>  (25) 
OPLS3e

>  <r_lp_Energy>  (25) 
69.3181

>  <b_lp_Chiralities_Consistent>  (25) 
1

>  <s_lp_Variant>  (25) 
8:0-1

>  <s_i_glide_gridfile>  (25) 
pfpi4k_grid

>  <i_i_glide_lignum>  (25) 
25

>  <i_i_glide_rotatable_bonds>  (25) 
2

>  <r_i_docking_score>  (25) 
-3.3701

>  <r_i_glide_ligand_efficiency>  (25) 
-0.129619

>  <r_i_glide_ligand_efficiency_sa>  (25) 
-0.383997

>  <r_i_glide_ligand_efficiency_ln>  (25) 
-0.791457

>  <r_i_glide_gscore>  (25) 
-3.3701

>  <r_i_glide_lipo>  (25) 
-0.106336

>  <r_i_glide_hbond>  (25) 
-0.391646

>  <r_i_glide_metal>  (25) 
-0

>  <r_i_glide_rewards>  (25) 
-1.01308

>  <r_i_glide_evdw>  (25) 
-22.3657

>  <r_i_glide_ecoul>  (25) 
-4.57583

>  <r_i_glide_erotb>  (25) 
0

>  <r_i_glide_esite>  (25) 
-0.0543818

>  <r_i_glide_emodel>  (25) 
-34.1207

>  <r_i_glide_energy>  (25) 
-26.9416

>  <r_i_glide_einternal>  (25) 
0.498799

>  <r_i_glide_intrahb_reward>  (25) 
-0

>  <i_i_glide_confnum>  (25) 
1

>  <i_i_glide_posenum>  (25) 
14

>  <r_i_glide_eff_state_penalty>  (25) 
0

>  <ligand_id>  (25) 
8

>  <original_smiles>  (25) 
O=C(O)C12C(=CCC3CCCC14C(=O)CCC34)CCc1cc(O)ccc12

>  <smiles>  (25) 
[H]Oc1c([H])c([H])c2c(c1[H])C([H])([H])C([H])([H])C1=C([H])C([H])([H])C3([H])C([H])([H])C([H])([H])C([H])([H])C4(C(=O)C([H])([H])C([H])([H])C34[H])C12C(=O)[O-]

$$$$
8:0:2
     RDKit          3D

 49 53  0  0  1  0  0  0  0  0999 V2000
    3.8275   -1.1991    1.7304 O   0  0  0  0  0  0  0  0  0  0  0  0
    4.7032   -2.0680    1.9410 C   0  0  0  0  0  0  0  0  0  0  0  0
    5.7565   -1.8296    2.5741 O   0  0  0  0  0  0  0  0  0  0  0  0
    4.5033   -3.5154    1.3606 C   0  0  1  0  0  0  0  0  0  0  0  0
    5.8739   -4.0653    0.8364 C   0  0  0  0  0  0  0  0  0  0  0  0
    6.3523   -5.3335    0.8193 C   0  0  0  0  0  0  0  0  0  0  0  0
    5.7880   -6.6776    1.2345 C   0  0  0  0  0  0  0  0  0  0  0  0
    4.8186   -6.7631    2.4053 C   0  0  1  0  0  0  0  0  0  0  0  0
    5.5187   -6.5721    3.7608 C   0  0  0  0  0  0  0  0  0  0  0  0
    5.7958   -5.1002    4.0572 C   0  0  0  0  0  0  0  0  0  0  0  0
    4.4985   -4.2974    3.9429 C   0  0  0  0  0  0  0  0  0  0  0  0
    3.7888   -4.3847    2.5395 C   0  0  1  0  0  0  0  0  0  0  0  0
    2.3346   -3.9842    2.9014 C   0  0  0  0  0  0  0  0  0  0  0  0
    1.9069   -2.8443    3.0238 O   0  0  0  0  0  0  0  0  0  0  0  0
    1.4320   -5.1791    3.1391 C   0  0  0  0  0  0  0  0  0  0  0  0
    2.3560   -6.3754    2.9784 C   0  0  0  0  0  0  0  0  0  0  0  0
    3.5839   -5.8772    2.1853 C   0  0  2  0  0  0  0  0  0  0  0  0
    6.6905   -3.0454    0.0196 C   0  0  0  0  0  0  0  0  0  0  0  0
    5.8146   -2.1806   -0.9161 C   0  0  0  0  0  0  0  0  0  0  0  0
    4.4032   -2.7123   -1.0900 C   0  0  0  0  0  0  0  0  0  0  0  0
    3.7880   -2.5881   -2.3549 C   0  0  0  0  0  0  0  0  0  0  0  0
    2.5052   -3.1108   -2.5724 C   0  0  0  0  0  0  0  0  0  0  0  0
    1.9344   -3.0519   -3.8054 O   0  0  0  0  0  0  0  0  0  0  0  0
    1.8335   -3.7532   -1.5187 C   0  0  0  0  0  0  0  0  0  0  0  0
    2.4527   -3.8799   -0.2584 C   0  0  0  0  0  0  0  0  0  0  0  0
    3.7351   -3.3463    0.0050 C   0  0  0  0  0  0  0  0  0  0  0  0
    7.2904   -5.4887    0.3112 H   0  0  0  0  0  0  0  0  0  0  0  0
    5.3102   -7.1081    0.3510 H   0  0  0  0  0  0  0  0  0  0  0  0
    6.6391   -7.3255    1.4473 H   0  0  0  0  0  0  0  0  0  0  0  0
    4.4683   -7.7974    2.3934 H   0  0  0  0  0  0  0  0  0  0  0  0
    4.8933   -6.9849    4.5523 H   0  0  0  0  0  0  0  0  0  0  0  0
    6.4513   -7.1343    3.7863 H   0  0  0  0  0  0  0  0  0  0  0  0
    6.2101   -5.0032    5.0624 H   0  0  0  0  0  0  0  0  0  0  0  0
    6.5409   -4.7028    3.3750 H   0  0  0  0  0  0  0  0  0  0  0  0
    3.8432   -4.6949    4.7180 H   0  0  0  0  0  0  0  0  0  0  0  0
    4.6682   -3.2736    4.2795 H   0  0  0  0  0  0  0  0  0  0  0  0
    0.9669   -5.1318    4.1221 H   0  0  0  0  0  0  0  0  0  0  0  0
    0.6479   -5.1852    2.3898 H   0  0  0  0  0  0  0  0  0  0  0  0
    2.6383   -6.7270    3.9738 H   0  0  0  0  0  0  0  0  0  0  0  0
    1.8534   -7.2055    2.4671 H   0  0  0  0  0  0  0  0  0  0  0  0
    3.3200   -5.9576    1.1327 H   0  0  0  0  0  0  0  0  0  0  0  0
    7.3033   -2.4182    0.6673 H   0  0  0  0  0  0  0  0  0  0  0  0
    7.4015   -3.5761   -0.6124 H   0  0  0  0  0  0  0  0  0  0  0  0
    5.7167   -1.1779   -0.4943 H   0  0  0  0  0  0  0  0  0  0  0  0
    6.2999   -2.0586   -1.8878 H   0  0  0  0  0  0  0  0  0  0  0  0
    4.3251   -2.1402   -3.1786 H   0  0  0  0  0  0  0  0  0  0  0  0
    1.1559   -3.6039   -3.8609 H   0  0  0  0  0  0  0  0  0  0  0  0
    0.8646   -4.1984   -1.6821 H   0  0  0  0  0  0  0  0  0  0  0  0
    1.9009   -4.4332    0.4730 H   0  0  0  0  0  0  0  0  0  0  0  0
  1  2  2  0
  2  3  1  0
  4  2  1  1
  4 12  1  0
  4 26  1  0
  4  5  1  0
  5  6  2  0
  5 18  1  0
  6  7  1  0
  6 27  1  0
  7  8  1  0
  7 28  1  0
  7 29  1  0
  8 17  1  0
  8  9  1  0
  8 30  1  1
  9 10  1  0
  9 31  1  0
  9 32  1  0
 10 11  1  0
 10 33  1  0
 10 34  1  0
 12 11  1  1
 11 35  1  0
 11 36  1  0
 12 17  1  0
 12 13  1  0
 13 14  2  0
 13 15  1  0
 15 16  1  0
 15 37  1  0
 15 38  1  0
 16 17  1  0
 16 39  1  0
 16 40  1  0
 17 41  1  6
 18 19  1  0
 18 42  1  0
 18 43  1  0
 19 20  1  0
 19 44  1  0
 19 45  1  0
 20 26  2  0
 20 21  1  0
 21 22  2  0
 21 46  1  0
 22 23  1  0
 22 24  1  0
 23 47  1  0
 24 25  2  0
 24 48  1  0
 25 26  1  0
 25 49  1  0
M  CHG  1   3  -1
M  END
>  <i_m_ct_stereo_status>  (26) 
1

>  <s_m_source_file>  (26) 
/var/tmp/pbs.5076255.sched01/tmp5t01l7na/0y8cq_bsf.sdf

>  <i_m_source_file_index>  (26) 
25

>  <i_lp_mmshare_version>  (26) 
48012

>  <i_f3d_flags>  (26) 
0

>  <s_epik_input>  (26) 
W2NIXTFjKFtPSF0pW2NIXVtjSF1jMmMxW0NIMl1bQ0gyXUMoW0NAQF0yKFtDQEBdMzQ1KUMoPU8pW09IXSk9W0NIXVtDSDJdW0NAQEhdKFtDSDJdW0NIMl1bQ0gyXTMpW0NASF01W0NIMl1bQ0gyXUM0PU8=

>  <s_epik_cmdline>  (26) 
J2VwaWtfcHl0aG9uJywgJy1waHQnLCAnMi4wJywgJy1waCcsICc3LjAnLCAnLXRuJywgJzgnLCAnLW1hJywgJzIwMCcsICctaW1hZScsICc8aW5maWxlLm1hZT4nLCAnLW9tYWUnLCAnPG91dGZpbGUubWFlPic=

>  <r_lp_tautomer_probability>  (26) 
1

>  <r_epik_Ionization_Penalty>  (26) 
0.000445676

>  <r_epik_Ionization_Penalty_Charging>  (26) 
0.000287472

>  <r_epik_Ionization_Penalty_Neutral>  (26) 
0.000158204

>  <r_epik_State_Penalty>  (26) 
-0

>  <r_epik_Charging_Adjusted_Penalty>  (26) 
0.000287472

>  <i_epik_Tot_Q>  (26) 
-1

>  <i_epik_Tot_abs_Q>  (26) 
1

>  <s_lp_Force_Field>  (26) 
OPLS3e

>  <r_lp_Energy>  (26) 
69.3181

>  <b_lp_Chiralities_Consistent>  (26) 
1

>  <s_lp_Variant>  (26) 
8:0-1

>  <s_i_glide_gridfile>  (26) 
pfpi4k_grid

>  <i_i_glide_lignum>  (26) 
25

>  <i_i_glide_rotatable_bonds>  (26) 
2

>  <r_i_docking_score>  (26) 
-2.89153

>  <r_i_glide_ligand_efficiency>  (26) 
-0.111213

>  <r_i_glide_ligand_efficiency_sa>  (26) 
-0.329467

>  <r_i_glide_ligand_efficiency_ln>  (26) 
-0.679066

>  <r_i_glide_gscore>  (26) 
-2.89153

>  <r_i_glide_lipo>  (26) 
-0.469449

>  <r_i_glide_hbond>  (26) 
-0.32

>  <r_i_glide_metal>  (26) 
-0

>  <r_i_glide_rewards>  (26) 
-1.06497

>  <r_i_glide_evdw>  (26) 
-21.4764

>  <r_i_glide_ecoul>  (26) 
0.265738

>  <r_i_glide_erotb>  (26) 
0

>  <r_i_glide_esite>  (26) 
-0.00315268

>  <r_i_glide_emodel>  (26) 
-27.4273

>  <r_i_glide_energy>  (26) 
-21.2106

>  <r_i_glide_einternal>  (26) 
0.360516

>  <r_i_glide_intrahb_reward>  (26) 
-0

>  <i_i_glide_confnum>  (26) 
2

>  <i_i_glide_posenum>  (26) 
2

>  <r_i_glide_eff_state_penalty>  (26) 
0

>  <ligand_id>  (26) 
8

>  <original_smiles>  (26) 
O=C(O)C12C(=CCC3CCCC14C(=O)CCC34)CCc1cc(O)ccc12

>  <smiles>  (26) 
[H]Oc1c([H])c([H])c2c(c1[H])C([H])([H])C([H])([H])C1=C([H])C([H])([H])C3([H])C([H])([H])C([H])([H])C([H])([H])C4(C(=O)C([H])([H])C([H])([H])C34[H])C12C(=O)[O-]

$$$$
9:0:0
     RDKit          3D

 30 32  0  0  1  0  0  0  0  0999 V2000
    7.8773   -2.2610   -1.3567 O   0  0  0  0  0  0  0  0  0  0  0  0
    7.1074   -3.4406   -1.2877 C   0  0  0  0  0  0  0  0  0  0  0  0
    5.7441   -3.1855   -0.6196 C   0  0  2  0  0  0  0  0  0  0  0  0
    5.3159   -4.3763    0.0515 O   0  0  0  0  0  0  0  0  0  0  0  0
    3.9394   -4.5703   -0.1244 C   0  0  1  0  0  0  0  0  0  0  0  0
    3.2883   -4.7992    1.2087 N   0  0  0  0  0  0  0  0  0  0  0  0
    3.6334   -4.2721    2.3972 C   0  0  0  0  0  0  0  0  0  0  0  0
    2.8720   -4.5691    3.4546 N   0  0  0  0  0  0  0  0  0  0  0  0
    1.9256   -5.3963    2.8798 C   0  0  0  0  0  0  0  0  0  0  0  0
    0.8030   -6.0726    3.4074 C   0  0  0  0  0  0  0  0  0  0  0  0
    0.4022   -5.9719    5.0852 Cl  0  0  0  0  0  0  0  0  0  0  0  0
    0.0210   -6.7806    2.5573 N   0  0  0  0  0  0  0  0  0  0  0  0
    0.3556   -6.8701    1.2665 C   0  0  0  0  0  0  0  0  0  0  0  0
    1.3479   -6.2485    0.6211 N   0  0  0  0  0  0  0  0  0  0  0  0
    2.1507   -5.5416    1.4787 C   0  0  0  0  0  0  0  0  0  0  0  0
    3.3926   -3.3119   -0.8261 C   0  0  1  0  0  0  0  0  0  0  0  0
    2.9935   -2.2867    0.0816 O   0  0  0  0  0  0  0  0  0  0  0  0
    4.6165   -2.8874   -1.6131 C   0  0  1  0  0  0  0  0  0  0  0  0
    4.5687   -1.5327   -2.0268 O   0  0  0  0  0  0  0  0  0  0  0  0
    8.7310   -2.4976   -1.7115 H   0  0  0  0  0  0  0  0  0  0  0  0
    6.9771   -3.8385   -2.2893 H   0  0  0  0  0  0  0  0  0  0  0  0
    7.6769   -4.1588   -0.7029 H   0  0  0  0  0  0  0  0  0  0  0  0
    5.8100   -2.3989    0.1409 H   0  0  0  0  0  0  0  0  0  0  0  0
    3.8068   -5.4982   -0.6787 H   0  0  0  0  0  0  0  0  0  0  0  0
    4.4715   -3.6001    2.4792 H   0  0  0  0  0  0  0  0  0  0  0  0
   -0.3064   -7.4677    0.6608 H   0  0  0  0  0  0  0  0  0  0  0  0
    2.5607   -3.6052   -1.4633 H   0  0  0  0  0  0  0  0  0  0  0  0
    2.3297   -1.7256   -0.3229 H   0  0  0  0  0  0  0  0  0  0  0  0
    4.7068   -3.5365   -2.4858 H   0  0  0  0  0  0  0  0  0  0  0  0
    3.6894   -1.3510   -2.3231 H   0  0  0  0  0  0  0  0  0  0  0  0
  1  2  1  0
  1 20  1  0
  2  3  1  0
  2 21  1  0
  2 22  1  0
  3 18  1  0
  3  4  1  0
  3 23  1  1
  4  5  1  0
  5  6  1  0
  5 16  1  0
  5 24  1  6
  6 15  1  0
  6  7  1  0
  7  8  2  0
  7 25  1  0
  8  9  1  0
  9 15  2  0
  9 10  1  0
 10 11  1  0
 10 12  2  0
 12 13  1  0
 13 14  2  0
 13 26  1  0
 14 15  1  0
 16 17  1  0
 16 18  1  0
 16 27  1  6
 17 28  1  0
 18 19  1  0
 18 29  1  6
 19 30  1  0
M  END
>  <i_m_ct_stereo_status>  (27) 
1

>  <s_m_source_file>  (27) 
/var/tmp/pbs.5076255.sched01/tmp5t01l7na/0y8cq_bsf.sdf

>  <i_m_source_file_index>  (27) 
26

>  <i_lp_mmshare_version>  (27) 
48012

>  <i_f3d_flags>  (27) 
0

>  <s_epik_input>  (27) 
W09IXVtDSDJdW0NAQEhdMU9bQ0BIXShbQ0BASF0oW09IXSlbQ0BIXTFbT0hdKW4oW2NIXW4yKWMoYzIzKW5bY0hdbmMzQ2w=

>  <s_epik_cmdline>  (27) 
J2VwaWtfcHl0aG9uJywgJy1waHQnLCAnMi4wJywgJy1waCcsICc3LjAnLCAnLXRuJywgJzgnLCAnLW1hJywgJzIwMCcsICctaW1hZScsICc8aW5maWxlLm1hZT4nLCAnLW9tYWUnLCAnPG91dGZpbGUubWFlPic=

>  <r_lp_tautomer_probability>  (27) 
1

>  <r_epik_Ionization_Penalty>  (27) 
3.45505e-06

>  <r_epik_Ionization_Penalty_Charging>  (27) 
0

>  <r_epik_Ionization_Penalty_Neutral>  (27) 
3.45505e-06

>  <r_epik_State_Penalty>  (27) 
-0

>  <r_epik_Charging_Adjusted_Penalty>  (27) 
0

>  <i_epik_Tot_Q>  (27) 
0

>  <i_epik_Tot_abs_Q>  (27) 
0

>  <s_epik_Chemistry_Notes>  (27) 
This compound contains an acetal/aminal-like group ( X-CH(R)-Y where X, Y are N, S, or O) that may be acid/base labile, releasing an aldehyde.

>  <s_lp_Force_Field>  (27) 
OPLS3e

>  <r_lp_Energy>  (27) 
17.5

>  <b_lp_Chiralities_Consistent>  (27) 
1

>  <s_lp_Variant>  (27) 
9:0-1

>  <s_i_glide_gridfile>  (27) 
pfpi4k_grid

>  <i_i_glide_lignum>  (27) 
26

>  <i_i_glide_rotatable_bonds>  (27) 
5

>  <r_i_docking_score>  (27) 
-4.62857

>  <r_i_glide_ligand_efficiency>  (27) 
-0.243609

>  <r_i_glide_ligand_efficiency_sa>  (27) 
-0.650046

>  <r_i_glide_ligand_efficiency_ln>  (27) 
-1.17344

>  <r_i_glide_gscore>  (27) 
-4.62857

>  <r_i_glide_lipo>  (27) 
-0.257159

>  <r_i_glide_hbond>  (27) 
-0.215416

>  <r_i_glide_metal>  (27) 
-0

>  <r_i_glide_rewards>  (27) 
-1.45468

>  <r_i_glide_evdw>  (27) 
-18.0506

>  <r_i_glide_ecoul>  (27) 
-13.0246

>  <r_i_glide_erotb>  (27) 
0.309434

>  <r_i_glide_esite>  (27) 
-0.154529

>  <r_i_glide_emodel>  (27) 
-39.1191

>  <r_i_glide_energy>  (27) 
-31.0752

>  <r_i_glide_einternal>  (27) 
2.77587

>  <r_i_glide_intrahb_reward>  (27) 
-0

>  <i_i_glide_confnum>  (27) 
4

>  <i_i_glide_posenum>  (27) 
39

>  <r_i_glide_eff_state_penalty>  (27) 
0

>  <ligand_id>  (27) 
9

>  <original_smiles>  (27) 
OCC1OC(n2cnc3c(Cl)ncnc32)C(O)C1O

>  <smiles>  (27) 
[H]OC([H])([H])C1([H])OC([H])(n2c([H])nc3c(Cl)nc([H])nc32)C([H])(O[H])C1([H])O[H]

$$$$
9:0:1
     RDKit          3D

 30 32  0  0  1  0  0  0  0  0999 V2000
    6.7867   -1.0561    0.2968 O   0  0  0  0  0  0  0  0  0  0  0  0
    6.5196   -2.3936    0.6577 C   0  0  0  0  0  0  0  0  0  0  0  0
    5.0250   -2.7229    0.5169 C   0  0  2  0  0  0  0  0  0  0  0  0
    4.8502   -4.0954    0.8867 O   0  0  0  0  0  0  0  0  0  0  0  0
    3.9318   -4.7337    0.0401 C   0  0  1  0  0  0  0  0  0  0  0  0
    2.8148   -5.3727    0.8360 N   0  0  0  0  0  0  0  0  0  0  0  0
    1.6673   -5.8799    0.3346 C   0  0  0  0  0  0  0  0  0  0  0  0
    0.7388   -6.3131    1.1806 N   0  0  0  0  0  0  0  0  0  0  0  0
    1.3839   -6.1309    2.3884 C   0  0  0  0  0  0  0  0  0  0  0  0
    0.9990   -6.3902    3.7235 C   0  0  0  0  0  0  0  0  0  0  0  0
   -0.5435   -7.0852    4.0921 Cl  0  0  0  0  0  0  0  0  0  0  0  0
    1.8528   -6.0431    4.7120 N   0  0  0  0  0  0  0  0  0  0  0  0
    3.0305   -5.4903    4.4030 C   0  0  0  0  0  0  0  0  0  0  0  0
    3.5323   -5.2064    3.2036 N   0  0  0  0  0  0  0  0  0  0  0  0
    2.6724   -5.5448    2.2032 C   0  0  0  0  0  0  0  0  0  0  0  0
    3.3680   -3.6428   -0.8810 C   0  0  1  0  0  0  0  0  0  0  0  0
    2.2151   -3.0610   -0.3034 O   0  0  0  0  0  0  0  0  0  0  0  0
    4.5162   -2.6666   -0.9301 C   0  0  1  0  0  0  0  0  0  0  0  0
    4.0787   -1.3931   -1.3809 O   0  0  0  0  0  0  0  0  0  0  0  0
    6.3297   -0.4898    0.9011 H   0  0  0  0  0  0  0  0  0  0  0  0
    7.1087   -3.0667    0.0343 H   0  0  0  0  0  0  0  0  0  0  0  0
    6.8440   -2.5495    1.6843 H   0  0  0  0  0  0  0  0  0  0  0  0
    4.4072   -2.1050    1.1786 H   0  0  0  0  0  0  0  0  0  0  0  0
    4.4133   -5.5582   -0.4733 H   0  0  0  0  0  0  0  0  0  0  0  0
    1.4779   -5.8651   -0.7280 H   0  0  0  0  0  0  0  0  0  0  0  0
    3.6682   -5.2379    5.2302 H   0  0  0  0  0  0  0  0  0  0  0  0
    3.1312   -4.0408   -1.8631 H   0  0  0  0  0  0  0  0  0  0  0  0
    1.8782   -2.3119   -0.8034 H   0  0  0  0  0  0  0  0  0  0  0  0
    5.2843   -3.0583   -1.5910 H   0  0  0  0  0  0  0  0  0  0  0  0
    3.3090   -1.1491   -0.8837 H   0  0  0  0  0  0  0  0  0  0  0  0
  1  2  1  0
  1 20  1  0
  2  3  1  0
  2 21  1  0
  2 22  1  0
  3 18  1  0
  3  4  1  0
  3 23  1  1
  4  5  1  0
  5  6  1  0
  5 16  1  0
  5 24  1  6
  6 15  1  0
  6  7  1  0
  7  8  2  0
  7 25  1  0
  8  9  1  0
  9 15  2  0
  9 10  1  0
 10 11  1  0
 10 12  2  0
 12 13  1  0
 13 14  2  0
 13 26  1  0
 14 15  1  0
 16 17  1  0
 16 18  1  0
 16 27  1  6
 17 28  1  0
 18 19  1  0
 18 29  1  6
 19 30  1  0
M  END
>  <i_m_ct_stereo_status>  (28) 
1

>  <s_m_source_file>  (28) 
/var/tmp/pbs.5076255.sched01/tmp5t01l7na/0y8cq_bsf.sdf

>  <i_m_source_file_index>  (28) 
26

>  <i_lp_mmshare_version>  (28) 
48012

>  <i_f3d_flags>  (28) 
0

>  <s_epik_input>  (28) 
W09IXVtDSDJdW0NAQEhdMU9bQ0BIXShbQ0BASF0oW09IXSlbQ0BIXTFbT0hdKW4oW2NIXW4yKWMoYzIzKW5bY0hdbmMzQ2w=

>  <s_epik_cmdline>  (28) 
J2VwaWtfcHl0aG9uJywgJy1waHQnLCAnMi4wJywgJy1waCcsICc3LjAnLCAnLXRuJywgJzgnLCAnLW1hJywgJzIwMCcsICctaW1hZScsICc8aW5maWxlLm1hZT4nLCAnLW9tYWUnLCAnPG91dGZpbGUubWFlPic=

>  <r_lp_tautomer_probability>  (28) 
1

>  <r_epik_Ionization_Penalty>  (28) 
3.45505e-06

>  <r_epik_Ionization_Penalty_Charging>  (28) 
0

>  <r_epik_Ionization_Penalty_Neutral>  (28) 
3.45505e-06

>  <r_epik_State_Penalty>  (28) 
-0

>  <r_epik_Charging_Adjusted_Penalty>  (28) 
0

>  <i_epik_Tot_Q>  (28) 
0

>  <i_epik_Tot_abs_Q>  (28) 
0

>  <s_epik_Chemistry_Notes>  (28) 
This compound contains an acetal/aminal-like group ( X-CH(R)-Y where X, Y are N, S, or O) that may be acid/base labile, releasing an aldehyde.

>  <s_lp_Force_Field>  (28) 
OPLS3e

>  <r_lp_Energy>  (28) 
17.5

>  <b_lp_Chiralities_Consistent>  (28) 
1

>  <s_lp_Variant>  (28) 
9:0-1

>  <s_i_glide_gridfile>  (28) 
pfpi4k_grid

>  <i_i_glide_lignum>  (28) 
26

>  <i_i_glide_rotatable_bonds>  (28) 
5

>  <r_i_docking_score>  (28) 
-3.61683

>  <r_i_glide_ligand_efficiency>  (28) 
-0.190359

>  <r_i_glide_ligand_efficiency_sa>  (28) 
-0.507955

>  <r_i_glide_ligand_efficiency_ln>  (28) 
-0.916943

>  <r_i_glide_gscore>  (28) 
-3.61683

>  <r_i_glide_lipo>  (28) 
-0.123348

>  <r_i_glide_hbond>  (28) 
-0.16

>  <r_i_glide_metal>  (28) 
-0

>  <r_i_glide_rewards>  (28) 
-1.45451

>  <r_i_glide_evdw>  (28) 
-14.4746

>  <r_i_glide_ecoul>  (28) 
-9.74094

>  <r_i_glide_erotb>  (28) 
0.442048

>  <r_i_glide_esite>  (28) 
-0.136144

>  <r_i_glide_emodel>  (28) 
-30.5779

>  <r_i_glide_energy>  (28) 
-24.2155

>  <r_i_glide_einternal>  (28) 
2.29651

>  <r_i_glide_intrahb_reward>  (28) 
-0

>  <i_i_glide_confnum>  (28) 
4

>  <i_i_glide_posenum>  (28) 
3

>  <r_i_glide_eff_state_penalty>  (28) 
0

>  <ligand_id>  (28) 
9

>  <original_smiles>  (28) 
OCC1OC(n2cnc3c(Cl)ncnc32)C(O)C1O

>  <smiles>  (28) 
[H]OC([H])([H])C1([H])OC([H])(n2c([H])nc3c(Cl)nc([H])nc32)C([H])(O[H])C1([H])O[H]

$$$$
9:0:2
     RDKit          3D

 30 32  0  0  1  0  0  0  0  0999 V2000
   -1.4157    4.9358    3.2796 O   0  0  0  0  0  0  0  0  0  0  0  0
   -0.1597    4.4623    3.7099 C   0  0  0  0  0  0  0  0  0  0  0  0
   -0.0605    2.9330    3.5384 C   0  0  2  0  0  0  0  0  0  0  0  0
   -0.2319    2.2955    4.8077 O   0  0  0  0  0  0  0  0  0  0  0  0
    0.6786    1.2352    4.9525 C   0  0  1  0  0  0  0  0  0  0  0  0
   -0.0631    0.0030    5.3627 N   0  0  0  0  0  0  0  0  0  0  0  0
   -1.3816   -0.2531    5.2662 C   0  0  0  0  0  0  0  0  0  0  0  0
   -1.8058   -1.4467    5.6810 N   0  0  0  0  0  0  0  0  0  0  0  0
   -0.6170   -2.0394    6.0718 C   0  0  0  0  0  0  0  0  0  0  0  0
   -0.3134   -3.3084    6.6233 C   0  0  0  0  0  0  0  0  0  0  0  0
   -1.5619   -4.4450    6.9851 Cl  0  0  0  0  0  0  0  0  0  0  0  0
    0.9699   -3.5903    6.9261 N   0  0  0  0  0  0  0  0  0  0  0  0
    1.9176   -2.6787    6.6811 C   0  0  0  0  0  0  0  0  0  0  0  0
    1.7862   -1.4452    6.1747 N   0  0  0  0  0  0  0  0  0  0  0  0
    0.4866   -1.1612    5.8778 C   0  0  0  0  0  0  0  0  0  0  0  0
    1.3772    1.0468    3.6006 C   0  0  1  0  0  0  0  0  0  0  0  0
    0.7178    0.1252    2.7350 O   0  0  0  0  0  0  0  0  0  0  0  0
    1.3195    2.4667    3.0797 C   0  0  1  0  0  0  0  0  0  0  0  0
    1.4815    2.4942    1.6811 O   0  0  0  0  0  0  0  0  0  0  0  0
   -1.4410    4.7887    2.3427 H   0  0  0  0  0  0  0  0  0  0  0  0
    0.5840    4.9739    3.0975 H   0  0  0  0  0  0  0  0  0  0  0  0
    0.0278    4.7558    4.7438 H   0  0  0  0  0  0  0  0  0  0  0  0
   -0.8065    2.5486    2.8371 H   0  0  0  0  0  0  0  0  0  0  0  0
    1.3641    1.4564    5.7714 H   0  0  0  0  0  0  0  0  0  0  0  0
   -2.0583    0.4812    4.8519 H   0  0  0  0  0  0  0  0  0  0  0  0
    2.9151   -2.9829    6.9511 H   0  0  0  0  0  0  0  0  0  0  0  0
    2.3952    0.7015    3.7561 H   0  0  0  0  0  0  0  0  0  0  0  0
    1.0109    0.2943    1.8455 H   0  0  0  0  0  0  0  0  0  0  0  0
    2.0898    3.0661    3.5669 H   0  0  0  0  0  0  0  0  0  0  0  0
    0.9580    3.2207    1.3130 H   0  0  0  0  0  0  0  0  0  0  0  0
  1  2  1  0
  1 20  1  0
  2  3  1  0
  2 21  1  0
  2 22  1  0
  3 18  1  0
  3  4  1  0
  3 23  1  6
  4  5  1  0
  5  6  1  0
  5 16  1  0
  5 24  1  1
  6 15  1  0
  6  7  1  0
  7  8  2  0
  7 25  1  0
  8  9  1  0
  9 15  2  0
  9 10  1  0
 10 11  1  0
 10 12  2  0
 12 13  1  0
 13 14  2  0
 13 26  1  0
 14 15  1  0
 16 17  1  0
 16 18  1  0
 16 27  1  1
 17 28  1  0
 18 19  1  0
 18 29  1  1
 19 30  1  0
M  END
>  <i_m_ct_stereo_status>  (29) 
1

>  <s_m_source_file>  (29) 
/var/tmp/pbs.5076255.sched01/tmp5t01l7na/0y8cq_bsf.sdf

>  <i_m_source_file_index>  (29) 
26

>  <i_lp_mmshare_version>  (29) 
48012

>  <i_f3d_flags>  (29) 
0

>  <s_epik_input>  (29) 
W09IXVtDSDJdW0NAQEhdMU9bQ0BIXShbQ0BASF0oW09IXSlbQ0BIXTFbT0hdKW4oW2NIXW4yKWMoYzIzKW5bY0hdbmMzQ2w=

>  <s_epik_cmdline>  (29) 
J2VwaWtfcHl0aG9uJywgJy1waHQnLCAnMi4wJywgJy1waCcsICc3LjAnLCAnLXRuJywgJzgnLCAnLW1hJywgJzIwMCcsICctaW1hZScsICc8aW5maWxlLm1hZT4nLCAnLW9tYWUnLCAnPG91dGZpbGUubWFlPic=

>  <r_lp_tautomer_probability>  (29) 
1

>  <r_epik_Ionization_Penalty>  (29) 
3.45505e-06

>  <r_epik_Ionization_Penalty_Charging>  (29) 
0

>  <r_epik_Ionization_Penalty_Neutral>  (29) 
3.45505e-06

>  <r_epik_State_Penalty>  (29) 
-0

>  <r_epik_Charging_Adjusted_Penalty>  (29) 
0

>  <i_epik_Tot_Q>  (29) 
0

>  <i_epik_Tot_abs_Q>  (29) 
0

>  <s_epik_Chemistry_Notes>  (29) 
This compound contains an acetal/aminal-like group ( X-CH(R)-Y where X, Y are N, S, or O) that may be acid/base labile, releasing an aldehyde.

>  <s_lp_Force_Field>  (29) 
OPLS3e

>  <r_lp_Energy>  (29) 
17.5

>  <b_lp_Chiralities_Consistent>  (29) 
1

>  <s_lp_Variant>  (29) 
9:0-1

>  <s_i_glide_gridfile>  (29) 
pfpi4k_grid

>  <i_i_glide_lignum>  (29) 
26

>  <i_i_glide_rotatable_bonds>  (29) 
5

>  <r_i_docking_score>  (29) 
-3.61328

>  <r_i_glide_ligand_efficiency>  (29) 
-0.190173

>  <r_i_glide_ligand_efficiency_sa>  (29) 
-0.507457

>  <r_i_glide_ligand_efficiency_ln>  (29) 
-0.916044

>  <r_i_glide_gscore>  (29) 
-3.61328

>  <r_i_glide_lipo>  (29) 
-0.0463571

>  <r_i_glide_hbond>  (29) 
-0.00494306

>  <r_i_glide_metal>  (29) 
-0

>  <r_i_glide_rewards>  (29) 
-1.45451

>  <r_i_glide_evdw>  (29) 
-11.0631

>  <r_i_glide_ecoul>  (29) 
-12.7964

>  <r_i_glide_erotb>  (29) 
0.442048

>  <r_i_glide_esite>  (29) 
-0.0768927

>  <r_i_glide_emodel>  (29) 
-30.1853

>  <r_i_glide_energy>  (29) 
-23.8596

>  <r_i_glide_einternal>  (29) 
2.39927

>  <r_i_glide_intrahb_reward>  (29) 
-0

>  <i_i_glide_confnum>  (29) 
1

>  <i_i_glide_posenum>  (29) 
20

>  <r_i_glide_eff_state_penalty>  (29) 
0

>  <ligand_id>  (29) 
9

>  <original_smiles>  (29) 
OCC1OC(n2cnc3c(Cl)ncnc32)C(O)C1O

>  <smiles>  (29) 
[H]OC([H])([H])C1([H])OC([H])(n2c([H])nc3c(Cl)nc([H])nc32)C([H])(O[H])C1([H])O[H]

$$$$
10:0:0
     RDKit          3D

 46 50  0  0  1  0  0  0  0  0999 V2000
    5.8420   -5.3404    2.0308 C   0  0  0  0  0  0  0  0  0  0  0  0
    5.0824   -4.6879    0.9489 N   0  0  0  0  0  0  0  0  0  0  0  0
    3.7317   -4.7674    0.9599 C   0  0  0  0  0  0  0  0  0  0  0  0
    3.1255   -5.4205    1.8151 O   0  0  0  0  0  0  0  0  0  0  0  0
    2.9189   -3.9788   -0.0898 C   0  0  2  0  0  0  0  0  0  0  0  0
    1.8150   -4.6258   -0.2746 O   0  0  0  0  0  0  0  0  0  0  0  0
    3.6413   -3.7976   -1.3990 C   0  0  0  0  0  0  0  0  0  0  0  0
    2.9076   -3.4379   -2.3875 N   0  0  0  0  0  0  0  0  0  0  0  0
    3.2059   -2.1942   -2.9622 C   0  0  0  0  0  0  0  0  0  0  0  0
    2.6248   -1.8560   -4.1772 C   0  0  0  0  0  0  0  0  0  0  0  0
    2.7580   -0.5648   -4.7306 C   0  0  0  0  0  0  0  0  0  0  0  0
    3.5805    0.3556   -4.0927 C   0  0  0  0  0  0  0  0  0  0  0  0
    4.2060   -0.0202   -2.9063 C   0  0  0  0  0  0  0  0  0  0  0  0
    4.0211   -1.2655   -2.2901 C   0  0  0  0  0  0  0  0  0  0  0  0
    4.6477   -1.7331   -0.9510 C   0  0  1  0  0  0  0  0  0  0  0  0
    5.9252   -0.9706   -0.7001 C   0  0  0  0  0  0  0  0  0  0  0  0
    3.6418   -1.5532    0.2441 C   0  0  2  0  0  0  0  0  0  0  0  0
    4.2109   -1.4080    1.6647 C   0  0  0  0  0  0  0  0  0  0  0  0
    3.0930   -1.8598    2.5892 C   0  0  0  0  0  0  0  0  0  0  0  0
    1.9851   -2.4172    1.6876 C   0  0  0  0  0  0  0  0  0  0  0  0
    2.5787   -2.5885    0.3459 N   0  0  2  0  0  0  0  0  0  0  0  0
    5.0271   -3.2292   -1.1744 C   0  0  2  0  0  0  0  0  0  0  0  0
    5.8703   -3.4888   -2.4495 C   0  0  0  0  0  0  0  0  0  0  0  0
    5.7491   -3.9435    0.0215 C   0  0  0  0  0  0  0  0  0  0  0  0
    6.9689   -3.7913    0.1064 O   0  0  0  0  0  0  0  0  0  0  0  0
    5.2440   -5.8874    2.7572 H   0  0  0  0  0  0  0  0  0  0  0  0
    6.3773   -4.5737    2.5792 H   0  0  0  0  0  0  0  0  0  0  0  0
    6.5452   -6.0406    1.5933 H   0  0  0  0  0  0  0  0  0  0  0  0
    1.9459   -2.5697   -4.6314 H   0  0  0  0  0  0  0  0  0  0  0  0
    2.1654   -0.2542   -5.5735 H   0  0  0  0  0  0  0  0  0  0  0  0
    3.5737    1.3912   -4.4055 H   0  0  0  0  0  0  0  0  0  0  0  0
    4.6575    0.7244   -2.3455 H   0  0  0  0  0  0  0  0  0  0  0  0
    6.5309   -1.3184    0.1383 H   0  0  0  0  0  0  0  0  0  0  0  0
    5.7318    0.0794   -0.5178 H   0  0  0  0  0  0  0  0  0  0  0  0
    6.4820   -1.1306   -1.6026 H   0  0  0  0  0  0  0  0  0  0  0  0
    3.0935   -0.6332    0.0530 H   0  0  0  0  0  0  0  0  0  0  0  0
    5.0915   -2.0260    1.8292 H   0  0  0  0  0  0  0  0  0  0  0  0
    4.4909   -0.3691    1.8368 H   0  0  0  0  0  0  0  0  0  0  0  0
    3.4557   -2.6393    3.2557 H   0  0  0  0  0  0  0  0  0  0  0  0
    2.7091   -1.0423    3.2129 H   0  0  0  0  0  0  0  0  0  0  0  0
    1.4818   -3.2903    2.1160 H   0  0  0  0  0  0  0  0  0  0  0  0
    1.2306   -1.6416    1.5980 H   0  0  0  0  0  0  0  0  0  0  0  0
    5.7659   -4.5550   -2.6013 H   0  0  0  0  0  0  0  0  0  0  0  0
    6.9084   -3.1820   -2.3438 H   0  0  0  0  0  0  0  0  0  0  0  0
    5.5005   -3.0934   -3.3890 H   0  0  0  0  0  0  0  0  0  0  0  0
    1.8806   -2.3102   -0.3251 H   0  0  0  0  0  0  0  0  0  0  0  0
  1  2  1  0
  1 26  1  0
  1 27  1  0
  1 28  1  0
  2 24  1  0
  2  3  1  0
  3  4  2  0
  3  5  1  0
  5 21  1  0
  5  6  1  6
  5  7  1  0
  7 22  1  0
  7  8  2  0
  8  9  1  0
  9 14  2  0
  9 10  1  0
 10 11  2  0
 10 29  1  0
 11 12  1  0
 11 30  1  0
 12 13  2  0
 12 31  1  0
 13 14  1  0
 13 32  1  0
 14 15  1  0
 15 16  1  1
 15 17  1  0
 15 22  1  0
 16 33  1  0
 16 34  1  0
 16 35  1  0
 17 21  1  0
 17 18  1  0
 17 36  1  6
 18 19  1  0
 18 37  1  0
 18 38  1  0
 19 20  1  0
 19 39  1  0
 19 40  1  0
 20 21  1  0
 20 41  1  0
 20 42  1  0
 21 46  1  6
 22 23  1  6
 22 24  1  0
 23 43  1  0
 23 44  1  0
 23 45  1  0
 24 25  2  0
M  CHG  2   6  -1  21   1
M  END
>  <i_m_ct_stereo_status>  (30) 
1

>  <s_m_source_file>  (30) 
/var/tmp/pbs.5076255.sched01/tmp5t01l7na/0y8cq_bsf.sdf

>  <i_m_source_file_index>  (30) 
27

>  <i_lp_mmshare_version>  (30) 
48012

>  <i_f3d_flags>  (30) 
0

>  <s_epik_input>  (30) 
Tz1DMU4oW0NIM10pQyg9TylbQ0BAXShbQ0gzXSkoQz0yW0NAQF0xM1tPSF0pW0NAXShbQ0gzXSkoW0NASF00TjNbQ0gyXVtDSDJdW0NIMl00KWM1YyhOMilbY0hdW2NIXVtjSF1bY0hdNQ==

>  <s_epik_cmdline>  (30) 
J2VwaWtfcHl0aG9uJywgJy1waHQnLCAnMi4wJywgJy1waCcsICc3LjAnLCAnLXRuJywgJzgnLCAnLW1hJywgJzIwMCcsICctaW1hZScsICc8aW5maWxlLm1hZT4nLCAnLW9tYWUnLCAnPG91dGZpbGUubWFlPic=

>  <r_epik_Ionization_Penalty>  (30) 
0.0164494

>  <r_epik_Ionization_Penalty_Charging>  (30) 
0.015725

>  <r_epik_Ionization_Penalty_Neutral>  (30) 
0.000724322

>  <r_epik_State_Penalty>  (30) 
0.259447

>  <r_epik_Charging_Adjusted_Penalty>  (30) 
0.275172

>  <i_epik_Tot_Q>  (30) 
0

>  <i_epik_Tot_abs_Q>  (30) 
2

>  <s_epik_Chemistry_Notes>  (30) 
This compound has an imine and may undergo hydrolysis.

>  <s_lp_Force_Field>  (30) 
OPLS3e

>  <r_lp_Energy>  (30) 
115.157

>  <b_lp_Chiralities_Consistent>  (30) 
1

>  <s_lp_Variant>  (30) 
10:0-1

>  <s_i_glide_gridfile>  (30) 
pfpi4k_grid

>  <i_i_glide_lignum>  (30) 
27

>  <i_i_glide_rotatable_bonds>  (30) 
0

>  <r_i_docking_score>  (30) 
-3.59755

>  <r_i_glide_ligand_efficiency>  (30) 
-0.143902

>  <r_i_glide_ligand_efficiency_sa>  (30) 
-0.420772

>  <r_i_glide_ligand_efficiency_ln>  (30) 
-0.852728

>  <r_i_glide_gscore>  (30) 
-3.59755

>  <r_i_glide_lipo>  (30) 
-0.611105

>  <r_i_glide_hbond>  (30) 
-0.211976

>  <r_i_glide_metal>  (30) 
-0

>  <r_i_glide_rewards>  (30) 
-1.55896

>  <r_i_glide_evdw>  (30) 
-2.45098

>  <r_i_glide_ecoul>  (30) 
-6.53549

>  <r_i_glide_erotb>  (30) 
0

>  <r_i_glide_esite>  (30) 
-0.112637

>  <r_i_glide_emodel>  (30) 
-9.52658

>  <r_i_glide_energy>  (30) 
-8.98647

>  <r_i_glide_einternal>  (30) 
0

>  <r_i_glide_intrahb_reward>  (30) 
-0

>  <i_i_glide_confnum>  (30) 
1

>  <i_i_glide_posenum>  (30) 
5

>  <r_i_glide_eff_state_penalty>  (30) 
0

>  <ligand_id>  (30) 
10

>  <original_smiles>  (30) 
CN1C(=O)C2(O)C3=Nc4ccccc4C(C)(C4CCCN42)C3(C)C1=O

>  <smiles>  (30) 
[H]c1c([H])c([H])c2c(c1[H])N=C1C3(C([H])([H])[H])C(=O)N(C([H])([H])[H])C(=O)C1([O-])[N+]1([H])C([H])([H])C([H])([H])C([H])([H])C1([H])C23C([H])([H])[H]

$$$$
10:1:0
     RDKit          3D

 46 50  0  0  1  0  0  0  0  0999 V2000
    6.1422   -5.5385    2.1171 C   0  0  0  0  0  0  0  0  0  0  0  0
    5.3297   -4.8220    1.1173 N   0  0  0  0  0  0  0  0  0  0  0  0
    3.9920   -4.7460    1.2954 C   0  0  0  0  0  0  0  0  0  0  0  0
    3.4149   -5.2876    2.2291 O   0  0  0  0  0  0  0  0  0  0  0  0
    3.1452   -3.9084    0.3221 C   0  0  2  0  0  0  0  0  0  0  0  0
    1.8856   -4.5484    0.2453 O   0  0  0  0  0  0  0  0  0  0  0  0
    3.6845   -3.8548   -1.0676 C   0  0  0  0  0  0  0  0  0  0  0  0
    2.8796   -3.4659   -1.9825 N   0  0  0  0  0  0  0  0  0  0  0  0
    3.2292   -2.2955   -2.6537 C   0  0  0  0  0  0  0  0  0  0  0  0
    2.5434   -1.9301   -3.8198 C   0  0  0  0  0  0  0  0  0  0  0  0
    2.7588   -0.6700   -4.4054 C   0  0  0  0  0  0  0  0  0  0  0  0
    3.7309    0.1803   -3.8884 C   0  0  0  0  0  0  0  0  0  0  0  0
    4.4684   -0.2141   -2.7439 C   0  0  0  0  0  0  0  0  0  0  0  0
    4.2283   -1.4288   -2.1166 C   0  0  0  0  0  0  0  0  0  0  0  0
    4.9894   -1.9374   -0.8573 C   0  0  1  0  0  0  0  0  0  0  0  0
    6.3836   -1.3446   -0.8148 C   0  0  0  0  0  0  0  0  0  0  0  0
    4.1708   -1.5695    0.4396 C   0  0  2  0  0  0  0  0  0  0  0  0
    4.9509   -1.4301    1.7560 C   0  0  0  0  0  0  0  0  0  0  0  0
    3.9404   -1.7575    2.8305 C   0  0  0  0  0  0  0  0  0  0  0  0
    2.6486   -2.1552    2.1107 C   0  0  0  0  0  0  0  0  0  0  0  0
    3.0107   -2.4784    0.7269 N   0  0  0  0  0  0  0  0  0  0  0  0
    5.1491   -3.4690   -1.0447 C   0  0  2  0  0  0  0  0  0  0  0  0
    5.7689   -3.8364   -2.4058 C   0  0  0  0  0  0  0  0  0  0  0  0
    5.9642   -4.1953    0.0930 C   0  0  0  0  0  0  0  0  0  0  0  0
    7.1930   -4.1831    0.0395 O   0  0  0  0  0  0  0  0  0  0  0  0
    5.5810   -6.0491    2.9063 H   0  0  0  0  0  0  0  0  0  0  0  0
    6.7955   -4.8354    2.6199 H   0  0  0  0  0  0  0  0  0  0  0  0
    6.7552   -6.2957    1.6320 H   0  0  0  0  0  0  0  0  0  0  0  0
    1.8617   -4.9560   -0.6011 H   0  0  0  0  0  0  0  0  0  0  0  0
    1.7304   -2.5478   -4.1777 H   0  0  0  0  0  0  0  0  0  0  0  0
    2.1040   -0.2970   -5.1752 H   0  0  0  0  0  0  0  0  0  0  0  0
    3.8312    1.1846   -4.2657 H   0  0  0  0  0  0  0  0  0  0  0  0
    5.1438    0.5028   -2.3441 H   0  0  0  0  0  0  0  0  0  0  0  0
    7.0611   -1.7180   -0.0427 H   0  0  0  0  0  0  0  0  0  0  0  0
    6.2439   -0.2942   -0.6770 H   0  0  0  0  0  0  0  0  0  0  0  0
    6.8553   -1.5118   -1.7795 H   0  0  0  0  0  0  0  0  0  0  0  0
    3.7405   -0.5812    0.2801 H   0  0  0  0  0  0  0  0  0  0  0  0
    5.8086   -2.0942    1.8486 H   0  0  0  0  0  0  0  0  0  0  0  0
    5.3562   -0.4183    1.8492 H   0  0  0  0  0  0  0  0  0  0  0  0
    4.3042   -2.5777    3.4499 H   0  0  0  0  0  0  0  0  0  0  0  0
    3.7843   -0.9036    3.4839 H   0  0  0  0  0  0  0  0  0  0  0  0
    2.0632   -2.9200    2.6111 H   0  0  0  0  0  0  0  0  0  0  0  0
    2.0305   -1.2576    2.0397 H   0  0  0  0  0  0  0  0  0  0  0  0
    5.4397   -4.8813   -2.4798 H   0  0  0  0  0  0  0  0  0  0  0  0
    6.8526   -3.7093   -2.4628 H   0  0  0  0  0  0  0  0  0  0  0  0
    5.3485   -3.4118   -3.3106 H   0  0  0  0  0  0  0  0  0  0  0  0
  1  2  1  0
  1 26  1  0
  1 27  1  0
  1 28  1  0
  2 24  1  0
  2  3  1  0
  3  4  2  0
  3  5  1  0
  5 21  1  0
  5  6  1  6
  5  7  1  0
  6 29  1  0
  7 22  1  0
  7  8  2  0
  8  9  1  0
  9 14  2  0
  9 10  1  0
 10 11  2  0
 10 30  1  0
 11 12  1  0
 11 31  1  0
 12 13  2  0
 12 32  1  0
 13 14  1  0
 13 33  1  0
 14 15  1  0
 15 16  1  1
 15 17  1  0
 15 22  1  0
 16 34  1  0
 16 35  1  0
 16 36  1  0
 17 21  1  0
 17 18  1  0
 17 37  1  6
 18 19  1  0
 18 38  1  0
 18 39  1  0
 19 20  1  0
 19 40  1  0
 19 41  1  0
 20 21  1  0
 20 42  1  0
 20 43  1  0
 22 23  1  6
 22 24  1  0
 23 44  1  0
 23 45  1  0
 23 46  1  0
 24 25  2  0
M  END
>  <i_m_ct_stereo_status>  (31) 
1

>  <s_m_source_file>  (31) 
/var/tmp/pbs.5076255.sched01/tmp5t01l7na/0y8cq_bsf.sdf

>  <i_m_source_file_index>  (31) 
28

>  <i_lp_mmshare_version>  (31) 
48012

>  <i_f3d_flags>  (31) 
0

>  <s_epik_input>  (31) 
Tz1DMU4oW0NIM10pQyg9TylbQ0BAXShbQ0gzXSkoQz0yW0NAQF0xM1tPSF0pW0NAXShbQ0gzXSkoW0NASF00TjNbQ0gyXVtDSDJdW0NIMl00KWM1YyhOMilbY0hdW2NIXVtjSF1bY0hdNQ==

>  <s_epik_cmdline>  (31) 
J2VwaWtfcHl0aG9uJywgJy1waHQnLCAnMi4wJywgJy1waCcsICc3LjAnLCAnLXRuJywgJzgnLCAnLW1hJywgJzIwMCcsICctaW1hZScsICc8aW5maWxlLm1hZT4nLCAnLW9tYWUnLCAnPG91dGZpbGUubWFlPic=

>  <r_epik_Ionization_Penalty>  (31) 
0.0292315

>  <r_epik_Ionization_Penalty_Charging>  (31) 
0

>  <r_epik_Ionization_Penalty_Neutral>  (31) 
0.0292315

>  <r_epik_State_Penalty>  (31) 
0.63343

>  <r_epik_Charging_Adjusted_Penalty>  (31) 
0.63343

>  <i_epik_Tot_Q>  (31) 
0

>  <i_epik_Tot_abs_Q>  (31) 
0

>  <s_epik_Chemistry_Notes>  (31) 
This compound has an imine and may undergo hydrolysis.

>  <s_lp_Force_Field>  (31) 
OPLS3e

>  <r_lp_Energy>  (31) 
102.944

>  <b_lp_Chiralities_Consistent>  (31) 
1

>  <s_lp_Variant>  (31) 
10:0-2

>  <s_i_glide_gridfile>  (31) 
pfpi4k_grid

>  <i_i_glide_lignum>  (31) 
28

>  <i_i_glide_rotatable_bonds>  (31) 
1

>  <r_i_docking_score>  (31) 
-2.65122

>  <r_i_glide_ligand_efficiency>  (31) 
-0.106049

>  <r_i_glide_ligand_efficiency_sa>  (31) 
-0.310089

>  <r_i_glide_ligand_efficiency_ln>  (31) 
-0.628419

>  <r_i_glide_gscore>  (31) 
-2.65122

>  <r_i_glide_lipo>  (31) 
-0.701412

>  <r_i_glide_hbond>  (31) 
0

>  <r_i_glide_metal>  (31) 
-0

>  <r_i_glide_rewards>  (31) 
-1.29419

>  <r_i_glide_evdw>  (31) 
-6.91673

>  <r_i_glide_ecoul>  (31) 
-1.88539

>  <r_i_glide_erotb>  (31) 
0

>  <r_i_glide_esite>  (31) 
-0.0269759

>  <r_i_glide_emodel>  (31) 
-7.58203

>  <r_i_glide_energy>  (31) 
-8.80212

>  <r_i_glide_einternal>  (31) 
0.497548

>  <r_i_glide_intrahb_reward>  (31) 
-0

>  <i_i_glide_confnum>  (31) 
2

>  <i_i_glide_posenum>  (31) 
32

>  <r_i_glide_eff_state_penalty>  (31) 
0

>  <ligand_id>  (31) 
10

>  <original_smiles>  (31) 
CN1C(=O)C2(O)C3=Nc4ccccc4C(C)(C4CCCN42)C3(C)C1=O

>  <smiles>  (31) 
[H]OC12C(=O)N(C([H])([H])[H])C(=O)C3(C([H])([H])[H])C1=Nc1c([H])c([H])c([H])c([H])c1C3(C([H])([H])[H])C1([H])N2C([H])([H])C([H])([H])C1([H])[H]

$$$$
10:1:1
     RDKit          3D

 46 50  0  0  1  0  0  0  0  0999 V2000
    5.5211   -4.6269    3.5736 C   0  0  0  0  0  0  0  0  0  0  0  0
    4.9098   -4.2434    2.2960 N   0  0  0  0  0  0  0  0  0  0  0  0
    3.6049   -4.4978    2.0647 C   0  0  0  0  0  0  0  0  0  0  0  0
    2.8882   -5.0787    2.8967 O   0  0  0  0  0  0  0  0  0  0  0  0
    2.9382   -3.9963    0.7852 C   0  0  2  0  0  0  0  0  0  0  0  0
    1.8542   -4.8646    0.4572 O   0  0  0  0  0  0  0  0  0  0  0  0
    3.8969   -3.9537   -0.3724 C   0  0  0  0  0  0  0  0  0  0  0  0
    3.3337   -3.8503   -1.5097 N   0  0  0  0  0  0  0  0  0  0  0  0
    3.5500   -2.6821   -2.2452 C   0  0  0  0  0  0  0  0  0  0  0  0
    3.1065   -2.5823   -3.5833 C   0  0  0  0  0  0  0  0  0  0  0  0
    3.2587   -1.3524   -4.2742 C   0  0  0  0  0  0  0  0  0  0  0  0
    3.8043   -0.2350   -3.6532 C   0  0  0  0  0  0  0  0  0  0  0  0
    4.2624   -0.3644   -2.3478 C   0  0  0  0  0  0  0  0  0  0  0  0
    4.1572   -1.5585   -1.6206 C   0  0  0  0  0  0  0  0  0  0  0  0
    4.6416   -1.7117   -0.1521 C   0  0  1  0  0  0  0  0  0  0  0  0
    5.7913   -0.7157    0.1442 C   0  0  0  0  0  0  0  0  0  0  0  0
    3.4039   -1.4749    0.8127 C   0  0  2  0  0  0  0  0  0  0  0  0
    3.6706   -1.0063    2.2554 C   0  0  0  0  0  0  0  0  0  0  0  0
    2.4683   -1.4783    3.0566 C   0  0  0  0  0  0  0  0  0  0  0  0
    1.5903   -2.2486    2.0699 C   0  0  0  0  0  0  0  0  0  0  0  0
    2.4233   -2.5987    0.9160 N   0  0  0  0  0  0  0  0  0  0  0  0
    5.1449   -3.1794   -0.0254 C   0  0  2  0  0  0  0  0  0  0  0  0
    6.2705   -3.5437   -1.0277 C   0  0  0  0  0  0  0  0  0  0  0  0
    5.6631   -3.5891    1.3783 C   0  0  0  0  0  0  0  0  0  0  0  0
    6.8372   -3.3274    1.6263 O   0  0  0  0  0  0  0  0  0  0  0  0
    4.8780   -5.2015    4.2415 H   0  0  0  0  0  0  0  0  0  0  0  0
    5.8159   -3.7297    4.1210 H   0  0  0  0  0  0  0  0  0  0  0  0
    6.4034   -5.2400    3.3872 H   0  0  0  0  0  0  0  0  0  0  0  0
    2.1544   -5.3911   -0.2728 H   0  0  0  0  0  0  0  0  0  0  0  0
    2.6391   -3.4261   -4.0774 H   0  0  0  0  0  0  0  0  0  0  0  0
    2.9717   -1.1483   -5.2733 H   0  0  0  0  0  0  0  0  0  0  0  0
    3.8295    0.7098   -4.1704 H   0  0  0  0  0  0  0  0  0  0  0  0
    4.6229    0.5171   -1.9190 H   0  0  0  0  0  0  0  0  0  0  0  0
    6.2762   -0.8701    1.1036 H   0  0  0  0  0  0  0  0  0  0  0  0
    5.4277    0.2997    0.1678 H   0  0  0  0  0  0  0  0  0  0  0  0
    6.5641   -0.7957   -0.6109 H   0  0  0  0  0  0  0  0  0  0  0  0
    2.8323   -0.6443    0.3925 H   0  0  0  0  0  0  0  0  0  0  0  0
    4.5802   -1.4092    2.6938 H   0  0  0  0  0  0  0  0  0  0  0  0
    3.7745    0.0801    2.2997 H   0  0  0  0  0  0  0  0  0  0  0  0
    2.7750   -2.1252    3.8740 H   0  0  0  0  0  0  0  0  0  0  0  0
    1.9347   -0.6396    3.5008 H   0  0  0  0  0  0  0  0  0  0  0  0
    1.0553   -3.0858    2.5276 H   0  0  0  0  0  0  0  0  0  0  0  0
    0.8379   -1.5479    1.7045 H   0  0  0  0  0  0  0  0  0  0  0  0
    6.4470   -4.5975   -0.8400 H   0  0  0  0  0  0  0  0  0  0  0  0
    7.2114   -3.0208   -0.8491 H   0  0  0  0  0  0  0  0  0  0  0  0
    6.0322   -3.4135   -2.0860 H   0  0  0  0  0  0  0  0  0  0  0  0
  1  2  1  0
  1 26  1  0
  1 27  1  0
  1 28  1  0
  2 24  1  0
  2  3  1  0
  3  4  2  0
  3  5  1  0
  5 21  1  0
  5  6  1  6
  5  7  1  0
  6 29  1  0
  7 22  1  0
  7  8  2  0
  8  9  1  0
  9 14  2  0
  9 10  1  0
 10 11  2  0
 10 30  1  0
 11 12  1  0
 11 31  1  0
 12 13  2  0
 12 32  1  0
 13 14  1  0
 13 33  1  0
 14 15  1  0
 15 16  1  1
 15 17  1  0
 15 22  1  0
 16 34  1  0
 16 35  1  0
 16 36  1  0
 17 21  1  0
 17 18  1  0
 17 37  1  6
 18 19  1  0
 18 38  1  0
 18 39  1  0
 19 20  1  0
 19 40  1  0
 19 41  1  0
 20 21  1  0
 20 42  1  0
 20 43  1  0
 22 23  1  6
 22 24  1  0
 23 44  1  0
 23 45  1  0
 23 46  1  0
 24 25  2  0
M  END
>  <i_m_ct_stereo_status>  (32) 
1

>  <s_m_source_file>  (32) 
/var/tmp/pbs.5076255.sched01/tmp5t01l7na/0y8cq_bsf.sdf

>  <i_m_source_file_index>  (32) 
28

>  <i_lp_mmshare_version>  (32) 
48012

>  <i_f3d_flags>  (32) 
0

>  <s_epik_input>  (32) 
Tz1DMU4oW0NIM10pQyg9TylbQ0BAXShbQ0gzXSkoQz0yW0NAQF0xM1tPSF0pW0NAXShbQ0gzXSkoW0NASF00TjNbQ0gyXVtDSDJdW0NIMl00KWM1YyhOMilbY0hdW2NIXVtjSF1bY0hdNQ==

>  <s_epik_cmdline>  (32) 
J2VwaWtfcHl0aG9uJywgJy1waHQnLCAnMi4wJywgJy1waCcsICc3LjAnLCAnLXRuJywgJzgnLCAnLW1hJywgJzIwMCcsICctaW1hZScsICc8aW5maWxlLm1hZT4nLCAnLW9tYWUnLCAnPG91dGZpbGUubWFlPic=

>  <r_epik_Ionization_Penalty>  (32) 
0.0292315

>  <r_epik_Ionization_Penalty_Charging>  (32) 
0

>  <r_epik_Ionization_Penalty_Neutral>  (32) 
0.0292315

>  <r_epik_State_Penalty>  (32) 
0.63343

>  <r_epik_Charging_Adjusted_Penalty>  (32) 
0.63343

>  <i_epik_Tot_Q>  (32) 
0

>  <i_epik_Tot_abs_Q>  (32) 
0

>  <s_epik_Chemistry_Notes>  (32) 
This compound has an imine and may undergo hydrolysis.

>  <s_lp_Force_Field>  (32) 
OPLS3e

>  <r_lp_Energy>  (32) 
102.944

>  <b_lp_Chiralities_Consistent>  (32) 
1

>  <s_lp_Variant>  (32) 
10:0-2

>  <s_i_glide_gridfile>  (32) 
pfpi4k_grid

>  <i_i_glide_lignum>  (32) 
28

>  <i_i_glide_rotatable_bonds>  (32) 
1

>  <r_i_docking_score>  (32) 
-2.64386

>  <r_i_glide_ligand_efficiency>  (32) 
-0.105754

>  <r_i_glide_ligand_efficiency_sa>  (32) 
-0.309227

>  <r_i_glide_ligand_efficiency_ln>  (32) 
-0.626673

>  <r_i_glide_gscore>  (32) 
-2.64386

>  <r_i_glide_lipo>  (32) 
-0.720547

>  <r_i_glide_hbond>  (32) 
0

>  <r_i_glide_metal>  (32) 
-0

>  <r_i_glide_rewards>  (32) 
-1.22234

>  <r_i_glide_evdw>  (32) 
-6.87412

>  <r_i_glide_ecoul>  (32) 
-2.2226

>  <r_i_glide_erotb>  (32) 
0

>  <r_i_glide_esite>  (32) 
-0.0238776

>  <r_i_glide_emodel>  (32) 
-8.42641

>  <r_i_glide_energy>  (32) 
-9.09673

>  <r_i_glide_einternal>  (32) 
0.45963

>  <r_i_glide_intrahb_reward>  (32) 
-0

>  <i_i_glide_confnum>  (32) 
1

>  <i_i_glide_posenum>  (32) 
11

>  <r_i_glide_eff_state_penalty>  (32) 
0

>  <ligand_id>  (32) 
10

>  <original_smiles>  (32) 
CN1C(=O)C2(O)C3=Nc4ccccc4C(C)(C4CCCN42)C3(C)C1=O

>  <smiles>  (32) 
[H]OC12C(=O)N(C([H])([H])[H])C(=O)C3(C([H])([H])[H])C1=Nc1c([H])c([H])c([H])c([H])c1C3(C([H])([H])[H])C1([H])N2C([H])([H])C([H])([H])C1([H])[H]

$$$$
10:2:0
     RDKit          3D

 47 51  0  0  1  0  0  0  0  0999 V2000
    4.5715   -0.1134    0.7295 C   0  0  0  0  0  0  0  0  0  0  0  0
    4.1202   -1.5051    0.6636 N   0  0  0  0  0  0  0  0  0  0  0  0
    3.5946   -1.9739   -0.4964 C   0  0  0  0  0  0  0  0  0  0  0  0
    3.5118   -1.2795   -1.5064 O   0  0  0  0  0  0  0  0  0  0  0  0
    3.1864   -3.4621   -0.6418 C   0  0  2  0  0  0  0  0  0  0  0  0
    2.2244   -3.6131   -1.6922 O   0  0  0  0  0  0  0  0  0  0  0  0
    2.7814   -4.0891    0.6992 C   0  0  0  0  0  0  0  0  0  0  0  0
    2.1933   -5.2194    0.6467 N   0  0  0  0  0  0  0  0  0  0  0  0
    2.9051   -6.3237    1.1647 C   0  0  0  0  0  0  0  0  0  0  0  0
    2.2446   -7.5674    1.2954 C   0  0  0  0  0  0  0  0  0  0  0  0
    2.9499   -8.7125    1.7135 C   0  0  0  0  0  0  0  0  0  0  0  0
    4.3209   -8.6359    2.0160 C   0  0  0  0  0  0  0  0  0  0  0  0
    4.9924   -7.3997    1.9081 C   0  0  0  0  0  0  0  0  0  0  0  0
    4.2954   -6.2314    1.4961 C   0  0  0  0  0  0  0  0  0  0  0  0
    4.9545   -4.8341    1.3981 C   0  0  1  0  0  0  0  0  0  0  0  0
    6.1743   -4.7639    2.3602 C   0  0  0  0  0  0  0  0  0  0  0  0
    5.4129   -4.6194   -0.1145 C   0  0  2  0  0  0  0  0  0  0  0  0
    6.5635   -3.6440   -0.3967 C   0  0  0  0  0  0  0  0  0  0  0  0
    6.3834   -3.2196   -1.8685 C   0  0  0  0  0  0  0  0  0  0  0  0
    5.0464   -3.8222   -2.3260 C   0  0  0  0  0  0  0  0  0  0  0  0
    4.3328   -4.2915   -1.1174 N   0  0  2  0  0  0  0  0  0  0  0  0
    3.8453   -3.7768    1.7795 C   0  0  2  0  0  0  0  0  0  0  0  0
    3.2325   -3.9817    3.1970 C   0  0  0  0  0  0  0  0  0  0  0  0
    4.3367   -2.2909    1.7503 C   0  0  0  0  0  0  0  0  0  0  0  0
    4.9534   -1.8514    2.7361 O   0  0  0  0  0  0  0  0  0  0  0  0
    4.3555    0.4711   -0.1638 H   0  0  0  0  0  0  0  0  0  0  0  0
    5.6523   -0.0504    0.8843 H   0  0  0  0  0  0  0  0  0  0  0  0
    4.0747    0.4327    1.5350 H   0  0  0  0  0  0  0  0  0  0  0  0
    2.2145   -4.4848   -2.0569 H   0  0  0  0  0  0  0  0  0  0  0  0
    1.2069   -7.6654    1.0361 H   0  0  0  0  0  0  0  0  0  0  0  0
    2.4560   -9.6638    1.7843 H   0  0  0  0  0  0  0  0  0  0  0  0
    4.8543   -9.5182    2.3271 H   0  0  0  0  0  0  0  0  0  0  0  0
    6.0375   -7.3771    2.1578 H   0  0  0  0  0  0  0  0  0  0  0  0
    6.6019   -3.7674    2.3944 H   0  0  0  0  0  0  0  0  0  0  0  0
    6.9838   -5.4402    2.0849 H   0  0  0  0  0  0  0  0  0  0  0  0
    5.8676   -5.0163    3.3770 H   0  0  0  0  0  0  0  0  0  0  0  0
    5.8013   -5.5847   -0.4409 H   0  0  0  0  0  0  0  0  0  0  0  0
    6.5509   -2.7544    0.2300 H   0  0  0  0  0  0  0  0  0  0  0  0
    7.5269   -4.1296   -0.2488 H   0  0  0  0  0  0  0  0  0  0  0  0
    6.3529   -2.1370   -1.9346 H   0  0  0  0  0  0  0  0  0  0  0  0
    7.1960   -3.5598   -2.4885 H   0  0  0  0  0  0  0  0  0  0  0  0
    4.4753   -3.1782   -3.0012 H   0  0  0  0  0  0  0  0  0  0  0  0
    5.2699   -4.7133   -2.9074 H   0  0  0  0  0  0  0  0  0  0  0  0
    2.4224   -3.2757    3.3437 H   0  0  0  0  0  0  0  0  0  0  0  0
    3.9515   -3.8162    4.0023 H   0  0  0  0  0  0  0  0  0  0  0  0
    2.8086   -4.9718    3.3662 H   0  0  0  0  0  0  0  0  0  0  0  0
    3.8711   -5.1670   -1.3740 H   0  0  0  0  0  0  0  0  0  0  0  0
  1  2  1  0
  1 26  1  0
  1 27  1  0
  1 28  1  0
  2 24  1  0
  2  3  1  0
  3  4  2  0
  3  5  1  0
  5 21  1  0
  5  6  1  6
  5  7  1  0
  6 29  1  0
  7 22  1  0
  7  8  2  0
  8  9  1  0
  9 14  2  0
  9 10  1  0
 10 11  2  0
 10 30  1  0
 11 12  1  0
 11 31  1  0
 12 13  2  0
 12 32  1  0
 13 14  1  0
 13 33  1  0
 14 15  1  0
 15 16  1  1
 15 17  1  0
 15 22  1  0
 16 34  1  0
 16 35  1  0
 16 36  1  0
 17 21  1  0
 17 18  1  0
 17 37  1  6
 18 19  1  0
 18 38  1  0
 18 39  1  0
 19 20  1  0
 19 40  1  0
 19 41  1  0
 20 21  1  0
 20 42  1  0
 20 43  1  0
 21 47  1  6
 22 23  1  1
 22 24  1  0
 23 44  1  0
 23 45  1  0
 23 46  1  0
 24 25  2  0
M  CHG  1  21   1
M  END
>  <i_m_ct_stereo_status>  (33) 
1

>  <s_m_source_file>  (33) 
/var/tmp/pbs.5076255.sched01/tmp5t01l7na/0y8cq_bsf.sdf

>  <i_m_source_file_index>  (33) 
29

>  <i_lp_mmshare_version>  (33) 
48012

>  <i_f3d_flags>  (33) 
0

>  <s_epik_input>  (33) 
Tz1DMU4oW0NIM10pQyg9TylbQ0BAXShbQ0gzXSkoQz0yW0NAQF0xM1tPSF0pW0NAXShbQ0gzXSkoW0NASF00TjNbQ0gyXVtDSDJdW0NIMl00KWM1YyhOMilbY0hdW2NIXVtjSF1bY0hdNQ==

>  <s_epik_cmdline>  (33) 
J2VwaWtfcHl0aG9uJywgJy1waHQnLCAnMi4wJywgJy1waCcsICc3LjAnLCAnLXRuJywgJzgnLCAnLW1hJywgJzIwMCcsICctaW1hZScsICc8aW5maWxlLm1hZT4nLCAnLW9tYWUnLCAnPG91dGZpbGUubWFlPic=

>  <r_epik_Ionization_Penalty>  (33) 
4.17926

>  <r_epik_Ionization_Penalty_Charging>  (33) 
1.9196

>  <r_epik_Ionization_Penalty_Neutral>  (33) 
2.25966

>  <r_epik_State_Penalty>  (33) 
2.65654

>  <r_epik_Charging_Adjusted_Penalty>  (33) 
4.57614

>  <i_epik_Tot_Q>  (33) 
1

>  <i_epik_Tot_abs_Q>  (33) 
1

>  <s_epik_Chemistry_Notes>  (33) 
This compound has an imine and may undergo hydrolysis.

>  <s_lp_Force_Field>  (33) 
OPLS3e

>  <r_lp_Energy>  (33) 
115.838

>  <b_lp_Chiralities_Consistent>  (33) 
1

>  <s_lp_Variant>  (33) 
10:0-3

>  <s_i_glide_gridfile>  (33) 
pfpi4k_grid

>  <i_i_glide_lignum>  (33) 
29

>  <i_i_glide_rotatable_bonds>  (33) 
1

>  <r_i_docking_score>  (33) 
-4.40069

>  <r_i_glide_ligand_efficiency>  (33) 
-0.176028

>  <r_i_glide_ligand_efficiency_sa>  (33) 
-0.514708

>  <r_i_glide_ligand_efficiency_ln>  (33) 
-1.0431

>  <r_i_glide_gscore>  (33) 
-4.40069

>  <r_i_glide_lipo>  (33) 
-0.566912

>  <r_i_glide_hbond>  (33) 
-0.0214929

>  <r_i_glide_metal>  (33) 
-0

>  <r_i_glide_rewards>  (33) 
-1.1785

>  <r_i_glide_evdw>  (33) 
-20.3719

>  <r_i_glide_ecoul>  (33) 
-9.78624

>  <r_i_glide_erotb>  (33) 
0

>  <r_i_glide_esite>  (33) 
-0.147261

>  <r_i_glide_emodel>  (33) 
-37.4819

>  <r_i_glide_energy>  (33) 
-30.1581

>  <r_i_glide_einternal>  (33) 
0.59035

>  <r_i_glide_intrahb_reward>  (33) 
-0

>  <i_i_glide_confnum>  (33) 
2

>  <i_i_glide_posenum>  (33) 
1

>  <r_i_glide_eff_state_penalty>  (33) 
0

>  <ligand_id>  (33) 
10

>  <original_smiles>  (33) 
CN1C(=O)C2(O)C3=Nc4ccccc4C(C)(C4CCCN42)C3(C)C1=O

>  <smiles>  (33) 
[H]OC12C(=O)N(C([H])([H])[H])C(=O)C3(C([H])([H])[H])C1=Nc1c([H])c([H])c([H])c([H])c1C3(C([H])([H])[H])C1([H])C([H])([H])C([H])([H])C([H])([H])[N+]21[H]

$$$$
10:2:1
     RDKit          3D

 47 51  0  0  1  0  0  0  0  0999 V2000
    5.7749   -5.4031    1.9889 C   0  0  0  0  0  0  0  0  0  0  0  0
    5.0256   -4.7394    0.9088 N   0  0  0  0  0  0  0  0  0  0  0  0
    3.6731   -4.7452    0.9460 C   0  0  0  0  0  0  0  0  0  0  0  0
    3.0171   -5.3207    1.8290 O   0  0  0  0  0  0  0  0  0  0  0  0
    2.8995   -3.9542   -0.1107 C   0  0  2  0  0  0  0  0  0  0  0  0
    1.6871   -4.6054   -0.3443 O   0  0  0  0  0  0  0  0  0  0  0  0
    3.5880   -3.8210   -1.4121 C   0  0  0  0  0  0  0  0  0  0  0  0
    2.8368   -3.4483   -2.3891 N   0  0  0  0  0  0  0  0  0  0  0  0
    3.1303   -2.2231   -2.9488 C   0  0  0  0  0  0  0  0  0  0  0  0
    2.5029   -1.8493   -4.1215 C   0  0  0  0  0  0  0  0  0  0  0  0
    2.7091   -0.5746   -4.6920 C   0  0  0  0  0  0  0  0  0  0  0  0
    3.5953    0.3084   -4.1108 C   0  0  0  0  0  0  0  0  0  0  0  0
    4.2235   -0.0920   -2.9377 C   0  0  0  0  0  0  0  0  0  0  0  0
    4.0094   -1.3299   -2.3101 C   0  0  0  0  0  0  0  0  0  0  0  0
    4.7248   -1.8009   -1.0276 C   0  0  1  0  0  0  0  0  0  0  0  0
    6.0596   -1.0908   -0.8690 C   0  0  0  0  0  0  0  0  0  0  0  0
    3.7596   -1.5508    0.1955 C   0  0  2  0  0  0  0  0  0  0  0  0
    4.3793   -1.4226    1.5898 C   0  0  0  0  0  0  0  0  0  0  0  0
    3.2560   -1.7790    2.5608 C   0  0  0  0  0  0  0  0  0  0  0  0
    2.0888   -2.2786    1.7069 C   0  0  0  0  0  0  0  0  0  0  0  0
    2.6085   -2.5223    0.3347 N   0  0  2  0  0  0  0  0  0  0  0  0
    4.9998   -3.3252   -1.2288 C   0  0  2  0  0  0  0  0  0  0  0  0
    5.7770   -3.6165   -2.5345 C   0  0  0  0  0  0  0  0  0  0  0  0
    5.7258   -4.0592   -0.0447 C   0  0  0  0  0  0  0  0  0  0  0  0
    6.9588   -3.9905    0.0068 O   0  0  0  0  0  0  0  0  0  0  0  0
    5.1693   -5.8861    2.7558 H   0  0  0  0  0  0  0  0  0  0  0  0
    6.3936   -4.6717    2.5032 H   0  0  0  0  0  0  0  0  0  0  0  0
    6.4158   -6.1693    1.5627 H   0  0  0  0  0  0  0  0  0  0  0  0
    1.7608   -5.0007   -1.2028 H   0  0  0  0  0  0  0  0  0  0  0  0
    1.7807   -2.5177   -4.5657 H   0  0  0  0  0  0  0  0  0  0  0  0
    2.1560   -0.2560   -5.5489 H   0  0  0  0  0  0  0  0  0  0  0  0
    3.7321    1.3158   -4.5032 H   0  0  0  0  0  0  0  0  0  0  0  0
    4.9381    0.5623   -2.4905 H   0  0  0  0  0  0  0  0  0  0  0  0
    6.6695   -1.4890   -0.0657 H   0  0  0  0  0  0  0  0  0  0  0  0
    5.9157   -0.0367   -0.6525 H   0  0  0  0  0  0  0  0  0  0  0  0
    6.6125   -1.2502   -1.7902 H   0  0  0  0  0  0  0  0  0  0  0  0
    3.2602   -0.5987    0.0169 H   0  0  0  0  0  0  0  0  0  0  0  0
    5.2207   -2.0966    1.7513 H   0  0  0  0  0  0  0  0  0  0  0  0
    4.7463   -0.4097    1.7392 H   0  0  0  0  0  0  0  0  0  0  0  0
    3.5949   -2.5524    3.2439 H   0  0  0  0  0  0  0  0  0  0  0  0
    2.9661   -0.9187    3.1632 H   0  0  0  0  0  0  0  0  0  0  0  0
    1.5242   -3.0941    2.1637 H   0  0  0  0  0  0  0  0  0  0  0  0
    1.3943   -1.4482    1.6072 H   0  0  0  0  0  0  0  0  0  0  0  0
    5.6525   -4.6647   -2.6478 H   0  0  0  0  0  0  0  0  0  0  0  0
    6.8339   -3.3814   -2.4922 H   0  0  0  0  0  0  0  0  0  0  0  0
    5.3567   -3.2561   -3.4706 H   0  0  0  0  0  0  0  0  0  0  0  0
    1.9094   -2.1719   -0.3139 H   0  0  0  0  0  0  0  0  0  0  0  0
  1  2  1  0
  1 26  1  0
  1 27  1  0
  1 28  1  0
  2 24  1  0
  2  3  1  0
  3  4  2  0
  3  5  1  0
  5 21  1  0
  5  6  1  6
  5  7  1  0
  6 29  1  0
  7 22  1  0
  7  8  2  0
  8  9  1  0
  9 14  2  0
  9 10  1  0
 10 11  2  0
 10 30  1  0
 11 12  1  0
 11 31  1  0
 12 13  2  0
 12 32  1  0
 13 14  1  0
 13 33  1  0
 14 15  1  0
 15 16  1  1
 15 17  1  0
 15 22  1  0
 16 34  1  0
 16 35  1  0
 16 36  1  0
 17 21  1  0
 17 18  1  0
 17 37  1  6
 18 19  1  0
 18 38  1  0
 18 39  1  0
 19 20  1  0
 19 40  1  0
 19 41  1  0
 20 21  1  0
 20 42  1  0
 20 43  1  0
 21 47  1  6
 22 23  1  6
 22 24  1  0
 23 44  1  0
 23 45  1  0
 23 46  1  0
 24 25  2  0
M  CHG  1  21   1
M  END
>  <i_m_ct_stereo_status>  (34) 
1

>  <s_m_source_file>  (34) 
/var/tmp/pbs.5076255.sched01/tmp5t01l7na/0y8cq_bsf.sdf

>  <i_m_source_file_index>  (34) 
29

>  <i_lp_mmshare_version>  (34) 
48012

>  <i_f3d_flags>  (34) 
0

>  <s_epik_input>  (34) 
Tz1DMU4oW0NIM10pQyg9TylbQ0BAXShbQ0gzXSkoQz0yW0NAQF0xM1tPSF0pW0NAXShbQ0gzXSkoW0NASF00TjNbQ0gyXVtDSDJdW0NIMl00KWM1YyhOMilbY0hdW2NIXVtjSF1bY0hdNQ==

>  <s_epik_cmdline>  (34) 
J2VwaWtfcHl0aG9uJywgJy1waHQnLCAnMi4wJywgJy1waCcsICc3LjAnLCAnLXRuJywgJzgnLCAnLW1hJywgJzIwMCcsICctaW1hZScsICc8aW5maWxlLm1hZT4nLCAnLW9tYWUnLCAnPG91dGZpbGUubWFlPic=

>  <r_epik_Ionization_Penalty>  (34) 
4.17926

>  <r_epik_Ionization_Penalty_Charging>  (34) 
1.9196

>  <r_epik_Ionization_Penalty_Neutral>  (34) 
2.25966

>  <r_epik_State_Penalty>  (34) 
2.65654

>  <r_epik_Charging_Adjusted_Penalty>  (34) 
4.57614

>  <i_epik_Tot_Q>  (34) 
1

>  <i_epik_Tot_abs_Q>  (34) 
1

>  <s_epik_Chemistry_Notes>  (34) 
This compound has an imine and may undergo hydrolysis.

>  <s_lp_Force_Field>  (34) 
OPLS3e

>  <r_lp_Energy>  (34) 
115.838

>  <b_lp_Chiralities_Consistent>  (34) 
1

>  <s_lp_Variant>  (34) 
10:0-3

>  <s_i_glide_gridfile>  (34) 
pfpi4k_grid

>  <i_i_glide_lignum>  (34) 
29

>  <i_i_glide_rotatable_bonds>  (34) 
1

>  <r_i_docking_score>  (34) 
-3.72794

>  <r_i_glide_ligand_efficiency>  (34) 
-0.149118

>  <r_i_glide_ligand_efficiency_sa>  (34) 
-0.436023

>  <r_i_glide_ligand_efficiency_ln>  (34) 
-0.883634

>  <r_i_glide_gscore>  (34) 
-3.72794

>  <r_i_glide_lipo>  (34) 
-0.644375

>  <r_i_glide_hbond>  (34) 
-0.2

>  <r_i_glide_metal>  (34) 
-0

>  <r_i_glide_rewards>  (34) 
-1.24575

>  <r_i_glide_evdw>  (34) 
3.05749

>  <r_i_glide_ecoul>  (34) 
-11.1785

>  <r_i_glide_erotb>  (34) 
0

>  <r_i_glide_esite>  (34) 
-0.113916

>  <r_i_glide_emodel>  (34) 
-13.4867

>  <r_i_glide_energy>  (34) 
-8.12102

>  <r_i_glide_einternal>  (34) 
0.416989

>  <r_i_glide_intrahb_reward>  (34) 
-0

>  <i_i_glide_confnum>  (34) 
1

>  <i_i_glide_posenum>  (34) 
20

>  <r_i_glide_eff_state_penalty>  (34) 
0

>  <ligand_id>  (34) 
10

>  <original_smiles>  (34) 
CN1C(=O)C2(O)C3=Nc4ccccc4C(C)(C4CCCN42)C3(C)C1=O

>  <smiles>  (34) 
[H]OC12C(=O)N(C([H])([H])[H])C(=O)C3(C([H])([H])[H])C1=Nc1c([H])c([H])c([H])c([H])c1C3(C([H])([H])[H])C1([H])C([H])([H])C([H])([H])C([H])([H])[N+]21[H]

$$$$
10:2:2
     RDKit          3D

 47 51  0  0  1  0  0  0  0  0999 V2000
    5.4591   -4.5519    3.7050 C   0  0  0  0  0  0  0  0  0  0  0  0
    4.8535   -4.1996    2.4101 N   0  0  0  0  0  0  0  0  0  0  0  0
    3.5347   -4.4253    2.2307 C   0  0  0  0  0  0  0  0  0  0  0  0
    2.8169   -4.9269    3.0896 O   0  0  0  0  0  0  0  0  0  0  0  0
    2.8814   -3.9564    0.9300 C   0  0  2  0  0  0  0  0  0  0  0  0
    1.8243   -4.8273    0.6473 O   0  0  0  0  0  0  0  0  0  0  0  0
    3.7885   -3.9484   -0.2505 C   0  0  0  0  0  0  0  0  0  0  0  0
    3.1766   -3.8321   -1.3593 N   0  0  0  0  0  0  0  0  0  0  0  0
    3.4313   -2.6854   -2.1178 C   0  0  0  0  0  0  0  0  0  0  0  0
    2.9785   -2.6073   -3.4455 C   0  0  0  0  0  0  0  0  0  0  0  0
    3.1513   -1.4035   -4.1567 C   0  0  0  0  0  0  0  0  0  0  0  0
    3.7782   -0.2858   -3.6091 C   0  0  0  0  0  0  0  0  0  0  0  0
    4.2332   -0.3798   -2.3005 C   0  0  0  0  0  0  0  0  0  0  0  0
    4.0809   -1.5550   -1.5350 C   0  0  0  0  0  0  0  0  0  0  0  0
    4.5789   -1.7130   -0.0757 C   0  0  1  0  0  0  0  0  0  0  0  0
    5.7608   -0.7580    0.1861 C   0  0  0  0  0  0  0  0  0  0  0  0
    3.3598   -1.4439    0.9068 C   0  0  2  0  0  0  0  0  0  0  0  0
    3.6709   -0.9794    2.3375 C   0  0  0  0  0  0  0  0  0  0  0  0
    2.4375   -1.3470    3.1587 C   0  0  0  0  0  0  0  0  0  0  0  0
    1.5322   -2.1635    2.2249 C   0  0  0  0  0  0  0  0  0  0  0  0
    2.3302   -2.5411    1.0195 N   0  0  2  0  0  0  0  0  0  0  0  0
    5.0525   -3.1948    0.0643 C   0  0  2  0  0  0  0  0  0  0  0  0
    6.1328   -3.6118   -0.9618 C   0  0  0  0  0  0  0  0  0  0  0  0
    5.6114   -3.5998    1.4641 C   0  0  0  0  0  0  0  0  0  0  0  0
    6.8019   -3.3704    1.6537 O   0  0  0  0  0  0  0  0  0  0  0  0
    4.7911   -5.0121    4.4385 H   0  0  0  0  0  0  0  0  0  0  0  0
    5.8305   -3.6414    4.1812 H   0  0  0  0  0  0  0  0  0  0  0  0
    6.2795   -5.2561    3.5395 H   0  0  0  0  0  0  0  0  0  0  0  0
    2.0750   -5.3414   -0.1050 H   0  0  0  0  0  0  0  0  0  0  0  0
    2.4610   -3.4294   -3.9273 H   0  0  0  0  0  0  0  0  0  0  0  0
    2.7391   -1.2338   -5.1246 H   0  0  0  0  0  0  0  0  0  0  0  0
    3.8290    0.6459   -4.1584 H   0  0  0  0  0  0  0  0  0  0  0  0
    4.6290    0.5251   -1.9230 H   0  0  0  0  0  0  0  0  0  0  0  0
    6.2436   -0.9070    1.1471 H   0  0  0  0  0  0  0  0  0  0  0  0
    5.4458    0.2730    0.1656 H   0  0  0  0  0  0  0  0  0  0  0  0
    6.5263   -0.9017   -0.5690 H   0  0  0  0  0  0  0  0  0  0  0  0
    2.8005   -0.6157    0.4840 H   0  0  0  0  0  0  0  0  0  0  0  0
    4.5406   -1.4657    2.7684 H   0  0  0  0  0  0  0  0  0  0  0  0
    3.8743    0.0878    2.3751 H   0  0  0  0  0  0  0  0  0  0  0  0
    2.7320   -1.9326    4.0252 H   0  0  0  0  0  0  0  0  0  0  0  0
    1.9359   -0.4627    3.5543 H   0  0  0  0  0  0  0  0  0  0  0  0
    1.0013   -2.9647    2.7417 H   0  0  0  0  0  0  0  0  0  0  0  0
    0.7713   -1.4734    1.8716 H   0  0  0  0  0  0  0  0  0  0  0  0
    6.2649   -4.6678   -0.7577 H   0  0  0  0  0  0  0  0  0  0  0  0
    7.0984   -3.1229   -0.8122 H   0  0  0  0  0  0  0  0  0  0  0  0
    5.8684   -3.5073   -2.0183 H   0  0  0  0  0  0  0  0  0  0  0  0
    1.7384   -2.4208    0.1961 H   0  0  0  0  0  0  0  0  0  0  0  0
  1  2  1  0
  1 26  1  0
  1 27  1  0
  1 28  1  0
  2 24  1  0
  2  3  1  0
  3  4  2  0
  3  5  1  0
  5 21  1  0
  5  6  1  6
  5  7  1  0
  6 29  1  0
  7 22  1  0
  7  8  2  0
  8  9  1  0
  9 14  2  0
  9 10  1  0
 10 11  2  0
 10 30  1  0
 11 12  1  0
 11 31  1  0
 12 13  2  0
 12 32  1  0
 13 14  1  0
 13 33  1  0
 14 15  1  0
 15 16  1  1
 15 17  1  0
 15 22  1  0
 16 34  1  0
 16 35  1  0
 16 36  1  0
 17 21  1  0
 17 18  1  0
 17 37  1  6
 18 19  1  0
 18 38  1  0
 18 39  1  0
 19 20  1  0
 19 40  1  0
 19 41  1  0
 20 21  1  0
 20 42  1  0
 20 43  1  0
 21 47  1  6
 22 23  1  6
 22 24  1  0
 23 44  1  0
 23 45  1  0
 23 46  1  0
 24 25  2  0
M  CHG  1  21   1
M  END
>  <i_m_ct_stereo_status>  (35) 
1

>  <s_m_source_file>  (35) 
/var/tmp/pbs.5076255.sched01/tmp5t01l7na/0y8cq_bsf.sdf

>  <i_m_source_file_index>  (35) 
29

>  <i_lp_mmshare_version>  (35) 
48012

>  <i_f3d_flags>  (35) 
0

>  <s_epik_input>  (35) 
Tz1DMU4oW0NIM10pQyg9TylbQ0BAXShbQ0gzXSkoQz0yW0NAQF0xM1tPSF0pW0NAXShbQ0gzXSkoW0NASF00TjNbQ0gyXVtDSDJdW0NIMl00KWM1YyhOMilbY0hdW2NIXVtjSF1bY0hdNQ==

>  <s_epik_cmdline>  (35) 
J2VwaWtfcHl0aG9uJywgJy1waHQnLCAnMi4wJywgJy1waCcsICc3LjAnLCAnLXRuJywgJzgnLCAnLW1hJywgJzIwMCcsICctaW1hZScsICc8aW5maWxlLm1hZT4nLCAnLW9tYWUnLCAnPG91dGZpbGUubWFlPic=

>  <r_epik_Ionization_Penalty>  (35) 
4.17926

>  <r_epik_Ionization_Penalty_Charging>  (35) 
1.9196

>  <r_epik_Ionization_Penalty_Neutral>  (35) 
2.25966

>  <r_epik_State_Penalty>  (35) 
2.65654

>  <r_epik_Charging_Adjusted_Penalty>  (35) 
4.57614

>  <i_epik_Tot_Q>  (35) 
1

>  <i_epik_Tot_abs_Q>  (35) 
1

>  <s_epik_Chemistry_Notes>  (35) 
This compound has an imine and may undergo hydrolysis.

>  <s_lp_Force_Field>  (35) 
OPLS3e

>  <r_lp_Energy>  (35) 
115.838

>  <b_lp_Chiralities_Consistent>  (35) 
1

>  <s_lp_Variant>  (35) 
10:0-3

>  <s_i_glide_gridfile>  (35) 
pfpi4k_grid

>  <i_i_glide_lignum>  (35) 
29

>  <i_i_glide_rotatable_bonds>  (35) 
1

>  <r_i_docking_score>  (35) 
-3.5732

>  <r_i_glide_ligand_efficiency>  (35) 
-0.142928

>  <r_i_glide_ligand_efficiency_sa>  (35) 
-0.417924

>  <r_i_glide_ligand_efficiency_ln>  (35) 
-0.846955

>  <r_i_glide_gscore>  (35) 
-3.5732

>  <r_i_glide_lipo>  (35) 
-0.691909

>  <r_i_glide_hbond>  (35) 
-0.16556

>  <r_i_glide_metal>  (35) 
-0

>  <r_i_glide_rewards>  (35) 
-1.20209

>  <r_i_glide_evdw>  (35) 
-8.20822

>  <r_i_glide_ecoul>  (35) 
-6.82644

>  <r_i_glide_erotb>  (35) 
0

>  <r_i_glide_esite>  (35) 
-0.079264

>  <r_i_glide_emodel>  (35) 
-19.0266

>  <r_i_glide_energy>  (35) 
-15.0347

>  <r_i_glide_einternal>  (35) 
0.384961

>  <r_i_glide_intrahb_reward>  (35) 
-0

>  <i_i_glide_confnum>  (35) 
1

>  <i_i_glide_posenum>  (35) 
11

>  <r_i_glide_eff_state_penalty>  (35) 
0

>  <ligand_id>  (35) 
10

>  <original_smiles>  (35) 
CN1C(=O)C2(O)C3=Nc4ccccc4C(C)(C4CCCN42)C3(C)C1=O

>  <smiles>  (35) 
[H]OC12C(=O)N(C([H])([H])[H])C(=O)C3(C([H])([H])[H])C1=Nc1c([H])c([H])c([H])c([H])c1C3(C([H])([H])[H])C1([H])C([H])([H])C([H])([H])C([H])([H])[N+]21[H]

$$$$
11:0:0
     RDKit          3D

 77 83  0  0  1  0  0  0  0  0999 V2000
    4.1988   -0.8802   -2.7700 C   0  0  0  0  0  0  0  0  0  0  0  0
    3.6785   -1.6800   -1.5600 C   0  0  2  0  0  0  0  0  0  0  0  0
    4.7263   -1.7780   -0.4542 C   0  0  0  0  0  0  0  0  0  0  0  0
    4.2100   -2.3804    0.9116 C   0  0  1  0  0  0  0  0  0  0  0  0
    3.2951   -3.5702    0.5989 C   0  0  0  0  0  0  0  0  0  0  0  0
    2.8315   -3.8506   -0.6375 C   0  0  0  0  0  0  0  0  0  0  0  0
    3.1875   -3.1029   -1.9082 C   0  0  1  0  0  0  0  0  0  0  0  0
    1.9466   -3.0637   -2.8049 C   0  0  0  0  0  0  0  0  0  0  0  0
    4.1871   -3.8563   -2.5884 O   0  0  0  0  0  0  0  0  0  0  0  0
    2.7178   -4.2815    1.8111 C   0  0  1  0  0  0  0  0  0  0  0  0
    3.1716   -5.7416    2.1859 C   0  0  1  0  0  0  0  0  0  0  0  0
    3.2704   -6.7351    1.0635 N   0  0  0  0  0  0  0  0  0  0  0  0
    4.3941   -6.5682    0.0918 C   0  0  0  0  0  0  0  0  0  0  0  0
    3.2442   -8.1483    1.5303 C   0  0  0  0  0  0  0  0  0  0  0  0
    4.3782   -5.7016    3.1326 C   0  0  2  0  0  0  0  0  0  0  0  0
    4.4037   -6.4172    4.4677 C   0  0  0  0  0  0  0  0  0  0  0  0
    4.8905   -5.3312    5.0887 C   0  0  0  0  0  0  0  0  0  0  0  0
    4.4634   -4.3942    3.9480 C   0  0  1  0  0  0  0  0  0  0  0  0
    5.6064   -3.5760    3.2195 C   0  0  0  0  0  0  0  0  0  0  0  0
    5.5382   -2.9592    1.6949 C   0  0  0  0  0  0  0  0  0  0  0  0
    6.3910   -4.3930    0.5893 Br  0  0  0  0  0  0  0  0  0  0  0  0
    6.8329   -1.4312    1.6662 Br  0  0  0  0  0  0  0  0  0  0  0  0
    3.0172   -3.7856    4.3058 C   0  0  2  0  0  0  0  0  0  0  0  0
    2.6439   -3.2828    3.0098 C   0  0  1  0  0  0  0  0  0  0  0  0
    3.2731   -1.7916    3.0731 C   0  0  2  0  0  0  0  0  0  0  0  0
    4.4466   -1.2722    3.7062 O   0  0  0  0  0  0  0  0  0  0  0  0
    2.3428   -1.2391    4.0868 C   0  0  1  0  0  0  0  0  0  0  0  0
    1.1770   -0.9015    3.0926 C   0  0  1  0  0  0  0  0  0  0  0  0
    0.7591    0.4396    3.2806 O   0  0  0  0  0  0  0  0  0  0  0  0
    1.7576   -1.0712    1.6282 C   0  0  0  0  0  0  0  0  0  0  0  0
    3.3158   -1.2384    1.6959 C   0  0  2  0  0  0  0  0  0  0  0  0
    3.8578    0.2132    1.5524 C   0  0  0  0  0  0  0  0  0  0  0  0
    2.4898   -2.4867    5.1134 C   0  0  0  0  0  0  0  0  0  0  0  0
    1.0913   -2.7582    5.7189 C   0  0  0  0  0  0  0  0  0  0  0  0
    3.4177   -2.1754    6.3121 C   0  0  0  0  0  0  0  0  0  0  0  0
    5.0350   -1.3830   -3.2534 H   0  0  0  0  0  0  0  0  0  0  0  0
    4.5252    0.1144   -2.4605 H   0  0  0  0  0  0  0  0  0  0  0  0
    3.4209   -0.7376   -3.5199 H   0  0  0  0  0  0  0  0  0  0  0  0
    2.8518   -1.0994   -1.1525 H   0  0  0  0  0  0  0  0  0  0  0  0
    5.5308   -2.3845   -0.8626 H   0  0  0  0  0  0  0  0  0  0  0  0
    5.1822   -0.7995   -0.3357 H   0  0  0  0  0  0  0  0  0  0  0  0
    2.1137   -4.6540   -0.7631 H   0  0  0  0  0  0  0  0  0  0  0  0
    1.1227   -2.5498   -2.3182 H   0  0  0  0  0  0  0  0  0  0  0  0
    1.6075   -4.0804   -2.9548 H   0  0  0  0  0  0  0  0  0  0  0  0
    2.1094   -2.6007   -3.7777 H   0  0  0  0  0  0  0  0  0  0  0  0
    3.8162   -4.7283   -2.7214 H   0  0  0  0  0  0  0  0  0  0  0  0
    1.6841   -4.4581    1.5116 H   0  0  0  0  0  0  0  0  0  0  0  0
    2.3374   -6.1035    2.7974 H   0  0  0  0  0  0  0  0  0  0  0  0
    5.3646   -6.5991    0.6058 H   0  0  0  0  0  0  0  0  0  0  0  0
    4.3388   -5.6359   -0.4595 H   0  0  0  0  0  0  0  0  0  0  0  0
    4.3429   -7.3725   -0.6438 H   0  0  0  0  0  0  0  0  0  0  0  0
    4.1895   -8.3788    2.0398 H   0  0  0  0  0  0  0  0  0  0  0  0
    3.1716   -8.8245    0.6726 H   0  0  0  0  0  0  0  0  0  0  0  0
    2.4050   -8.3756    2.2064 H   0  0  0  0  0  0  0  0  0  0  0  0
    5.2930   -5.9183    2.5879 H   0  0  0  0  0  0  0  0  0  0  0  0
    4.3036   -7.4669    4.7662 H   0  0  0  0  0  0  0  0  0  0  0  0
    5.2701   -5.1466    6.0904 H   0  0  0  0  0  0  0  0  0  0  0  0
    6.0295   -2.8885    3.9416 H   0  0  0  0  0  0  0  0  0  0  0  0
    6.4338   -4.2652    3.1560 H   0  0  0  0  0  0  0  0  0  0  0  0
    2.3643   -4.6094    4.5982 H   0  0  0  0  0  0  0  0  0  0  0  0
    1.5534   -3.2692    3.0737 H   0  0  0  0  0  0  0  0  0  0  0  0
    4.4288   -0.3461    3.6257 H   0  0  0  0  0  0  0  0  0  0  0  0
    2.6444   -0.3040    4.5628 H   0  0  0  0  0  0  0  0  0  0  0  0
    0.2989   -1.5351    3.2240 H   0  0  0  0  0  0  0  0  0  0  0  0
    0.2627    0.7049    2.5227 H   0  0  0  0  0  0  0  0  0  0  0  0
    1.2995   -1.9417    1.1685 H   0  0  0  0  0  0  0  0  0  0  0  0
    1.4836   -0.2174    1.0019 H   0  0  0  0  0  0  0  0  0  0  0  0
    3.3976    0.9050    2.2588 H   0  0  0  0  0  0  0  0  0  0  0  0
    3.6540    0.6057    0.5561 H   0  0  0  0  0  0  0  0  0  0  0  0
    4.9272    0.2923    1.6916 H   0  0  0  0  0  0  0  0  0  0  0  0
    0.7005   -1.8640    6.2074 H   0  0  0  0  0  0  0  0  0  0  0  0
    1.1268   -3.5551    6.4643 H   0  0  0  0  0  0  0  0  0  0  0  0
    0.3632   -3.0607    4.9658 H   0  0  0  0  0  0  0  0  0  0  0  0
    3.1228   -1.2455    6.8007 H   0  0  0  0  0  0  0  0  0  0  0  0
    4.4657   -2.0779    6.0305 H   0  0  0  0  0  0  0  0  0  0  0  0
    3.3724   -2.9676    7.0605 H   0  0  0  0  0  0  0  0  0  0  0  0
    2.3863   -6.6147    0.5506 H   0  0  0  0  0  0  0  0  0  0  0  0
  1  2  1  0
  1 36  1  0
  1 37  1  0
  1 38  1  0
  2  7  1  0
  2  3  1  0
  2 39  1  1
  4  3  1  6
  3 40  1  0
  3 41  1  0
  4 20  1  0
  4 31  1  0
  4  5  1  0
  5  6  2  0
  5 10  1  0
  6  7  1  0
  6 42  1  0
  7  8  1  0
  7  9  1  6
  8 43  1  0
  8 44  1  0
  8 45  1  0
  9 46  1  0
 10 24  1  0
 10 11  1  0
 10 47  1  6
 11 12  1  0
 11 15  1  0
 11 48  1  1
 12 13  1  0
 12 14  1  0
 12 77  1  0
 13 49  1  0
 13 50  1  0
 13 51  1  0
 14 52  1  0
 14 53  1  0
 14 54  1  0
 15 18  1  0
 15 16  1  0
 15 55  1  6
 16 17  2  0
 16 56  1  0
 18 17  1  1
 17 57  1  0
 18 19  1  0
 18 23  1  0
 19 20  1  0
 19 58  1  0
 19 59  1  0
 20 21  1  0
 20 22  1  0
 23 33  1  0
 23 24  1  0
 23 60  1  1
 24 25  1  0
 24 61  1  1
 25 31  1  0
 25 26  1  1
 25 27  1  0
 26 62  1  0
 27 28  1  0
 27 33  1  0
 27 63  1  1
 28 29  1  0
 28 30  1  0
 28 64  1  1
 29 65  1  0
 30 31  1  0
 30 66  1  0
 30 67  1  0
 31 32  1  1
 32 68  1  0
 32 69  1  0
 32 70  1  0
 33 34  1  0
 33 35  1  0
 34 71  1  0
 34 72  1  0
 34 73  1  0
 35 74  1  0
 35 75  1  0
 35 76  1  0
M  CHG  1  12   1
M  END
>  <i_m_ct_stereo_status>  (36) 
1

>  <s_m_source_file>  (36) 
/var/tmp/pbs.5076255.sched01/tmp5t01l7na/0y8cq_bsf.sdf

>  <i_m_source_file_index>  (36) 
30

>  <i_lp_mmshare_version>  (36) 
48012

>  <i_f3d_flags>  (36) 
0

>  <s_epik_input>  (36) 
W0NIM11bQ0BIXShbQ0gyXTEpW0NAQF0oW0NIM10pKFtPSF0pW0NIXT1DKFtDQF0xMjMpW0NAQEhdNFtDQEhdNVtDSF0oW0NAXTYoW0NIMl1DMihCcilCcilbQ0BASF0oW0NIXT1bQ0hdNilbQ0BASF00TihbQ0gzXSlbQ0gzXSlDKFtDSDNdKShbQ0gzXSlbQ0BIXTdbQ0BdNShbT0hdKVtDQF0zKFtDSDNdKVtDSDJdW0NAQEhdN1tPSF0=

>  <s_epik_cmdline>  (36) 
J2VwaWtfcHl0aG9uJywgJy1waHQnLCAnMi4wJywgJy1waCcsICc3LjAnLCAnLXRuJywgJzgnLCAnLW1hJywgJzIwMCcsICctaW1hZScsICc8aW5maWxlLm1hZT4nLCAnLW9tYWUnLCAnPG91dGZpbGUubWFlPic=

>  <r_epik_Ionization_Penalty>  (36) 
0.00758701

>  <r_epik_Ionization_Penalty_Charging>  (36) 
0.00758651

>  <r_epik_Ionization_Penalty_Neutral>  (36) 
5.05136e-07

>  <r_epik_State_Penalty>  (36) 
0.00567508

>  <r_epik_Charging_Adjusted_Penalty>  (36) 
0.0132616

>  <i_epik_Tot_Q>  (36) 
1

>  <i_epik_Tot_abs_Q>  (36) 
1

>  <s_lp_Force_Field>  (36) 
OPLS3e

>  <r_lp_Energy>  (36) 
220.158

>  <b_lp_Chiralities_Consistent>  (36) 
1

>  <s_lp_Variant>  (36) 
11:0-1

>  <s_i_glide_gridfile>  (36) 
pfpi4k_grid

>  <i_i_glide_lignum>  (36) 
30

>  <i_i_glide_rotatable_bonds>  (36) 
4

>  <r_i_docking_score>  (36) 
-2.95749

>  <r_i_glide_ligand_efficiency>  (36) 
-0.0844997

>  <r_i_glide_ligand_efficiency_sa>  (36) 
-0.276404

>  <r_i_glide_ligand_efficiency_ln>  (36) 
-0.649235

>  <r_i_glide_gscore>  (36) 
-2.95749

>  <r_i_glide_lipo>  (36) 
-0.516338

>  <r_i_glide_hbond>  (36) 
-0.32

>  <r_i_glide_metal>  (36) 
-0

>  <r_i_glide_rewards>  (36) 
0

>  <r_i_glide_evdw>  (36) 
-12.4216

>  <r_i_glide_ecoul>  (36) 
-10.0005

>  <r_i_glide_erotb>  (36) 
0

>  <r_i_glide_esite>  (36) 
0

>  <r_i_glide_emodel>  (36) 
-26.0317

>  <r_i_glide_energy>  (36) 
-22.4221

>  <r_i_glide_einternal>  (36) 
2.58585

>  <r_i_glide_intrahb_reward>  (36) 
-0

>  <i_i_glide_confnum>  (36) 
2

>  <i_i_glide_posenum>  (36) 
1

>  <r_i_glide_eff_state_penalty>  (36) 
0

>  <ligand_id>  (36) 
11

>  <original_smiles>  (36) 
CC1CC23C(=CC1(C)O)C1C(N(C)C)C4C=CC4(CC2(Br)Br)C2C1C1(O)C(C(O)CC13C)C2(C)C

>  <smiles>  (36) 
[H]OC1([H])C([H])([H])C2(C([H])([H])[H])C3(O[H])C4([H])C5([H])C6=C([H])C(O[H])(C([H])([H])[H])C([H])(C([H])([H])[H])C([H])([H])C62C(Br)(Br)C([H])([H])C2(C([H])=C([H])C2([H])C5([H])[N+]([H])(C([H])([H])[H])C([H])([H])[H])C4([H])C(C([H])([H])[H])(C([H])([H])[H])C13[H]

$$$$
11:0:1
     RDKit          3D

 77 83  0  0  1  0  0  0  0  0999 V2000
    1.8181   -8.9371    2.0011 C   0  0  0  0  0  0  0  0  0  0  0  0
    1.8798   -7.3975    2.0360 C   0  0  2  0  0  0  0  0  0  0  0  0
    3.2909   -6.9184    2.4098 C   0  0  0  0  0  0  0  0  0  0  0  0
    3.5361   -5.3715    2.2661 C   0  0  1  0  0  0  0  0  0  0  0  0
    2.2857   -4.6451    2.8054 C   0  0  0  0  0  0  0  0  0  0  0  0
    1.1208   -5.2646    3.1077 C   0  0  0  0  0  0  0  0  0  0  0  0
    0.8435   -6.7472    2.9891 C   0  0  1  0  0  0  0  0  0  0  0  0
   -0.6007   -6.9682    2.4956 C   0  0  0  0  0  0  0  0  0  0  0  0
    0.9028   -7.2809    4.2898 O   0  0  0  0  0  0  0  0  0  0  0  0
    2.3350   -3.1349    2.7498 C   0  0  1  0  0  0  0  0  0  0  0  0
    2.4484   -2.2662    4.0516 C   0  0  1  0  0  0  0  0  0  0  0  0
    1.5342   -2.6624    5.1885 N   0  0  0  0  0  0  0  0  0  0  0  0
    1.8933   -3.9122    5.9574 C   0  0  0  0  0  0  0  0  0  0  0  0
    1.3302   -1.5346    6.1757 C   0  0  0  0  0  0  0  0  0  0  0  0
    3.9035   -2.0321    4.4409 C   0  0  2  0  0  0  0  0  0  0  0  0
    4.4548   -0.6440    4.6720 C   0  0  0  0  0  0  0  0  0  0  0  0
    5.4938   -0.8840    3.8680 C   0  0  0  0  0  0  0  0  0  0  0  0
    4.8508   -2.1023    3.2311 C   0  0  1  0  0  0  0  0  0  0  0  0
    5.5322   -3.5332    3.3765 C   0  0  0  0  0  0  0  0  0  0  0  0
    4.7994   -4.9756    3.2609 C   0  0  0  0  0  0  0  0  0  0  0  0
    4.3034   -5.3994    5.1505 Br  0  0  0  0  0  0  0  0  0  0  0  0
    6.3221   -6.2096    2.8142 Br  0  0  0  0  0  0  0  0  0  0  0  0
    4.1861   -1.6049    1.8673 C   0  0  2  0  0  0  0  0  0  0  0  0
    3.3035   -2.6920    1.5938 C   0  0  1  0  0  0  0  0  0  0  0  0
    4.2800   -3.6588    0.7256 C   0  0  2  0  0  0  0  0  0  0  0  0
    5.6809   -3.8948    0.7712 O   0  0  0  0  0  0  0  0  0  0  0  0
    4.3659   -2.8010   -0.4704 C   0  0  1  0  0  0  0  0  0  0  0  0
    2.9995   -3.2422   -1.1096 C   0  0  1  0  0  0  0  0  0  0  0  0
    3.1922   -3.4536   -2.4880 O   0  0  0  0  0  0  0  0  0  0  0  0
    2.5028   -4.5306   -0.2847 C   0  0  0  0  0  0  0  0  0  0  0  0
    3.6654   -5.0082    0.6680 C   0  0  2  0  0  0  0  0  0  0  0  0
    4.4630   -6.0656   -0.1582 C   0  0  0  0  0  0  0  0  0  0  0  0
    4.7146   -1.4587    0.3609 C   0  0  0  0  0  0  0  0  0  0  0  0
    3.9782   -0.3149   -0.3154 C   0  0  0  0  0  0  0  0  0  0  0  0
    6.1988   -1.0571    0.2950 C   0  0  0  0  0  0  0  0  0  0  0  0
    2.0173   -9.3929    2.9699 H   0  0  0  0  0  0  0  0  0  0  0  0
    2.5469   -9.3362    1.2962 H   0  0  0  0  0  0  0  0  0  0  0  0
    0.8469   -9.2836    1.6522 H   0  0  0  0  0  0  0  0  0  0  0  0
    1.6706   -7.0584    1.0216 H   0  0  0  0  0  0  0  0  0  0  0  0
    3.4540   -7.2261    3.4320 H   0  0  0  0  0  0  0  0  0  0  0  0
    4.0292   -7.4991    1.8552 H   0  0  0  0  0  0  0  0  0  0  0  0
    0.2769   -4.6650    3.4067 H   0  0  0  0  0  0  0  0  0  0  0  0
   -0.7491   -6.5821    1.4841 H   0  0  0  0  0  0  0  0  0  0  0  0
   -1.3115   -6.4883    3.1681 H   0  0  0  0  0  0  0  0  0  0  0  0
   -0.8780   -8.0239    2.4839 H   0  0  0  0  0  0  0  0  0  0  0  0
    0.7664   -8.2197    4.2170 H   0  0  0  0  0  0  0  0  0  0  0  0
    1.3377   -2.8612    2.3941 H   0  0  0  0  0  0  0  0  0  0  0  0
    2.0630   -1.2979    3.7330 H   0  0  0  0  0  0  0  0  0  0  0  0
    2.9119   -3.8737    6.3588 H   0  0  0  0  0  0  0  0  0  0  0  0
    1.8159   -4.7926    5.3279 H   0  0  0  0  0  0  0  0  0  0  0  0
    1.1661   -4.0224    6.7599 H   0  0  0  0  0  0  0  0  0  0  0  0
    2.2520   -1.3736    6.7423 H   0  0  0  0  0  0  0  0  0  0  0  0
    0.5498   -1.8443    6.8712 H   0  0  0  0  0  0  0  0  0  0  0  0
    1.0183   -0.5991    5.6925 H   0  0  0  0  0  0  0  0  0  0  0  0
    4.2267   -2.6930    5.2382 H   0  0  0  0  0  0  0  0  0  0  0  0
    4.2548    0.1562    5.3909 H   0  0  0  0  0  0  0  0  0  0  0  0
    6.4031   -0.3295    3.6419 H   0  0  0  0  0  0  0  0  0  0  0  0
    6.4401   -3.5236    2.7925 H   0  0  0  0  0  0  0  0  0  0  0  0
    5.9932   -3.5540    4.3590 H   0  0  0  0  0  0  0  0  0  0  0  0
    3.6170   -0.6916    2.0854 H   0  0  0  0  0  0  0  0  0  0  0  0
    2.5337   -2.2124    0.9838 H   0  0  0  0  0  0  0  0  0  0  0  0
    5.8926   -4.4744    0.0499 H   0  0  0  0  0  0  0  0  0  0  0  0
    5.1639   -3.0303   -1.1917 H   0  0  0  0  0  0  0  0  0  0  0  0
    2.2275   -2.4807   -1.0912 H   0  0  0  0  0  0  0  0  0  0  0  0
    3.0625   -4.3679   -2.6409 H   0  0  0  0  0  0  0  0  0  0  0  0
    1.6651   -4.2247    0.3261 H   0  0  0  0  0  0  0  0  0  0  0  0
    2.0536   -5.3311   -0.8701 H   0  0  0  0  0  0  0  0  0  0  0  0
    4.7457   -5.6840   -1.1396 H   0  0  0  0  0  0  0  0  0  0  0  0
    3.8401   -6.9434   -0.3181 H   0  0  0  0  0  0  0  0  0  0  0  0
    5.3717   -6.4140    0.3282 H   0  0  0  0  0  0  0  0  0  0  0  0
    4.2494   -0.2679   -1.3659 H   0  0  0  0  0  0  0  0  0  0  0  0
    4.2272    0.6339    0.1660 H   0  0  0  0  0  0  0  0  0  0  0  0
    2.9020   -0.4645   -0.2493 H   0  0  0  0  0  0  0  0  0  0  0  0
    6.5282   -1.0739   -0.7434 H   0  0  0  0  0  0  0  0  0  0  0  0
    6.8534   -1.7127    0.8660 H   0  0  0  0  0  0  0  0  0  0  0  0
    6.3341   -0.0427    0.6732 H   0  0  0  0  0  0  0  0  0  0  0  0
    0.6397   -2.7763    4.7516 H   0  0  0  0  0  0  0  0  0  0  0  0
  1  2  1  0
  1 36  1  0
  1 37  1  0
  1 38  1  0
  2  7  1  0
  2  3  1  0
  2 39  1  6
  4  3  1  6
  3 40  1  0
  3 41  1  0
  4 20  1  0
  4 31  1  0
  4  5  1  0
  5  6  2  0
  5 10  1  0
  6  7  1  0
  6 42  1  0
  7  8  1  0
  7  9  1  1
  8 43  1  0
  8 44  1  0
  8 45  1  0
  9 46  1  0
 10 24  1  0
 10 11  1  0
 10 47  1  6
 11 12  1  0
 11 15  1  0
 11 48  1  6
 12 13  1  0
 12 14  1  0
 12 77  1  0
 13 49  1  0
 13 50  1  0
 13 51  1  0
 14 52  1  0
 14 53  1  0
 14 54  1  0
 15 18  1  0
 15 16  1  0
 15 55  1  1
 16 17  2  0
 16 56  1  0
 18 17  1  1
 17 57  1  0
 18 19  1  0
 18 23  1  0
 19 20  1  0
 19 58  1  0
 19 59  1  0
 20 21  1  0
 20 22  1  0
 23 33  1  0
 23 24  1  0
 23 60  1  1
 24 25  1  0
 24 61  1  6
 25 31  1  0
 25 26  1  1
 25 27  1  0
 26 62  1  0
 27 28  1  0
 27 33  1  0
 27 63  1  6
 28 29  1  0
 28 30  1  0
 28 64  1  6
 29 65  1  0
 30 31  1  0
 30 66  1  0
 30 67  1  0
 31 32  1  6
 32 68  1  0
 32 69  1  0
 32 70  1  0
 33 34  1  0
 33 35  1  0
 34 71  1  0
 34 72  1  0
 34 73  1  0
 35 74  1  0
 35 75  1  0
 35 76  1  0
M  CHG  1  12   1
M  END
>  <i_m_ct_stereo_status>  (37) 
1

>  <s_m_source_file>  (37) 
/var/tmp/pbs.5076255.sched01/tmp5t01l7na/0y8cq_bsf.sdf

>  <i_m_source_file_index>  (37) 
30

>  <i_lp_mmshare_version>  (37) 
48012

>  <i_f3d_flags>  (37) 
0

>  <s_epik_input>  (37) 
W0NIM11bQ0BIXShbQ0gyXTEpW0NAQF0oW0NIM10pKFtPSF0pW0NIXT1DKFtDQF0xMjMpW0NAQEhdNFtDQEhdNVtDSF0oW0NAXTYoW0NIMl1DMihCcilCcilbQ0BASF0oW0NIXT1bQ0hdNilbQ0BASF00TihbQ0gzXSlbQ0gzXSlDKFtDSDNdKShbQ0gzXSlbQ0BIXTdbQ0BdNShbT0hdKVtDQF0zKFtDSDNdKVtDSDJdW0NAQEhdN1tPSF0=

>  <s_epik_cmdline>  (37) 
J2VwaWtfcHl0aG9uJywgJy1waHQnLCAnMi4wJywgJy1waCcsICc3LjAnLCAnLXRuJywgJzgnLCAnLW1hJywgJzIwMCcsICctaW1hZScsICc8aW5maWxlLm1hZT4nLCAnLW9tYWUnLCAnPG91dGZpbGUubWFlPic=

>  <r_epik_Ionization_Penalty>  (37) 
0.00758701

>  <r_epik_Ionization_Penalty_Charging>  (37) 
0.00758651

>  <r_epik_Ionization_Penalty_Neutral>  (37) 
5.05136e-07

>  <r_epik_State_Penalty>  (37) 
0.00567508

>  <r_epik_Charging_Adjusted_Penalty>  (37) 
0.0132616

>  <i_epik_Tot_Q>  (37) 
1

>  <i_epik_Tot_abs_Q>  (37) 
1

>  <s_lp_Force_Field>  (37) 
OPLS3e

>  <r_lp_Energy>  (37) 
220.158

>  <b_lp_Chiralities_Consistent>  (37) 
1

>  <s_lp_Variant>  (37) 
11:0-1

>  <s_i_glide_gridfile>  (37) 
pfpi4k_grid

>  <i_i_glide_lignum>  (37) 
30

>  <i_i_glide_rotatable_bonds>  (37) 
4

>  <r_i_docking_score>  (37) 
-2.32251

>  <r_i_glide_ligand_efficiency>  (37) 
-0.0663574

>  <r_i_glide_ligand_efficiency_sa>  (37) 
-0.21706

>  <r_i_glide_ligand_efficiency_ln>  (37) 
-0.509842

>  <r_i_glide_gscore>  (37) 
-2.32251

>  <r_i_glide_lipo>  (37) 
-0.340978

>  <r_i_glide_hbond>  (37) 
-0.32

>  <r_i_glide_metal>  (37) 
-0

>  <r_i_glide_rewards>  (37) 
0

>  <r_i_glide_evdw>  (37) 
-10.365

>  <r_i_glide_ecoul>  (37) 
-7.62189

>  <r_i_glide_erotb>  (37) 
0

>  <r_i_glide_esite>  (37) 
0

>  <r_i_glide_emodel>  (37) 
-19.7264

>  <r_i_glide_energy>  (37) 
-17.9869

>  <r_i_glide_einternal>  (37) 
3.32072

>  <r_i_glide_intrahb_reward>  (37) 
-0

>  <i_i_glide_confnum>  (37) 
1

>  <i_i_glide_posenum>  (37) 
20

>  <r_i_glide_eff_state_penalty>  (37) 
0

>  <ligand_id>  (37) 
11

>  <original_smiles>  (37) 
CC1CC23C(=CC1(C)O)C1C(N(C)C)C4C=CC4(CC2(Br)Br)C2C1C1(O)C(C(O)CC13C)C2(C)C

>  <smiles>  (37) 
[H]OC1([H])C([H])([H])C2(C([H])([H])[H])C3(O[H])C4([H])C5([H])C6=C([H])C(O[H])(C([H])([H])[H])C([H])(C([H])([H])[H])C([H])([H])C62C(Br)(Br)C([H])([H])C2(C([H])=C([H])C2([H])C5([H])[N+]([H])(C([H])([H])[H])C([H])([H])[H])C4([H])C(C([H])([H])[H])(C([H])([H])[H])C13[H]

$$$$
11:0:2
     RDKit          3D

 77 83  0  0  1  0  0  0  0  0999 V2000
    6.3442   -6.8119    1.8561 C   0  0  0  0  0  0  0  0  0  0  0  0
    5.0671   -7.0365    2.6868 C   0  0  2  0  0  0  0  0  0  0  0  0
    5.3219   -6.8298    4.1903 C   0  0  0  0  0  0  0  0  0  0  0  0
    4.0365   -6.8283    5.0993 C   0  0  1  0  0  0  0  0  0  0  0  0
    3.0852   -7.9490    4.5757 C   0  0  0  0  0  0  0  0  0  0  0  0
    3.2806   -8.5975    3.4166 C   0  0  0  0  0  0  0  0  0  0  0  0
    4.4043   -8.4202    2.4431 C   0  0  1  0  0  0  0  0  0  0  0  0
    3.8543   -8.5605    1.0150 C   0  0  0  0  0  0  0  0  0  0  0  0
    5.3187   -9.4799    2.6293 O   0  0  0  0  0  0  0  0  0  0  0  0
    1.7927   -8.0740    5.3537 C   0  0  1  0  0  0  0  0  0  0  0  0
    1.4886   -9.3410    6.2673 C   0  0  1  0  0  0  0  0  0  0  0  0
    1.8500  -10.6673    5.6108 N   0  0  0  0  0  0  0  0  0  0  0  0
    1.1246  -11.0100    4.3793 C   0  0  0  0  0  0  0  0  0  0  0  0
    3.3102  -10.9939    5.6087 C   0  0  0  0  0  0  0  0  0  0  0  0
    2.0007   -9.0927    7.7051 C   0  0  2  0  0  0  0  0  0  0  0  0
    1.1283   -9.2610    8.9420 C   0  0  0  0  0  0  0  0  0  0  0  0
    1.5359   -8.0877    9.4495 C   0  0  0  0  0  0  0  0  0  0  0  0
    2.0721   -7.5973    8.1046 C   0  0  1  0  0  0  0  0  0  0  0  0
    3.6265   -7.2454    8.0305 C   0  0  0  0  0  0  0  0  0  0  0  0
    4.5314   -7.2245    6.6490 C   0  0  0  0  0  0  0  0  0  0  0  0
    5.4266   -9.0212    6.6244 Br  0  0  0  0  0  0  0  0  0  0  0  0
    6.0685   -6.0265    7.1466 Br  0  0  0  0  0  0  0  0  0  0  0  0
    0.9119   -6.7423    7.3806 C   0  0  2  0  0  0  0  0  0  0  0  0
    1.4250   -6.7134    6.0350 C   0  0  1  0  0  0  0  0  0  0  0  0
    2.3494   -5.3866    6.0771 C   0  0  2  0  0  0  0  0  0  0  0  0
    3.1374   -4.8309    7.1242 O   0  0  0  0  0  0  0  0  0  0  0  0
    1.2525   -4.4020    6.2002 C   0  0  1  0  0  0  0  0  0  0  0  0
    0.9250   -4.3451    4.6584 C   0  0  1  0  0  0  0  0  0  0  0  0
    0.8653   -3.0018    4.2254 O   0  0  0  0  0  0  0  0  0  0  0  0
    2.0697   -5.1205    3.8735 C   0  0  0  0  0  0  0  0  0  0  0  0
    3.2452   -5.3946    4.8904 C   0  0  2  0  0  0  0  0  0  0  0  0
    4.2015   -4.1652    4.7488 C   0  0  0  0  0  0  0  0  0  0  0  0
    0.4705   -5.1862    7.3921 C   0  0  0  0  0  0  0  0  0  0  0  0
   -1.0488   -5.0525    7.1190 C   0  0  0  0  0  0  0  0  0  0  0  0
    0.7077   -4.5581    8.7873 C   0  0  0  0  0  0  0  0  0  0  0  0
    7.1168   -7.5467    2.1074 H   0  0  0  0  0  0  0  0  0  0  0  0
    6.7458   -5.8092    2.0424 H   0  0  0  0  0  0  0  0  0  0  0  0
    6.1321   -6.8901    0.7862 H   0  0  0  0  0  0  0  0  0  0  0  0
    4.3518   -6.2722    2.3730 H   0  0  0  0  0  0  0  0  0  0  0  0
    5.9860   -7.6404    4.4658 H   0  0  0  0  0  0  0  0  0  0  0  0
    5.9435   -5.9404    4.3425 H   0  0  0  0  0  0  0  0  0  0  0  0
    2.5492   -9.2766    3.0064 H   0  0  0  0  0  0  0  0  0  0  0  0
    3.1234   -7.7680    0.8374 H   0  0  0  0  0  0  0  0  0  0  0  0
    3.3248   -9.5101    0.8926 H   0  0  0  0  0  0  0  0  0  0  0  0
    4.6203   -8.5360    0.2372 H   0  0  0  0  0  0  0  0  0  0  0  0
    4.9322  -10.2580    2.2573 H   0  0  0  0  0  0  0  0  0  0  0  0
    1.0512   -8.1915    4.5603 H   0  0  0  0  0  0  0  0  0  0  0  0
    0.3986   -9.3903    6.3457 H   0  0  0  0  0  0  0  0  0  0  0  0
    1.1453  -10.1876    3.6428 H   0  0  0  0  0  0  0  0  0  0  0  0
    0.0581  -11.2611    4.5464 H   0  0  0  0  0  0  0  0  0  0  0  0
    1.6266  -11.8811    3.9073 H   0  0  0  0  0  0  0  0  0  0  0  0
    3.8400  -10.3073    4.9293 H   0  0  0  0  0  0  0  0  0  0  0  0
    3.4990  -12.0166    5.2272 H   0  0  0  0  0  0  0  0  0  0  0  0
    3.7625  -10.9081    6.6070 H   0  0  0  0  0  0  0  0  0  0  0  0
    2.9564   -9.5841    7.9004 H   0  0  0  0  0  0  0  0  0  0  0  0
    0.6194  -10.1061    9.3909 H   0  0  0  0  0  0  0  0  0  0  0  0
    1.4195   -7.6059   10.4059 H   0  0  0  0  0  0  0  0  0  0  0  0
    3.8205   -6.3796    8.6615 H   0  0  0  0  0  0  0  0  0  0  0  0
    4.1366   -7.9699    8.6634 H   0  0  0  0  0  0  0  0  0  0  0  0
   -0.0161   -7.3207    7.4359 H   0  0  0  0  0  0  0  0  0  0  0  0
    0.5098   -6.5504    5.4634 H   0  0  0  0  0  0  0  0  0  0  0  0
    2.6270   -4.8294    7.9107 H   0  0  0  0  0  0  0  0  0  0  0  0
    1.5410   -3.3956    6.5206 H   0  0  0  0  0  0  0  0  0  0  0  0
   -0.0492   -4.7634    4.4251 H   0  0  0  0  0  0  0  0  0  0  0  0
    1.7000   -2.5922    4.3715 H   0  0  0  0  0  0  0  0  0  0  0  0
    1.6575   -6.0418    3.4627 H   0  0  0  0  0  0  0  0  0  0  0  0
    2.4061   -4.5706    2.9948 H   0  0  0  0  0  0  0  0  0  0  0  0
    3.6737   -3.2205    4.8767 H   0  0  0  0  0  0  0  0  0  0  0  0
    4.6500   -4.1413    3.7552 H   0  0  0  0  0  0  0  0  0  0  0  0
    5.0184   -4.1779    5.4673 H   0  0  0  0  0  0  0  0  0  0  0  0
   -1.3476   -4.0078    7.0506 H   0  0  0  0  0  0  0  0  0  0  0  0
   -1.6431   -5.5013    7.9132 H   0  0  0  0  0  0  0  0  0  0  0  0
   -1.3514   -5.5300    6.1883 H   0  0  0  0  0  0  0  0  0  0  0  0
    0.5034   -3.4857    8.7706 H   0  0  0  0  0  0  0  0  0  0  0  0
    1.7200   -4.6948    9.1653 H   0  0  0  0  0  0  0  0  0  0  0  0
    0.0443   -5.0023    9.5302 H   0  0  0  0  0  0  0  0  0  0  0  0
    1.5068  -11.3603    6.3355 H   0  0  0  0  0  0  0  0  0  0  0  0
  1  2  1  0
  1 36  1  0
  1 37  1  0
  1 38  1  0
  2  7  1  0
  2  3  1  0
  2 39  1  6
  4  3  1  6
  3 40  1  0
  3 41  1  0
  4 20  1  0
  4 31  1  0
  4  5  1  0
  5  6  2  0
  5 10  1  0
  6  7  1  0
  6 42  1  0
  7  8  1  0
  7  9  1  1
  8 43  1  0
  8 44  1  0
  8 45  1  0
  9 46  1  0
 10 24  1  0
 10 11  1  0
 10 47  1  6
 11 12  1  0
 11 15  1  0
 11 48  1  1
 12 13  1  0
 12 14  1  0
 12 77  1  0
 13 49  1  0
 13 50  1  0
 13 51  1  0
 14 52  1  0
 14 53  1  0
 14 54  1  0
 15 18  1  0
 15 16  1  0
 15 55  1  1
 16 17  2  0
 16 56  1  0
 18 17  1  1
 17 57  1  0
 18 19  1  0
 18 23  1  0
 19 20  1  0
 19 58  1  0
 19 59  1  0
 20 21  1  0
 20 22  1  0
 23 33  1  0
 23 24  1  0
 23 60  1  6
 24 25  1  0
 24 61  1  6
 25 31  1  0
 25 26  1  1
 25 27  1  0
 26 62  1  0
 27 28  1  0
 27 33  1  0
 27 63  1  1
 28 29  1  0
 28 30  1  0
 28 64  1  1
 29 65  1  0
 30 31  1  0
 30 66  1  0
 30 67  1  0
 31 32  1  1
 32 68  1  0
 32 69  1  0
 32 70  1  0
 33 34  1  0
 33 35  1  0
 34 71  1  0
 34 72  1  0
 34 73  1  0
 35 74  1  0
 35 75  1  0
 35 76  1  0
M  CHG  1  12   1
M  END
>  <i_m_ct_stereo_status>  (38) 
1

>  <s_m_source_file>  (38) 
/var/tmp/pbs.5076255.sched01/tmp5t01l7na/0y8cq_bsf.sdf

>  <i_m_source_file_index>  (38) 
30

>  <i_lp_mmshare_version>  (38) 
48012

>  <i_f3d_flags>  (38) 
0

>  <s_epik_input>  (38) 
W0NIM11bQ0BIXShbQ0gyXTEpW0NAQF0oW0NIM10pKFtPSF0pW0NIXT1DKFtDQF0xMjMpW0NAQEhdNFtDQEhdNVtDSF0oW0NAXTYoW0NIMl1DMihCcilCcilbQ0BASF0oW0NIXT1bQ0hdNilbQ0BASF00TihbQ0gzXSlbQ0gzXSlDKFtDSDNdKShbQ0gzXSlbQ0BIXTdbQ0BdNShbT0hdKVtDQF0zKFtDSDNdKVtDSDJdW0NAQEhdN1tPSF0=

>  <s_epik_cmdline>  (38) 
J2VwaWtfcHl0aG9uJywgJy1waHQnLCAnMi4wJywgJy1waCcsICc3LjAnLCAnLXRuJywgJzgnLCAnLW1hJywgJzIwMCcsICctaW1hZScsICc8aW5maWxlLm1hZT4nLCAnLW9tYWUnLCAnPG91dGZpbGUubWFlPic=

>  <r_epik_Ionization_Penalty>  (38) 
0.00758701

>  <r_epik_Ionization_Penalty_Charging>  (38) 
0.00758651

>  <r_epik_Ionization_Penalty_Neutral>  (38) 
5.05136e-07

>  <r_epik_State_Penalty>  (38) 
0.00567508

>  <r_epik_Charging_Adjusted_Penalty>  (38) 
0.0132616

>  <i_epik_Tot_Q>  (38) 
1

>  <i_epik_Tot_abs_Q>  (38) 
1

>  <s_lp_Force_Field>  (38) 
OPLS3e

>  <r_lp_Energy>  (38) 
220.158

>  <b_lp_Chiralities_Consistent>  (38) 
1

>  <s_lp_Variant>  (38) 
11:0-1

>  <s_i_glide_gridfile>  (38) 
pfpi4k_grid

>  <i_i_glide_lignum>  (38) 
30

>  <i_i_glide_rotatable_bonds>  (38) 
4

>  <r_i_docking_score>  (38) 
-2.09625

>  <r_i_glide_ligand_efficiency>  (38) 
-0.0598929

>  <r_i_glide_ligand_efficiency_sa>  (38) 
-0.195914

>  <r_i_glide_ligand_efficiency_ln>  (38) 
-0.460174

>  <r_i_glide_gscore>  (38) 
-2.09625

>  <r_i_glide_lipo>  (38) 
-0.193671

>  <r_i_glide_hbond>  (38) 
-0.2

>  <r_i_glide_metal>  (38) 
-0

>  <r_i_glide_rewards>  (38) 
0

>  <r_i_glide_evdw>  (38) 
-17.5429

>  <r_i_glide_ecoul>  (38) 
-4.94108

>  <r_i_glide_erotb>  (38) 
0

>  <r_i_glide_esite>  (38) 
-0.0842753

>  <r_i_glide_emodel>  (38) 
-22.5584

>  <r_i_glide_energy>  (38) 
-22.4839

>  <r_i_glide_einternal>  (38) 
5.42973

>  <r_i_glide_intrahb_reward>  (38) 
-0

>  <i_i_glide_confnum>  (38) 
1

>  <i_i_glide_posenum>  (38) 
6

>  <r_i_glide_eff_state_penalty>  (38) 
0

>  <ligand_id>  (38) 
11

>  <original_smiles>  (38) 
CC1CC23C(=CC1(C)O)C1C(N(C)C)C4C=CC4(CC2(Br)Br)C2C1C1(O)C(C(O)CC13C)C2(C)C

>  <smiles>  (38) 
[H]OC1([H])C([H])([H])C2(C([H])([H])[H])C3(O[H])C4([H])C5([H])C6=C([H])C(O[H])(C([H])([H])[H])C([H])(C([H])([H])[H])C([H])([H])C62C(Br)(Br)C([H])([H])C2(C([H])=C([H])C2([H])C5([H])[N+]([H])(C([H])([H])[H])C([H])([H])[H])C4([H])C(C([H])([H])[H])(C([H])([H])[H])C13[H]

$$$$
12:1:0
     RDKit          3D

 67 71  0  0  1  0  0  0  0  0999 V2000
    5.0153   -3.8211   -3.3003 C   0  0  0  0  0  0  0  0  0  0  0  0
    4.3622   -3.0616   -2.2942 O   0  0  0  0  0  0  0  0  0  0  0  0
    4.3529   -3.5142   -1.0328 C   0  0  0  0  0  0  0  0  0  0  0  0
    4.8890   -4.5482   -0.6433 O   0  0  0  0  0  0  0  0  0  0  0  0
    3.6586   -2.6092   -0.2600 N   0  0  0  0  0  0  0  0  0  0  0  0
    3.4274   -2.7821    1.0686 N   0  0  0  0  0  0  0  0  0  0  0  0
    3.0711   -1.8028    1.8317 C   0  0  0  0  0  0  0  0  0  0  0  0
    2.8049   -2.1241    3.2256 C   0  0  0  0  0  0  0  0  0  0  0  0
    2.5065   -1.1495    4.1050 C   0  0  0  0  0  0  0  0  0  0  0  0
    2.4314   -1.5253    5.5689 C   0  0  0  0  0  0  0  0  0  0  0  0
    1.6108   -0.5781    6.4309 C   0  0  0  0  0  0  0  0  0  0  0  0
    0.3938    0.0389    5.7083 C   0  0  1  0  0  0  0  0  0  0  0  0
   -0.4311   -1.1144    5.0443 C   0  0  0  0  0  0  0  0  0  0  0  0
   -0.5675    0.5295    6.8723 C   0  0  2  0  0  0  0  0  0  0  0  0
   -2.0501    1.0814    6.8874 C   0  0  0  0  0  0  0  0  0  0  0  0
   -1.5455    2.3432    6.1872 C   0  0  1  0  0  0  0  0  0  0  0  0
   -1.7998    2.1825    4.6636 C   0  0  0  0  0  0  0  0  0  0  0  0
   -1.0937    3.1800    3.7460 C   0  0  1  0  0  0  0  0  0  0  0  0
   -2.0964    4.2027    3.1769 C   0  0  0  0  0  0  0  0  0  0  0  0
    0.0726    3.7431    4.5497 C   0  0  1  0  0  0  0  0  0  0  0  0
    0.5910    4.8071    3.7564 O   0  0  0  0  0  0  0  0  0  0  0  0
   -0.5689    4.4394    5.8297 C   0  0  0  0  0  0  0  0  0  0  0  0
   -1.6954    3.7283    6.4358 O   0  0  0  0  0  0  0  0  0  0  0  0
    1.2495    2.6458    4.6992 C   0  0  1  0  0  0  0  0  0  0  0  0
    2.1377    2.9768    5.7577 O   0  0  0  0  0  0  0  0  0  0  0  0
    1.0358    1.0248    4.5518 C   0  0  1  0  0  0  0  0  0  0  0  0
    2.2858    0.3413    3.7654 C   0  0  1  0  0  0  0  0  0  0  0  0
    3.6580    0.9905    4.0931 C   0  0  0  0  0  0  0  0  0  0  0  0
    2.0191    0.4128    2.2189 C   0  0  1  0  0  0  0  0  0  0  0  0
    2.0271    1.7418    1.7725 O   0  0  0  0  0  0  0  0  0  0  0  0
    2.9802   -0.3973    1.3270 C   0  0  0  0  0  0  0  0  0  0  0  0
   -0.2742    1.9652    7.0657 C   0  0  0  0  0  0  0  0  0  0  0  0
    0.4579    2.5526    7.8773 O   0  0  0  0  0  0  0  0  0  0  0  0
    4.8986   -3.3429   -4.2703 H   0  0  0  0  0  0  0  0  0  0  0  0
    4.6189   -4.8308   -3.3831 H   0  0  0  0  0  0  0  0  0  0  0  0
    6.0795   -3.8964   -3.0884 H   0  0  0  0  0  0  0  0  0  0  0  0
    3.3005   -1.7649   -0.6940 H   0  0  0  0  0  0  0  0  0  0  0  0
    2.9519   -3.1423    3.5455 H   0  0  0  0  0  0  0  0  0  0  0  0
    1.9748   -2.5212    5.6224 H   0  0  0  0  0  0  0  0  0  0  0  0
    3.4459   -1.6158    5.9663 H   0  0  0  0  0  0  0  0  0  0  0  0
    1.3243   -1.1031    7.3418 H   0  0  0  0  0  0  0  0  0  0  0  0
    2.2623    0.2418    6.7615 H   0  0  0  0  0  0  0  0  0  0  0  0
   -1.4601   -0.8460    4.8339 H   0  0  0  0  0  0  0  0  0  0  0  0
   -0.4704   -1.9880    5.7040 H   0  0  0  0  0  0  0  0  0  0  0  0
   -0.0165   -1.4528    4.0917 H   0  0  0  0  0  0  0  0  0  0  0  0
   -0.4301   -0.0247    7.7948 H   0  0  0  0  0  0  0  0  0  0  0  0
   -2.7061    0.4557    6.2890 H   0  0  0  0  0  0  0  0  0  0  0  0
   -2.4546    1.2585    7.8858 H   0  0  0  0  0  0  0  0  0  0  0  0
   -1.6767    1.1722    4.3188 H   0  0  0  0  0  0  0  0  0  0  0  0
   -2.8717    2.3342    4.5331 H   0  0  0  0  0  0  0  0  0  0  0  0
   -0.7191    2.6438    2.8695 H   0  0  0  0  0  0  0  0  0  0  0  0
   -2.5686    4.7900    3.9624 H   0  0  0  0  0  0  0  0  0  0  0  0
   -2.8871    3.7176    2.6120 H   0  0  0  0  0  0  0  0  0  0  0  0
   -1.6065    4.8944    2.4818 H   0  0  0  0  0  0  0  0  0  0  0  0
    0.6102    4.5584    2.8395 H   0  0  0  0  0  0  0  0  0  0  0  0
    0.1907    4.6757    6.5710 H   0  0  0  0  0  0  0  0  0  0  0  0
   -0.9644    5.4177    5.5600 H   0  0  0  0  0  0  0  0  0  0  0  0
    1.8558    2.9016    3.8461 H   0  0  0  0  0  0  0  0  0  0  0  0
    1.6911    2.8839    6.5866 H   0  0  0  0  0  0  0  0  0  0  0  0
    0.2927    0.9535    3.7817 H   0  0  0  0  0  0  0  0  0  0  0  0
    3.7733    2.0091    3.7182 H   0  0  0  0  0  0  0  0  0  0  0  0
    4.4846    0.4307    3.6535 H   0  0  0  0  0  0  0  0  0  0  0  0
    3.8432    1.0223    5.1666 H   0  0  0  0  0  0  0  0  0  0  0  0
    1.0239    0.0189    2.0010 H   0  0  0  0  0  0  0  0  0  0  0  0
    1.1885    2.1563    1.9071 H   0  0  0  0  0  0  0  0  0  0  0  0
    3.9727    0.0544    1.3243 H   0  0  0  0  0  0  0  0  0  0  0  0
    2.6290   -0.3459    0.3069 H   0  0  0  0  0  0  0  0  0  0  0  0
  1  2  1  0
  1 34  1  0
  1 35  1  0
  1 36  1  0
  2  3  1  0
  3  4  2  0
  3  5  1  0
  5  6  1  0
  5 37  1  0
  6  7  2  3
  7 31  1  0
  7  8  1  0
  8  9  2  0
  8 38  1  0
  9 27  1  0
  9 10  1  0
 10 11  1  0
 10 39  1  0
 10 40  1  0
 11 12  1  0
 11 41  1  0
 11 42  1  0
 12 26  1  0
 12 13  1  6
 12 14  1  0
 13 43  1  0
 13 44  1  0
 13 45  1  0
 14 32  1  0
 14 15  1  0
 14 46  1  1
 15 16  1  0
 15 47  1  0
 15 48  1  0
 16 23  1  1
 16 17  1  0
 16 32  1  0
 17 18  1  0
 17 49  1  0
 17 50  1  0
 18 19  1  0
 18 20  1  0
 18 51  1  6
 19 52  1  0
 19 53  1  0
 19 54  1  0
 20 21  1  6
 20 22  1  0
 20 24  1  0
 21 55  1  0
 22 23  1  0
 22 56  1  0
 22 57  1  0
 24 25  1  0
 24 26  1  0
 24 58  1  6
 25 59  1  0
 26 27  1  0
 26 60  1  6
 27 28  1  6
 27 29  1  0
 28 61  1  0
 28 62  1  0
 28 63  1  0
 29 30  1  0
 29 31  1  0
 29 64  1  1
 30 65  1  0
 31 66  1  0
 31 67  1  0
 32 33  2  0
M  END
>  <i_m_ct_stereo_status>  (39) 
1

>  <s_m_source_file>  (39) 
/var/tmp/pbs.5076255.sched01/tmp5t01l7na/0y8cq_bsf.sdf

>  <i_m_source_file_index>  (39) 
32

>  <i_lp_mmshare_version>  (39) 
48012

>  <i_f3d_flags>  (39) 
0

>  <s_epik_input>  (39) 
W0NIM11PQyg9TylbTkhdL049QyhbQ0gyXVtDQEBIXTFbT0hdKVxbQ0hdPUMoW0NIMl1bQ0gyXTIpW0NAXTEoW0NIM10pW0NAQEhdKFtDQF0yKFtDSDNdKVtDQEhdKFtDSDJdW0NAQF0zNDUpQzU9TylbQ0BIXShbT0hdKVtDQF0oW09IXSkoW0NIMl1PNClbQ0BASF0oW0NIMl0zKVtDSDNd

>  <s_epik_cmdline>  (39) 
J2VwaWtfcHl0aG9uJywgJy1waHQnLCAnMi4wJywgJy1waCcsICc3LjAnLCAnLXRuJywgJzgnLCAnLW1hJywgJzIwMCcsICctaW1hZScsICc8aW5maWxlLm1hZT4nLCAnLW9tYWUnLCAnPG91dGZpbGUubWFlPic=

>  <r_lp_tautomer_probability>  (39) 
1

>  <r_epik_Ionization_Penalty>  (39) 
0.000265137

>  <r_epik_Ionization_Penalty_Charging>  (39) 
0

>  <r_epik_Ionization_Penalty_Neutral>  (39) 
0.000265137

>  <r_epik_State_Penalty>  (39) 
-0

>  <r_epik_Charging_Adjusted_Penalty>  (39) 
0

>  <i_epik_Tot_Q>  (39) 
0

>  <i_epik_Tot_abs_Q>  (39) 
0

>  <s_epik_Chemistry_Notes>  (39) 
This compound has an ester and may undergo hydrolysis at high or low pH. This compound has an imine and may undergo hydrolysis.

>  <s_lp_Force_Field>  (39) 
OPLS3e

>  <r_lp_Energy>  (39) 
149.35

>  <b_lp_Chiralities_Consistent>  (39) 
1

>  <s_lp_Variant>  (39) 
12:0-2

>  <s_i_glide_gridfile>  (39) 
pfpi4k_grid

>  <i_i_glide_lignum>  (39) 
32

>  <i_i_glide_rotatable_bonds>  (39) 
6

>  <r_i_docking_score>  (39) 
-2.9135

>  <r_i_glide_ligand_efficiency>  (39) 
-0.0882877

>  <r_i_glide_ligand_efficiency_sa>  (39) 
-0.283186

>  <r_i_glide_ligand_efficiency_ln>  (39) 
-0.647946

>  <r_i_glide_gscore>  (39) 
-2.9135

>  <r_i_glide_lipo>  (39) 
-0.0730172

>  <r_i_glide_hbond>  (39) 
0

>  <r_i_glide_metal>  (39) 
-0

>  <r_i_glide_rewards>  (39) 
-0.755437

>  <r_i_glide_evdw>  (39) 
-32.1231

>  <r_i_glide_ecoul>  (39) 
-4.10445

>  <r_i_glide_erotb>  (39) 
0.188322

>  <r_i_glide_esite>  (39) 
-0.0515379

>  <r_i_glide_emodel>  (39) 
-46.9874

>  <r_i_glide_energy>  (39) 
-36.2276

>  <r_i_glide_einternal>  (39) 
1.85306

>  <r_i_glide_intrahb_reward>  (39) 
-0.5

>  <i_i_glide_confnum>  (39) 
3

>  <i_i_glide_posenum>  (39) 
29

>  <r_i_glide_eff_state_penalty>  (39) 
0

>  <ligand_id>  (39) 
12

>  <original_smiles>  (39) 
COC(=O)NN=C1C=C2CCC3(C)C4CC5(CC(C)C(O)(CO5)C(O)C3C2(C)C(O)C1)C4=O

>  <smiles>  (39) 
[H]OC1([H])C2([H])C3(C([H])([H])[H])C(=C([H])C(=NN([H])C(=O)OC([H])([H])[H])C([H])([H])C3([H])O[H])C([H])([H])C([H])([H])C2(C([H])([H])[H])C2([H])C(=O)C3(OC([H])([H])C1(O[H])C([H])(C([H])([H])[H])C3([H])[H])C2([H])[H]

$$$$
12:1:1
     RDKit          3D

 67 71  0  0  1  0  0  0  0  0999 V2000
    5.0069   -3.8223   -3.3069 C   0  0  0  0  0  0  0  0  0  0  0  0
    4.3555   -3.0629   -2.2995 O   0  0  0  0  0  0  0  0  0  0  0  0
    4.3528   -3.5122   -1.0380 C   0  0  0  0  0  0  0  0  0  0  0  0
    4.8951   -4.5427   -0.6468 O   0  0  0  0  0  0  0  0  0  0  0  0
    3.6588   -2.6080   -0.2639 N   0  0  0  0  0  0  0  0  0  0  0  0
    3.4291   -2.7814    1.0650 N   0  0  0  0  0  0  0  0  0  0  0  0
    3.0716   -1.7963    1.8295 C   0  0  0  0  0  0  0  0  0  0  0  0
    2.8062   -2.1236    3.2236 C   0  0  0  0  0  0  0  0  0  0  0  0
    2.5082   -1.1428    4.0985 C   0  0  0  0  0  0  0  0  0  0  0  0
    2.4323   -1.5209    5.5640 C   0  0  0  0  0  0  0  0  0  0  0  0
    1.6119   -0.5773    6.4274 C   0  0  0  0  0  0  0  0  0  0  0  0
    0.3990    0.0435    5.7049 C   0  0  1  0  0  0  0  0  0  0  0  0
   -0.4299   -1.1108    5.0432 C   0  0  0  0  0  0  0  0  0  0  0  0
   -0.5595    0.5343    6.8703 C   0  0  2  0  0  0  0  0  0  0  0  0
   -2.0428    1.0833    6.8875 C   0  0  0  0  0  0  0  0  0  0  0  0
   -1.5381    2.3456    6.1888 C   0  0  1  0  0  0  0  0  0  0  0  0
   -1.7939    2.1836    4.6652 C   0  0  0  0  0  0  0  0  0  0  0  0
   -1.0951    3.1833    3.7454 C   0  0  1  0  0  0  0  0  0  0  0  0
   -2.0964    4.2054    3.1769 C   0  0  0  0  0  0  0  0  0  0  0  0
    0.0695    3.7451    4.5465 C   0  0  1  0  0  0  0  0  0  0  0  0
    0.5890    4.8106    3.7540 O   0  0  0  0  0  0  0  0  0  0  0  0
   -0.5679    4.4363    5.8323 C   0  0  0  0  0  0  0  0  0  0  0  0
   -1.6973    3.7271    6.4351 O   0  0  0  0  0  0  0  0  0  0  0  0
    1.2476    2.6458    4.6734 C   0  0  1  0  0  0  0  0  0  0  0  0
    2.1392    2.9881    5.7199 O   0  0  0  0  0  0  0  0  0  0  0  0
    1.0359    1.0276    4.5418 C   0  0  1  0  0  0  0  0  0  0  0  0
    2.2875    0.3470    3.7566 C   0  0  1  0  0  0  0  0  0  0  0  0
    3.6590    0.9953    4.0902 C   0  0  0  0  0  0  0  0  0  0  0  0
    2.0194    0.4161    2.2047 C   0  0  1  0  0  0  0  0  0  0  0  0
    2.0155    1.7398    1.7159 O   0  0  0  0  0  0  0  0  0  0  0  0
    2.9821   -0.3970    1.3202 C   0  0  0  0  0  0  0  0  0  0  0  0
   -0.2654    1.9742    7.0737 C   0  0  0  0  0  0  0  0  0  0  0  0
    0.3854    2.5358    7.9697 O   0  0  0  0  0  0  0  0  0  0  0  0
    4.8757   -3.3542   -4.2787 H   0  0  0  0  0  0  0  0  0  0  0  0
    4.6170   -4.8368   -3.3804 H   0  0  0  0  0  0  0  0  0  0  0  0
    6.0759   -3.8857   -3.1058 H   0  0  0  0  0  0  0  0  0  0  0  0
    3.2991   -1.7630   -0.6971 H   0  0  0  0  0  0  0  0  0  0  0  0
    2.9520   -3.1384    3.5430 H   0  0  0  0  0  0  0  0  0  0  0  0
    1.9754   -2.5173    5.6184 H   0  0  0  0  0  0  0  0  0  0  0  0
    3.4456   -1.6168    5.9641 H   0  0  0  0  0  0  0  0  0  0  0  0
    1.3245   -1.1037    7.3372 H   0  0  0  0  0  0  0  0  0  0  0  0
    2.2617    0.2432    6.7630 H   0  0  0  0  0  0  0  0  0  0  0  0
   -1.4585   -0.8451    4.8328 H   0  0  0  0  0  0  0  0  0  0  0  0
   -0.4693   -1.9865    5.7017 H   0  0  0  0  0  0  0  0  0  0  0  0
   -0.0168   -1.4519    4.0904 H   0  0  0  0  0  0  0  0  0  0  0  0
   -0.4241   -0.0224    7.7911 H   0  0  0  0  0  0  0  0  0  0  0  0
   -2.6982    0.4587    6.2872 H   0  0  0  0  0  0  0  0  0  0  0  0
   -2.4487    1.2589    7.8851 H   0  0  0  0  0  0  0  0  0  0  0  0
   -1.6742    1.1751    4.3202 H   0  0  0  0  0  0  0  0  0  0  0  0
   -2.8669    2.3349    4.5373 H   0  0  0  0  0  0  0  0  0  0  0  0
   -0.7191    2.6460    2.8698 H   0  0  0  0  0  0  0  0  0  0  0  0
   -2.5655    4.7935    3.9629 H   0  0  0  0  0  0  0  0  0  0  0  0
   -2.8862    3.7206    2.6136 H   0  0  0  0  0  0  0  0  0  0  0  0
   -1.6048    4.8970    2.4812 H   0  0  0  0  0  0  0  0  0  0  0  0
    0.6053    4.5647    2.8379 H   0  0  0  0  0  0  0  0  0  0  0  0
    0.1916    4.6715    6.5746 H   0  0  0  0  0  0  0  0  0  0  0  0
   -0.9732    5.4128    5.5653 H   0  0  0  0  0  0  0  0  0  0  0  0
    1.8456    2.8982    3.8156 H   0  0  0  0  0  0  0  0  0  0  0  0
    2.9559    2.5529    5.5777 H   0  0  0  0  0  0  0  0  0  0  0  0
    0.2921    0.9514    3.7753 H   0  0  0  0  0  0  0  0  0  0  0  0
    3.7788    2.0120    3.7118 H   0  0  0  0  0  0  0  0  0  0  0  0
    4.4838    0.4331    3.6500 H   0  0  0  0  0  0  0  0  0  0  0  0
    3.8505    1.0127    5.1631 H   0  0  0  0  0  0  0  0  0  0  0  0
    1.0259    0.0150    1.9956 H   0  0  0  0  0  0  0  0  0  0  0  0
    1.1976    2.1678    1.8936 H   0  0  0  0  0  0  0  0  0  0  0  0
    3.9756    0.0543    1.3201 H   0  0  0  0  0  0  0  0  0  0  0  0
    2.6361   -0.3481    0.2994 H   0  0  0  0  0  0  0  0  0  0  0  0
  1  2  1  0
  1 34  1  0
  1 35  1  0
  1 36  1  0
  2  3  1  0
  3  4  2  0
  3  5  1  0
  5  6  1  0
  5 37  1  0
  6  7  2  3
  7 31  1  0
  7  8  1  0
  8  9  2  0
  8 38  1  0
  9 27  1  0
  9 10  1  0
 10 11  1  0
 10 39  1  0
 10 40  1  0
 11 12  1  0
 11 41  1  0
 11 42  1  0
 12 26  1  0
 12 13  1  6
 12 14  1  0
 13 43  1  0
 13 44  1  0
 13 45  1  0
 14 32  1  0
 14 15  1  0
 14 46  1  1
 15 16  1  0
 15 47  1  0
 15 48  1  0
 16 23  1  1
 16 17  1  0
 16 32  1  0
 17 18  1  0
 17 49  1  0
 17 50  1  0
 18 19  1  0
 18 20  1  0
 18 51  1  6
 19 52  1  0
 19 53  1  0
 19 54  1  0
 20 21  1  6
 20 22  1  0
 20 24  1  0
 21 55  1  0
 22 23  1  0
 22 56  1  0
 22 57  1  0
 24 25  1  0
 24 26  1  0
 24 58  1  6
 25 59  1  0
 26 27  1  0
 26 60  1  6
 27 28  1  6
 27 29  1  0
 28 61  1  0
 28 62  1  0
 28 63  1  0
 29 30  1  0
 29 31  1  0
 29 64  1  1
 30 65  1  0
 31 66  1  0
 31 67  1  0
 32 33  2  0
M  END
>  <i_m_ct_stereo_status>  (40) 
1

>  <s_m_source_file>  (40) 
/var/tmp/pbs.5076255.sched01/tmp5t01l7na/0y8cq_bsf.sdf

>  <i_m_source_file_index>  (40) 
32

>  <i_lp_mmshare_version>  (40) 
48012

>  <i_f3d_flags>  (40) 
0

>  <s_epik_input>  (40) 
W0NIM11PQyg9TylbTkhdL049QyhbQ0gyXVtDQEBIXTFbT0hdKVxbQ0hdPUMoW0NIMl1bQ0gyXTIpW0NAXTEoW0NIM10pW0NAQEhdKFtDQF0yKFtDSDNdKVtDQEhdKFtDSDJdW0NAQF0zNDUpQzU9TylbQ0BIXShbT0hdKVtDQF0oW09IXSkoW0NIMl1PNClbQ0BASF0oW0NIMl0zKVtDSDNd

>  <s_epik_cmdline>  (40) 
J2VwaWtfcHl0aG9uJywgJy1waHQnLCAnMi4wJywgJy1waCcsICc3LjAnLCAnLXRuJywgJzgnLCAnLW1hJywgJzIwMCcsICctaW1hZScsICc8aW5maWxlLm1hZT4nLCAnLW9tYWUnLCAnPG91dGZpbGUubWFlPic=

>  <r_lp_tautomer_probability>  (40) 
1

>  <r_epik_Ionization_Penalty>  (40) 
0.000265137

>  <r_epik_Ionization_Penalty_Charging>  (40) 
0

>  <r_epik_Ionization_Penalty_Neutral>  (40) 
0.000265137

>  <r_epik_State_Penalty>  (40) 
-0

>  <r_epik_Charging_Adjusted_Penalty>  (40) 
0

>  <i_epik_Tot_Q>  (40) 
0

>  <i_epik_Tot_abs_Q>  (40) 
0

>  <s_epik_Chemistry_Notes>  (40) 
This compound has an ester and may undergo hydrolysis at high or low pH. This compound has an imine and may undergo hydrolysis.

>  <s_lp_Force_Field>  (40) 
OPLS3e

>  <r_lp_Energy>  (40) 
149.35

>  <b_lp_Chiralities_Consistent>  (40) 
1

>  <s_lp_Variant>  (40) 
12:0-2

>  <s_i_glide_gridfile>  (40) 
pfpi4k_grid

>  <i_i_glide_lignum>  (40) 
32

>  <i_i_glide_rotatable_bonds>  (40) 
6

>  <r_i_docking_score>  (40) 
-2.48432

>  <r_i_glide_ligand_efficiency>  (40) 
-0.0752825

>  <r_i_glide_ligand_efficiency_sa>  (40) 
-0.241471

>  <r_i_glide_ligand_efficiency_ln>  (40) 
-0.552501

>  <r_i_glide_gscore>  (40) 
-2.48432

>  <r_i_glide_lipo>  (40) 
-0.0718016

>  <r_i_glide_hbond>  (40) 
0

>  <r_i_glide_metal>  (40) 
-0

>  <r_i_glide_rewards>  (40) 
-0.255437

>  <r_i_glide_evdw>  (40) 
-32.0313

>  <r_i_glide_ecoul>  (40) 
-4.61449

>  <r_i_glide_erotb>  (40) 
0.188322

>  <r_i_glide_esite>  (40) 
-0.0516659

>  <r_i_glide_emodel>  (40) 
-41.1668

>  <r_i_glide_energy>  (40) 
-36.6458

>  <r_i_glide_einternal>  (40) 
2.26162

>  <r_i_glide_intrahb_reward>  (40) 
-0

>  <i_i_glide_confnum>  (40) 
3

>  <i_i_glide_posenum>  (40) 
13

>  <r_i_glide_eff_state_penalty>  (40) 
0

>  <ligand_id>  (40) 
12

>  <original_smiles>  (40) 
COC(=O)NN=C1C=C2CCC3(C)C4CC5(CC(C)C(O)(CO5)C(O)C3C2(C)C(O)C1)C4=O

>  <smiles>  (40) 
[H]OC1([H])C2([H])C3(C([H])([H])[H])C(=C([H])C(=NN([H])C(=O)OC([H])([H])[H])C([H])([H])C3([H])O[H])C([H])([H])C([H])([H])C2(C([H])([H])[H])C2([H])C(=O)C3(OC([H])([H])C1(O[H])C([H])(C([H])([H])[H])C3([H])[H])C2([H])[H]

$$$$
12:1:2
     RDKit          3D

 67 71  0  0  1  0  0  0  0  0999 V2000
    5.0082   -3.8282   -3.3021 C   0  0  0  0  0  0  0  0  0  0  0  0
    4.3546   -3.0697   -2.2954 O   0  0  0  0  0  0  0  0  0  0  0  0
    4.3486   -3.5195   -1.0333 C   0  0  0  0  0  0  0  0  0  0  0  0
    4.8844   -4.5535   -0.6430 O   0  0  0  0  0  0  0  0  0  0  0  0
    3.6588   -2.6101   -0.2594 N   0  0  0  0  0  0  0  0  0  0  0  0
    3.4294   -2.7831    1.0700 N   0  0  0  0  0  0  0  0  0  0  0  0
    3.0703   -1.8035    1.8323 C   0  0  0  0  0  0  0  0  0  0  0  0
    2.8060   -2.1246    3.2266 C   0  0  0  0  0  0  0  0  0  0  0  0
    2.5082   -1.1500    4.1058 C   0  0  0  0  0  0  0  0  0  0  0  0
    2.4325   -1.5246    5.5704 C   0  0  0  0  0  0  0  0  0  0  0  0
    1.6128   -0.5758    6.4310 C   0  0  0  0  0  0  0  0  0  0  0  0
    0.3969    0.0413    5.7072 C   0  0  1  0  0  0  0  0  0  0  0  0
   -0.4298   -1.1129    5.0456 C   0  0  0  0  0  0  0  0  0  0  0  0
   -0.5597    0.5384    6.8706 C   0  0  2  0  0  0  0  0  0  0  0  0
   -2.0437    1.0843    6.8817 C   0  0  0  0  0  0  0  0  0  0  0  0
   -1.5370    2.3461    6.1850 C   0  0  1  0  0  0  0  0  0  0  0  0
   -1.7946    2.1843    4.6622 C   0  0  0  0  0  0  0  0  0  0  0  0
   -1.0916    3.1819    3.7421 C   0  0  1  0  0  0  0  0  0  0  0  0
   -2.0939    4.2049    3.1752 C   0  0  0  0  0  0  0  0  0  0  0  0
    0.0758    3.7417    4.5454 C   0  0  1  0  0  0  0  0  0  0  0  0
    0.6229    4.8006    3.7640 O   0  0  0  0  0  0  0  0  0  0  0  0
   -0.5659    4.4379    5.8276 C   0  0  0  0  0  0  0  0  0  0  0  0
   -1.6970    3.7298    6.4285 O   0  0  0  0  0  0  0  0  0  0  0  0
    1.2483    2.6433    4.6816 C   0  0  1  0  0  0  0  0  0  0  0  0
    2.1508    2.9910    5.7126 O   0  0  0  0  0  0  0  0  0  0  0  0
    1.0370    1.0222    4.5478 C   0  0  1  0  0  0  0  0  0  0  0  0
    2.2882    0.3404    3.7653 C   0  0  1  0  0  0  0  0  0  0  0  0
    3.6607    0.9901    4.0928 C   0  0  0  0  0  0  0  0  0  0  0  0
    2.0197    0.4128    2.2197 C   0  0  1  0  0  0  0  0  0  0  0  0
    2.0279    1.7407    1.7707 O   0  0  0  0  0  0  0  0  0  0  0  0
    2.9761   -0.3992    1.3273 C   0  0  0  0  0  0  0  0  0  0  0  0
   -0.2670    1.9765    7.0747 C   0  0  0  0  0  0  0  0  0  0  0  0
    0.3838    2.5447    7.9647 O   0  0  0  0  0  0  0  0  0  0  0  0
    4.8771   -3.3592   -4.2741 H   0  0  0  0  0  0  0  0  0  0  0  0
    4.6142   -4.8434   -3.3770 H   0  0  0  0  0  0  0  0  0  0  0  0
    6.0761   -3.8925   -3.0991 H   0  0  0  0  0  0  0  0  0  0  0  0
    3.3025   -1.7654   -0.6930 H   0  0  0  0  0  0  0  0  0  0  0  0
    2.9528   -3.1419    3.5476 H   0  0  0  0  0  0  0  0  0  0  0  0
    1.9754   -2.5198    5.6244 H   0  0  0  0  0  0  0  0  0  0  0  0
    3.4463   -1.6153    5.9683 H   0  0  0  0  0  0  0  0  0  0  0  0
    1.3250   -1.1004    7.3419 H   0  0  0  0  0  0  0  0  0  0  0  0
    2.2618    0.2459    6.7619 H   0  0  0  0  0  0  0  0  0  0  0  0
   -1.4587   -0.8452    4.8351 H   0  0  0  0  0  0  0  0  0  0  0  0
   -0.4692   -1.9861    5.7054 H   0  0  0  0  0  0  0  0  0  0  0  0
   -0.0162   -1.4525    4.0935 H   0  0  0  0  0  0  0  0  0  0  0  0
   -0.4256   -0.0196    7.7920 H   0  0  0  0  0  0  0  0  0  0  0  0
   -2.6990    0.4583    6.2842 H   0  0  0  0  0  0  0  0  0  0  0  0
   -2.4491    1.2609    7.8797 H   0  0  0  0  0  0  0  0  0  0  0  0
   -1.6739    1.1737    4.3178 H   0  0  0  0  0  0  0  0  0  0  0  0
   -2.8674    2.3343    4.5345 H   0  0  0  0  0  0  0  0  0  0  0  0
   -0.7185    2.6438    2.8666 H   0  0  0  0  0  0  0  0  0  0  0  0
   -2.5671    4.7908    3.9608 H   0  0  0  0  0  0  0  0  0  0  0  0
   -2.8850    3.7186    2.6113 H   0  0  0  0  0  0  0  0  0  0  0  0
   -1.6029    4.8959    2.4806 H   0  0  0  0  0  0  0  0  0  0  0  0
    0.6098    4.5682    2.8414 H   0  0  0  0  0  0  0  0  0  0  0  0
    0.1906    4.6702    6.5737 H   0  0  0  0  0  0  0  0  0  0  0  0
   -0.9618    5.4169    5.5591 H   0  0  0  0  0  0  0  0  0  0  0  0
    1.8502    2.8918    3.8253 H   0  0  0  0  0  0  0  0  0  0  0  0
    2.4304    3.8742    5.5639 H   0  0  0  0  0  0  0  0  0  0  0  0
    0.2919    0.9503    3.7800 H   0  0  0  0  0  0  0  0  0  0  0  0
    3.7766    2.0079    3.7165 H   0  0  0  0  0  0  0  0  0  0  0  0
    4.4870    0.4295    3.6543 H   0  0  0  0  0  0  0  0  0  0  0  0
    3.8439    1.0224    5.1668 H   0  0  0  0  0  0  0  0  0  0  0  0
    1.0240    0.0197    2.0035 H   0  0  0  0  0  0  0  0  0  0  0  0
    1.1873    2.1531    1.9037 H   0  0  0  0  0  0  0  0  0  0  0  0
    3.9674    0.0528    1.3154 H   0  0  0  0  0  0  0  0  0  0  0  0
    2.6231   -0.3503    0.3101 H   0  0  0  0  0  0  0  0  0  0  0  0
  1  2  1  0
  1 34  1  0
  1 35  1  0
  1 36  1  0
  2  3  1  0
  3  4  2  0
  3  5  1  0
  5  6  1  0
  5 37  1  0
  6  7  2  3
  7 31  1  0
  7  8  1  0
  8  9  2  0
  8 38  1  0
  9 27  1  0
  9 10  1  0
 10 11  1  0
 10 39  1  0
 10 40  1  0
 11 12  1  0
 11 41  1  0
 11 42  1  0
 12 26  1  0
 12 13  1  6
 12 14  1  0
 13 43  1  0
 13 44  1  0
 13 45  1  0
 14 32  1  0
 14 15  1  0
 14 46  1  1
 15 16  1  0
 15 47  1  0
 15 48  1  0
 16 23  1  1
 16 17  1  0
 16 32  1  0
 17 18  1  0
 17 49  1  0
 17 50  1  0
 18 19  1  0
 18 20  1  0
 18 51  1  6
 19 52  1  0
 19 53  1  0
 19 54  1  0
 20 21  1  6
 20 22  1  0
 20 24  1  0
 21 55  1  0
 22 23  1  0
 22 56  1  0
 22 57  1  0
 24 25  1  0
 24 26  1  0
 24 58  1  6
 25 59  1  0
 26 27  1  0
 26 60  1  6
 27 28  1  6
 27 29  1  0
 28 61  1  0
 28 62  1  0
 28 63  1  0
 29 30  1  0
 29 31  1  0
 29 64  1  1
 30 65  1  0
 31 66  1  0
 31 67  1  0
 32 33  2  0
M  END
>  <i_m_ct_stereo_status>  (41) 
1

>  <s_m_source_file>  (41) 
/var/tmp/pbs.5076255.sched01/tmp5t01l7na/0y8cq_bsf.sdf

>  <i_m_source_file_index>  (41) 
32

>  <i_lp_mmshare_version>  (41) 
48012

>  <i_f3d_flags>  (41) 
0

>  <s_epik_input>  (41) 
W0NIM11PQyg9TylbTkhdL049QyhbQ0gyXVtDQEBIXTFbT0hdKVxbQ0hdPUMoW0NIMl1bQ0gyXTIpW0NAXTEoW0NIM10pW0NAQEhdKFtDQF0yKFtDSDNdKVtDQEhdKFtDSDJdW0NAQF0zNDUpQzU9TylbQ0BIXShbT0hdKVtDQF0oW09IXSkoW0NIMl1PNClbQ0BASF0oW0NIMl0zKVtDSDNd

>  <s_epik_cmdline>  (41) 
J2VwaWtfcHl0aG9uJywgJy1waHQnLCAnMi4wJywgJy1waCcsICc3LjAnLCAnLXRuJywgJzgnLCAnLW1hJywgJzIwMCcsICctaW1hZScsICc8aW5maWxlLm1hZT4nLCAnLW9tYWUnLCAnPG91dGZpbGUubWFlPic=

>  <r_lp_tautomer_probability>  (41) 
1

>  <r_epik_Ionization_Penalty>  (41) 
0.000265137

>  <r_epik_Ionization_Penalty_Charging>  (41) 
0

>  <r_epik_Ionization_Penalty_Neutral>  (41) 
0.000265137

>  <r_epik_State_Penalty>  (41) 
-0

>  <r_epik_Charging_Adjusted_Penalty>  (41) 
0

>  <i_epik_Tot_Q>  (41) 
0

>  <i_epik_Tot_abs_Q>  (41) 
0

>  <s_epik_Chemistry_Notes>  (41) 
This compound has an ester and may undergo hydrolysis at high or low pH. This compound has an imine and may undergo hydrolysis.

>  <s_lp_Force_Field>  (41) 
OPLS3e

>  <r_lp_Energy>  (41) 
149.35

>  <b_lp_Chiralities_Consistent>  (41) 
1

>  <s_lp_Variant>  (41) 
12:0-2

>  <s_i_glide_gridfile>  (41) 
pfpi4k_grid

>  <i_i_glide_lignum>  (41) 
32

>  <i_i_glide_rotatable_bonds>  (41) 
6

>  <r_i_docking_score>  (41) 
-2.45284

>  <r_i_glide_ligand_efficiency>  (41) 
-0.0743284

>  <r_i_glide_ligand_efficiency_sa>  (41) 
-0.238411

>  <r_i_glide_ligand_efficiency_ln>  (41) 
-0.545498

>  <r_i_glide_gscore>  (41) 
-2.45284

>  <r_i_glide_lipo>  (41) 
-0.0691308

>  <r_i_glide_hbond>  (41) 
0

>  <r_i_glide_metal>  (41) 
-0

>  <r_i_glide_rewards>  (41) 
-0.255437

>  <r_i_glide_evdw>  (41) 
-32.1523

>  <r_i_glide_ecoul>  (41) 
-4.38207

>  <r_i_glide_erotb>  (41) 
0.188322

>  <r_i_glide_esite>  (41) 
-0.0516643

>  <r_i_glide_emodel>  (41) 
-40.9981

>  <r_i_glide_energy>  (41) 
-36.5344

>  <r_i_glide_einternal>  (41) 
2.23121

>  <r_i_glide_intrahb_reward>  (41) 
-0

>  <i_i_glide_confnum>  (41) 
3

>  <i_i_glide_posenum>  (41) 
16

>  <r_i_glide_eff_state_penalty>  (41) 
0

>  <ligand_id>  (41) 
12

>  <original_smiles>  (41) 
COC(=O)NN=C1C=C2CCC3(C)C4CC5(CC(C)C(O)(CO5)C(O)C3C2(C)C(O)C1)C4=O

>  <smiles>  (41) 
[H]OC1([H])C2([H])C3(C([H])([H])[H])C(=C([H])C(=NN([H])C(=O)OC([H])([H])[H])C([H])([H])C3([H])O[H])C([H])([H])C([H])([H])C2(C([H])([H])[H])C2([H])C(=O)C3(OC([H])([H])C1(O[H])C([H])(C([H])([H])[H])C3([H])[H])C2([H])[H]

$$$$
13:0:0
     RDKit          3D

 75 81  0  0  1  0  0  0  0  0999 V2000
   -1.0803   -3.8523    6.6506 C   0  0  0  0  0  0  0  0  0  0  0  0
   -0.1157   -3.6972    7.6906 O   0  0  0  0  0  0  0  0  0  0  0  0
    1.0371   -4.5457    7.6211 C   0  0  2  0  0  0  0  0  0  0  0  0
    1.8566   -4.3334    6.3315 C   0  0  0  0  0  0  0  0  0  0  0  0
    2.2026   -5.2952    5.4472 C   0  0  0  0  0  0  0  0  0  0  0  0
    1.8448   -6.6646    5.7849 C   0  0  0  0  0  0  0  0  0  0  0  0
    2.2474   -7.5750    4.8940 C   0  0  0  0  0  0  0  0  0  0  0  0
    3.5366   -8.0440    5.1217 N   0  0  0  0  0  0  0  0  0  0  0  0
    3.8266   -9.4326    5.4336 C   0  0  0  0  0  0  0  0  0  0  0  0
    4.6783   -7.2331    4.6963 C   0  0  0  0  0  0  0  0  0  0  0  0
    4.4866   -5.6860    4.8122 C   0  0  0  0  0  0  0  0  0  0  0  0
    3.1436   -5.0814    4.2200 C   0  0  1  0  0  0  0  0  0  0  0  0
    2.6813   -5.9593    3.0361 C   0  0  0  0  0  0  0  0  0  0  0  0
    2.8065   -5.5572    1.7361 C   0  0  0  0  0  0  0  0  0  0  0  0
    3.4128   -4.2455    1.2319 C   0  0  1  0  0  0  0  0  0  0  0  0
    2.4235   -3.4670    0.5656 O   0  0  0  0  0  0  0  0  0  0  0  0
    2.2000   -3.7889   -0.8062 C   0  0  0  0  0  0  0  0  0  0  0  0
    4.0828   -3.4258    2.3751 C   0  0  1  0  0  0  0  0  0  0  0  0
    5.3777   -3.9943    2.4761 O   0  0  0  0  0  0  0  0  0  0  0  0
    4.2926   -1.9345    1.9734 C   0  0  0  0  0  0  0  0  0  0  0  0
    5.3429   -1.6064    1.4001 O   0  0  0  0  0  0  0  0  0  0  0  0
    3.1831   -0.9987    2.2752 C   0  0  0  0  0  0  0  0  0  0  0  0
    3.2549    0.3452    1.8196 C   0  0  0  0  0  0  0  0  0  0  0  0
    2.1750    1.2376    2.0349 C   0  0  0  0  0  0  0  0  0  0  0  0
    0.9963    0.7810    2.6624 C   0  0  0  0  0  0  0  0  0  0  0  0
    0.9313   -0.5483    3.1498 C   0  0  0  0  0  0  0  0  0  0  0  0
    2.0277   -1.4367    2.9843 C   0  0  0  0  0  0  0  0  0  0  0  0
    1.9340   -2.8160    3.4996 C   0  0  0  0  0  0  0  0  0  0  0  0
    0.8582   -3.3809    3.7013 O   0  0  0  0  0  0  0  0  0  0  0  0
    3.2838   -3.5642    3.7380 C   0  0  1  0  0  0  0  0  0  0  0  0
    1.9690   -7.2588    3.3917 C   0  0  0  0  0  0  0  0  0  0  0  0
    0.4344   -6.9830    3.2060 C   0  0  0  0  0  0  0  0  0  0  0  0
   -0.5340   -8.0438    3.7456 C   0  0  0  0  0  0  0  0  0  0  0  0
   -0.6432   -9.2570    2.8594 C   0  0  0  0  0  0  0  0  0  0  0  0
    0.3760  -10.0468    2.4762 C   0  0  0  0  0  0  0  0  0  0  0  0
    1.8178   -9.8507    2.8463 C   0  0  0  0  0  0  0  0  0  0  0  0
    2.3954   -8.4655    2.4682 C   0  0  0  0  0  0  0  0  0  0  0  0
    1.6191   -7.0630    7.2398 C   0  0  0  0  0  0  0  0  0  0  0  0
    0.6751   -6.0302    7.8332 C   0  0  0  0  0  0  0  0  0  0  0  0
   -0.3168   -6.3666    8.4983 O   0  0  0  0  0  0  0  0  0  0  0  0
   -1.8700   -3.1147    6.7693 H   0  0  0  0  0  0  0  0  0  0  0  0
   -1.5400   -4.8395    6.6464 H   0  0  0  0  0  0  0  0  0  0  0  0
   -0.6265   -3.6846    5.6813 H   0  0  0  0  0  0  0  0  0  0  0  0
    1.6843   -4.2923    8.4653 H   0  0  0  0  0  0  0  0  0  0  0  0
    2.1805   -3.3013    6.2046 H   0  0  0  0  0  0  0  0  0  0  0  0
    2.9551   -9.9281    5.8745 H   0  0  0  0  0  0  0  0  0  0  0  0
    4.6576   -9.5605    6.1110 H   0  0  0  0  0  0  0  0  0  0  0  0
    4.0705   -9.9587    4.5073 H   0  0  0  0  0  0  0  0  0  0  0  0
    5.5625   -7.5328    5.2724 H   0  0  0  0  0  0  0  0  0  0  0  0
    4.9300   -7.4777    3.6634 H   0  0  0  0  0  0  0  0  0  0  0  0
    4.5880   -5.4093    5.8631 H   0  0  0  0  0  0  0  0  0  0  0  0
    5.3801   -5.2683    4.3698 H   0  0  0  0  0  0  0  0  0  0  0  0
    2.4354   -6.1776    0.9468 H   0  0  0  0  0  0  0  0  0  0  0  0
    4.1816   -4.5070    0.4954 H   0  0  0  0  0  0  0  0  0  0  0  0
    1.4693   -3.0946   -1.2308 H   0  0  0  0  0  0  0  0  0  0  0  0
    1.7987   -4.7959   -0.9157 H   0  0  0  0  0  0  0  0  0  0  0  0
    3.1119   -3.6935   -1.3978 H   0  0  0  0  0  0  0  0  0  0  0  0
    5.7862   -3.8869    1.6386 H   0  0  0  0  0  0  0  0  0  0  0  0
    4.1257    0.6976    1.2981 H   0  0  0  0  0  0  0  0  0  0  0  0
    2.2184    2.2573    1.6830 H   0  0  0  0  0  0  0  0  0  0  0  0
    0.1567    1.4520    2.7702 H   0  0  0  0  0  0  0  0  0  0  0  0
    0.0315   -0.8797    3.6324 H   0  0  0  0  0  0  0  0  0  0  0  0
    3.8212   -3.0060    4.5008 H   0  0  0  0  0  0  0  0  0  0  0  0
    0.1726   -6.0366    3.7046 H   0  0  0  0  0  0  0  0  0  0  0  0
    0.2262   -6.7908    2.1493 H   0  0  0  0  0  0  0  0  0  0  0  0
   -0.2917   -8.3548    4.7676 H   0  0  0  0  0  0  0  0  0  0  0  0
   -1.5262   -7.5998    3.8134 H   0  0  0  0  0  0  0  0  0  0  0  0
   -1.6375   -9.5332    2.5554 H   0  0  0  0  0  0  0  0  0  0  0  0
    0.1744  -10.9087    1.8654 H   0  0  0  0  0  0  0  0  0  0  0  0
    1.8283  -10.0743    3.9047 H   0  0  0  0  0  0  0  0  0  0  0  0
    2.4254  -10.6168    2.3576 H   0  0  0  0  0  0  0  0  0  0  0  0
    2.1507   -8.2658    1.4260 H   0  0  0  0  0  0  0  0  0  0  0  0
    3.4848   -8.5635    2.4693 H   0  0  0  0  0  0  0  0  0  0  0  0
    1.1366   -8.0332    7.2753 H   0  0  0  0  0  0  0  0  0  0  0  0
    2.5404   -7.1150    7.8001 H   0  0  0  0  0  0  0  0  0  0  0  0
  1  2  1  0
  1 41  1  0
  1 42  1  0
  1 43  1  0
  2  3  1  0
  3 39  1  0
  3  4  1  0
  3 44  1  1
  4  5  2  0
  4 45  1  0
  5 12  1  0
  5  6  1  0
  6  7  2  0
  6 38  1  0
  7 31  1  0
  7  8  1  0
  8  9  1  0
  8 10  1  0
  9 46  1  0
  9 47  1  0
  9 48  1  0
 10 11  1  0
 10 49  1  0
 10 50  1  0
 12 11  1  1
 11 51  1  0
 11 52  1  0
 12 30  1  0
 12 13  1  0
 13 14  2  0
 13 31  1  0
 14 15  1  0
 14 53  1  0
 15 16  1  0
 15 18  1  0
 15 54  1  6
 16 17  1  0
 17 55  1  0
 17 56  1  0
 17 57  1  0
 18 30  1  0
 18 19  1  1
 18 20  1  0
 19 58  1  0
 20 21  2  0
 20 22  1  0
 22 27  2  0
 22 23  1  0
 23 24  2  0
 23 59  1  0
 24 25  1  0
 24 60  1  0
 25 26  2  0
 25 61  1  0
 26 27  1  0
 26 62  1  0
 27 28  1  0
 28 29  2  0
 28 30  1  0
 30 63  1  1
 31 37  1  0
 31 32  1  0
 32 33  1  0
 32 64  1  0
 32 65  1  0
 33 34  1  0
 33 66  1  0
 33 67  1  0
 34 35  2  0
 34 68  1  0
 35 36  1  0
 35 69  1  0
 36 37  1  0
 36 70  1  0
 36 71  1  0
 37 72  1  0
 37 73  1  0
 38 39  1  0
 38 74  1  0
 38 75  1  0
 39 40  2  0
M  END
>  <i_m_ct_stereo_status>  (42) 
1

>  <s_m_source_file>  (42) 
/var/tmp/pbs.5076255.sched01/tmp5t01l7na/0y8cq_bsf.sdf

>  <i_m_source_file_index>  (42) 
33

>  <i_lp_mmshare_version>  (42) 
48012

>  <i_f3d_flags>  (42) 
0

>  <s_epik_input>  (42) 
W0NIM11PW0NASF0oW0NIXT0xKUMoPU8pW0NIMl1DKEMxW0NAQF0yMzQpPUMoTihbQ0gzXSlbQ0gyXVtDSDJdMilDNShbQ0gyXVtDSDJdW0NIXT1bQ0hdW0NIMl1bQ0gyXTUpQzM9W0NIXVtDQEBIXShPW0NIM10pW0NAXTYoW09IXSlbQ0BIXTRDKD1PKWM3YyhDNj1PKVtjSF1bY0hdW2NIXVtjSF03

>  <s_epik_cmdline>  (42) 
J2VwaWtfcHl0aG9uJywgJy1waHQnLCAnMi4wJywgJy1waCcsICc3LjAnLCAnLXRuJywgJzgnLCAnLW1hJywgJzIwMCcsICctaW1hZScsICc8aW5maWxlLm1hZT4nLCAnLW9tYWUnLCAnPG91dGZpbGUubWFlPic=

>  <r_lp_tautomer_probability>  (42) 
0.981485

>  <r_epik_Ionization_Penalty>  (42) 
4.37644e-05

>  <r_epik_Ionization_Penalty_Charging>  (42) 
0

>  <r_epik_Ionization_Penalty_Neutral>  (42) 
4.37644e-05

>  <r_epik_State_Penalty>  (42) 
0.00848496

>  <r_epik_Charging_Adjusted_Penalty>  (42) 
0.00848496

>  <i_epik_Tot_Q>  (42) 
0

>  <i_epik_Tot_abs_Q>  (42) 
0

>  <s_lp_Force_Field>  (42) 
OPLS3e

>  <r_lp_Energy>  (42) 
122.844

>  <b_lp_Chiralities_Consistent>  (42) 
1

>  <s_lp_Variant>  (42) 
13:0-1

>  <s_i_glide_gridfile>  (42) 
pfpi4k_grid

>  <i_i_glide_lignum>  (42) 
33

>  <i_i_glide_rotatable_bonds>  (42) 
3

>  <r_i_docking_score>  (42) 
-2.23421

>  <r_i_glide_ligand_efficiency>  (42) 
-0.0558552

>  <r_i_glide_ligand_efficiency_sa>  (42) 
-0.191022

>  <r_i_glide_ligand_efficiency_ln>  (42) 
-0.47649

>  <r_i_glide_gscore>  (42) 
-2.23421

>  <r_i_glide_lipo>  (42) 
-0.275106

>  <r_i_glide_hbond>  (42) 
-0.189398

>  <r_i_glide_metal>  (42) 
-0

>  <r_i_glide_rewards>  (42) 
-0.0306906

>  <r_i_glide_evdw>  (42) 
-29.4786

>  <r_i_glide_ecoul>  (42) 
-1.74057

>  <r_i_glide_erotb>  (42) 
0

>  <r_i_glide_esite>  (42) 
-0.00399733

>  <r_i_glide_emodel>  (42) 
-33.7135

>  <r_i_glide_energy>  (42) 
-31.2191

>  <r_i_glide_einternal>  (42) 
2.85663

>  <r_i_glide_intrahb_reward>  (42) 
-0

>  <i_i_glide_confnum>  (42) 
3

>  <i_i_glide_posenum>  (42) 
1

>  <r_i_glide_eff_state_penalty>  (42) 
0

>  <ligand_id>  (42) 
13

>  <original_smiles>  (42) 
COC1C=C2C(=C3N(C)CCC24C(=CC(OC)C2(O)C(=O)c5ccccc5C(=O)C42)C32CCC=CCC2)CC1=O

>  <smiles>  (42) 
[H]OC12C(=O)c3c([H])c([H])c([H])c([H])c3C(=O)C1([H])C13C4=C([H])C([H])(OC([H])([H])[H])C(=O)C([H])([H])C4=C(N(C([H])([H])[H])C([H])([H])C1([H])[H])C1(C3=C([H])C2([H])OC([H])([H])[H])C([H])([H])C([H])([H])C([H])=C([H])C([H])([H])C1([H])[H]

$$$$
13:0:1
     RDKit          3D

 75 81  0  0  1  0  0  0  0  0999 V2000
   -1.0371   -3.6662    7.0658 C   0  0  0  0  0  0  0  0  0  0  0  0
   -0.1068   -3.3413    8.0967 O   0  0  0  0  0  0  0  0  0  0  0  0
    1.0449   -4.1937    8.1944 C   0  0  2  0  0  0  0  0  0  0  0  0
    1.8818   -4.1764    6.9031 C   0  0  0  0  0  0  0  0  0  0  0  0
    2.2308   -5.2668    6.1778 C   0  0  0  0  0  0  0  0  0  0  0  0
    1.8648   -6.5781    6.7095 C   0  0  0  0  0  0  0  0  0  0  0  0
    2.2683   -7.6149    5.9563 C   0  0  0  0  0  0  0  0  0  0  0  0
    3.5414   -8.0455    6.3097 N   0  0  0  0  0  0  0  0  0  0  0  0
    3.7844   -9.3913    6.8051 C   0  0  0  0  0  0  0  0  0  0  0  0
    4.7068   -7.3169    5.7866 C   0  0  0  0  0  0  0  0  0  0  0  0
    4.5314   -5.7630    5.6578 C   0  0  0  0  0  0  0  0  0  0  0  0
    3.2074   -5.2396    4.9581 C   0  0  1  0  0  0  0  0  0  0  0  0
    2.7756   -6.2893    3.8916 C   0  0  0  0  0  0  0  0  0  0  0  0
    2.9720   -6.0958    2.5630 C   0  0  0  0  0  0  0  0  0  0  0  0
    3.5529   -4.8661    1.8789 C   0  0  1  0  0  0  0  0  0  0  0  0
    2.5398   -4.2270    1.0997 O   0  0  0  0  0  0  0  0  0  0  0  0
    2.3891   -4.7026   -0.2347 C   0  0  0  0  0  0  0  0  0  0  0  0
    4.1980   -3.8831    2.9025 C   0  0  1  0  0  0  0  0  0  0  0  0
    5.4841   -4.4144    3.1229 O   0  0  0  0  0  0  0  0  0  0  0  0
    4.4202   -2.4804    2.2700 C   0  0  0  0  0  0  0  0  0  0  0  0
    5.4685   -2.2227    1.6671 O   0  0  0  0  0  0  0  0  0  0  0  0
    3.2960   -1.5065    2.4012 C   0  0  0  0  0  0  0  0  0  0  0  0
    3.3859   -0.2534    1.7463 C   0  0  0  0  0  0  0  0  0  0  0  0
    2.3107    0.6512    1.7922 C   0  0  0  0  0  0  0  0  0  0  0  0
    1.1275    0.3051    2.4660 C   0  0  0  0  0  0  0  0  0  0  0  0
    1.0386   -0.9267    3.1468 C   0  0  0  0  0  0  0  0  0  0  0  0
    2.1304   -1.8291    3.1467 C   0  0  0  0  0  0  0  0  0  0  0  0
    2.0150   -3.1275    3.8710 C   0  0  0  0  0  0  0  0  0  0  0  0
    0.9274   -3.6498    4.1166 O   0  0  0  0  0  0  0  0  0  0  0  0
    3.3657   -3.8153    4.2425 C   0  0  1  0  0  0  0  0  0  0  0  0
    2.0382   -7.5368    4.4308 C   0  0  0  0  0  0  0  0  0  0  0  0
    0.5086   -7.2891    4.2180 C   0  0  0  0  0  0  0  0  0  0  0  0
   -0.0494   -7.5253    2.8026 C   0  0  0  0  0  0  0  0  0  0  0  0
   -0.2860   -8.9867    2.4803 C   0  0  0  0  0  0  0  0  0  0  0  0
    0.3690  -10.0540    2.9757 C   0  0  0  0  0  0  0  0  0  0  0  0
    1.5524  -10.0541    3.9319 C   0  0  0  0  0  0  0  0  0  0  0  0
    2.5019   -8.8614    3.7255 C   0  0  0  0  0  0  0  0  0  0  0  0
    1.6155   -6.7343    8.2062 C   0  0  0  0  0  0  0  0  0  0  0  0
    0.6640   -5.6233    8.6310 C   0  0  0  0  0  0  0  0  0  0  0  0
   -0.3415   -5.8636    9.3047 O   0  0  0  0  0  0  0  0  0  0  0  0
   -1.8223   -2.9211    7.0222 H   0  0  0  0  0  0  0  0  0  0  0  0
   -1.5079   -4.6379    7.2153 H   0  0  0  0  0  0  0  0  0  0  0  0
   -0.5596   -3.6510    6.0924 H   0  0  0  0  0  0  0  0  0  0  0  0
    1.6785   -3.8054    8.9967 H   0  0  0  0  0  0  0  0  0  0  0  0
    2.2238   -3.1879    6.6200 H   0  0  0  0  0  0  0  0  0  0  0  0
    2.9015   -9.8045    7.2954 H   0  0  0  0  0  0  0  0  0  0  0  0
    4.6106   -9.4184    7.5174 H   0  0  0  0  0  0  0  0  0  0  0  0
    4.0418  -10.0551    5.9812 H   0  0  0  0  0  0  0  0  0  0  0  0
    5.5810   -7.5305    6.4058 H   0  0  0  0  0  0  0  0  0  0  0  0
    4.9450   -7.7281    4.8053 H   0  0  0  0  0  0  0  0  0  0  0  0
    4.6161   -5.3309    6.6579 H   0  0  0  0  0  0  0  0  0  0  0  0
    5.4402   -5.4213    5.1834 H   0  0  0  0  0  0  0  0  0  0  0  0
    2.6698   -6.8363    1.8475 H   0  0  0  0  0  0  0  0  0  0  0  0
    4.3318   -5.2250    1.2011 H   0  0  0  0  0  0  0  0  0  0  0  0
    1.6718   -4.0826   -0.7792 H   0  0  0  0  0  0  0  0  0  0  0  0
    2.0268   -5.7312   -0.2571 H   0  0  0  0  0  0  0  0  0  0  0  0
    3.3326   -4.6462   -0.7787 H   0  0  0  0  0  0  0  0  0  0  0  0
    5.3772   -5.3085    3.4224 H   0  0  0  0  0  0  0  0  0  0  0  0
    4.2770    0.0116    1.1947 H   0  0  0  0  0  0  0  0  0  0  0  0
    2.3753    1.6042    1.2816 H   0  0  0  0  0  0  0  0  0  0  0  0
    0.2854    0.9892    2.4563 H   0  0  0  0  0  0  0  0  0  0  0  0
    0.1272   -1.1796    3.6668 H   0  0  0  0  0  0  0  0  0  0  0  0
    3.8842   -3.1494    4.9300 H   0  0  0  0  0  0  0  0  0  0  0  0
   -0.0543   -7.9004    4.9207 H   0  0  0  0  0  0  0  0  0  0  0  0
    0.2488   -6.2622    4.4945 H   0  0  0  0  0  0  0  0  0  0  0  0
   -1.0226   -7.0287    2.7500 H   0  0  0  0  0  0  0  0  0  0  0  0
    0.5650   -7.0799    2.0195 H   0  0  0  0  0  0  0  0  0  0  0  0
   -1.0610   -9.1674    1.7577 H   0  0  0  0  0  0  0  0  0  0  0  0
    0.0716  -11.0375    2.6432 H   0  0  0  0  0  0  0  0  0  0  0  0
    1.2144  -10.1601    4.9663 H   0  0  0  0  0  0  0  0  0  0  0  0
    2.1311  -10.9540    3.7123 H   0  0  0  0  0  0  0  0  0  0  0  0
    2.6363   -8.7426    2.6490 H   0  0  0  0  0  0  0  0  0  0  0  0
    3.4973   -9.1728    4.0548 H   0  0  0  0  0  0  0  0  0  0  0  0
    1.1300   -7.6886    8.3965 H   0  0  0  0  0  0  0  0  0  0  0  0
    2.5333   -6.6998    8.7867 H   0  0  0  0  0  0  0  0  0  0  0  0
  1  2  1  0
  1 41  1  0
  1 42  1  0
  1 43  1  0
  2  3  1  0
  3 39  1  0
  3  4  1  0
  3 44  1  1
  4  5  2  0
  4 45  1  0
  5 12  1  0
  5  6  1  0
  6  7  2  0
  6 38  1  0
  7 31  1  0
  7  8  1  0
  8  9  1  0
  8 10  1  0
  9 46  1  0
  9 47  1  0
  9 48  1  0
 10 11  1  0
 10 49  1  0
 10 50  1  0
 12 11  1  1
 11 51  1  0
 11 52  1  0
 12 30  1  0
 12 13  1  0
 13 14  2  0
 13 31  1  0
 14 15  1  0
 14 53  1  0
 15 16  1  0
 15 18  1  0
 15 54  1  6
 16 17  1  0
 17 55  1  0
 17 56  1  0
 17 57  1  0
 18 30  1  0
 18 19  1  1
 18 20  1  0
 19 58  1  0
 20 21  2  0
 20 22  1  0
 22 27  2  0
 22 23  1  0
 23 24  2  0
 23 59  1  0
 24 25  1  0
 24 60  1  0
 25 26  2  0
 25 61  1  0
 26 27  1  0
 26 62  1  0
 27 28  1  0
 28 29  2  0
 28 30  1  0
 30 63  1  1
 31 37  1  0
 31 32  1  0
 32 33  1  0
 32 64  1  0
 32 65  1  0
 33 34  1  0
 33 66  1  0
 33 67  1  0
 34 35  2  0
 34 68  1  0
 35 36  1  0
 35 69  1  0
 36 37  1  0
 36 70  1  0
 36 71  1  0
 37 72  1  0
 37 73  1  0
 38 39  1  0
 38 74  1  0
 38 75  1  0
 39 40  2  0
M  END
>  <i_m_ct_stereo_status>  (43) 
1

>  <s_m_source_file>  (43) 
/var/tmp/pbs.5076255.sched01/tmp5t01l7na/0y8cq_bsf.sdf

>  <i_m_source_file_index>  (43) 
33

>  <i_lp_mmshare_version>  (43) 
48012

>  <i_f3d_flags>  (43) 
0

>  <s_epik_input>  (43) 
W0NIM11PW0NASF0oW0NIXT0xKUMoPU8pW0NIMl1DKEMxW0NAQF0yMzQpPUMoTihbQ0gzXSlbQ0gyXVtDSDJdMilDNShbQ0gyXVtDSDJdW0NIXT1bQ0hdW0NIMl1bQ0gyXTUpQzM9W0NIXVtDQEBIXShPW0NIM10pW0NAXTYoW09IXSlbQ0BIXTRDKD1PKWM3YyhDNj1PKVtjSF1bY0hdW2NIXVtjSF03

>  <s_epik_cmdline>  (43) 
J2VwaWtfcHl0aG9uJywgJy1waHQnLCAnMi4wJywgJy1waCcsICc3LjAnLCAnLXRuJywgJzgnLCAnLW1hJywgJzIwMCcsICctaW1hZScsICc8aW5maWxlLm1hZT4nLCAnLW9tYWUnLCAnPG91dGZpbGUubWFlPic=

>  <r_lp_tautomer_probability>  (43) 
0.981485

>  <r_epik_Ionization_Penalty>  (43) 
4.37644e-05

>  <r_epik_Ionization_Penalty_Charging>  (43) 
0

>  <r_epik_Ionization_Penalty_Neutral>  (43) 
4.37644e-05

>  <r_epik_State_Penalty>  (43) 
0.00848496

>  <r_epik_Charging_Adjusted_Penalty>  (43) 
0.00848496

>  <i_epik_Tot_Q>  (43) 
0

>  <i_epik_Tot_abs_Q>  (43) 
0

>  <s_lp_Force_Field>  (43) 
OPLS3e

>  <r_lp_Energy>  (43) 
122.844

>  <b_lp_Chiralities_Consistent>  (43) 
1

>  <s_lp_Variant>  (43) 
13:0-1

>  <s_i_glide_gridfile>  (43) 
pfpi4k_grid

>  <i_i_glide_lignum>  (43) 
33

>  <i_i_glide_rotatable_bonds>  (43) 
3

>  <r_i_docking_score>  (43) 
-2.06664

>  <r_i_glide_ligand_efficiency>  (43) 
-0.051666

>  <r_i_glide_ligand_efficiency_sa>  (43) 
-0.176695

>  <r_i_glide_ligand_efficiency_ln>  (43) 
-0.440754

>  <r_i_glide_gscore>  (43) 
-2.06664

>  <r_i_glide_lipo>  (43) 
-0.0290785

>  <r_i_glide_hbond>  (43) 
-0.263188

>  <r_i_glide_metal>  (43) 
-0

>  <r_i_glide_rewards>  (43) 
-0.0331334

>  <r_i_glide_evdw>  (43) 
-26.7857

>  <r_i_glide_ecoul>  (43) 
-2.63955

>  <r_i_glide_erotb>  (43) 
0

>  <r_i_glide_esite>  (43) 
-0.00602521

>  <r_i_glide_emodel>  (43) 
-32.4185

>  <r_i_glide_energy>  (43) 
-29.4252

>  <r_i_glide_einternal>  (43) 
1.36639

>  <r_i_glide_intrahb_reward>  (43) 
-0

>  <i_i_glide_confnum>  (43) 
2

>  <i_i_glide_posenum>  (43) 
33

>  <r_i_glide_eff_state_penalty>  (43) 
0

>  <ligand_id>  (43) 
13

>  <original_smiles>  (43) 
COC1C=C2C(=C3N(C)CCC24C(=CC(OC)C2(O)C(=O)c5ccccc5C(=O)C42)C32CCC=CCC2)CC1=O

>  <smiles>  (43) 
[H]OC12C(=O)c3c([H])c([H])c([H])c([H])c3C(=O)C1([H])C13C4=C([H])C([H])(OC([H])([H])[H])C(=O)C([H])([H])C4=C(N(C([H])([H])[H])C([H])([H])C1([H])[H])C1(C3=C([H])C2([H])OC([H])([H])[H])C([H])([H])C([H])([H])C([H])=C([H])C([H])([H])C1([H])[H]

$$$$
13:0:2
     RDKit          3D

 75 81  0  0  1  0  0  0  0  0999 V2000
    0.2919   -3.3823    6.7199 C   0  0  0  0  0  0  0  0  0  0  0  0
    1.4712   -3.6020    7.4903 O   0  0  0  0  0  0  0  0  0  0  0  0
    2.2267   -4.7850    7.1840 C   0  0  2  0  0  0  0  0  0  0  0  0
    2.7626   -4.7827    5.7411 C   0  0  0  0  0  0  0  0  0  0  0  0
    2.5651   -5.7626    4.8430 C   0  0  0  0  0  0  0  0  0  0  0  0
    1.8608   -6.9611    5.2916 C   0  0  0  0  0  0  0  0  0  0  0  0
    1.7206   -7.8994    4.3627 C   0  0  0  0  0  0  0  0  0  0  0  0
    2.8000   -8.7779    4.3106 N   0  0  0  0  0  0  0  0  0  0  0  0
    2.6669  -10.2052    4.5773 C   0  0  0  0  0  0  0  0  0  0  0  0
    4.0169   -8.3777    3.5909 C   0  0  0  0  0  0  0  0  0  0  0  0
    4.3802   -6.8603    3.6962 C   0  0  0  0  0  0  0  0  0  0  0  0
    3.2252   -5.8158    3.4196 C   0  0  1  0  0  0  0  0  0  0  0  0
    2.2392   -6.4345    2.4024 C   0  0  0  0  0  0  0  0  0  0  0  0
    2.1894   -6.0388    1.0862 C   0  0  0  0  0  0  0  0  0  0  0  0
    3.0459   -4.9787    0.4197 C   0  0  1  0  0  0  0  0  0  0  0  0
    2.2235   -3.8912   -0.0164 O   0  0  0  0  0  0  0  0  0  0  0  0
    1.5786   -4.0536   -1.2751 C   0  0  0  0  0  0  0  0  0  0  0  0
    4.1961   -4.4888    1.3512 C   0  0  1  0  0  0  0  0  0  0  0  0
    5.2396   -5.4287    1.1832 O   0  0  0  0  0  0  0  0  0  0  0  0
    4.7839   -3.1513    0.8588 C   0  0  0  0  0  0  0  0  0  0  0  0
    5.7249   -3.1310    0.0468 O   0  0  0  0  0  0  0  0  0  0  0  0
    4.1321   -1.9345    1.3857 C   0  0  0  0  0  0  0  0  0  0  0  0
    4.5339   -0.7026    0.8744 C   0  0  0  0  0  0  0  0  0  0  0  0
    3.8531    0.4469    1.2665 C   0  0  0  0  0  0  0  0  0  0  0  0
    2.7894    0.4360    2.1944 C   0  0  0  0  0  0  0  0  0  0  0  0
    2.4059   -0.7975    2.7427 C   0  0  0  0  0  0  0  0  0  0  0  0
    3.0852   -1.9815    2.3568 C   0  0  0  0  0  0  0  0  0  0  0  0
    2.6695   -3.2798    2.9177 C   0  0  0  0  0  0  0  0  0  0  0  0
    1.5350   -3.4685    3.3625 O   0  0  0  0  0  0  0  0  0  0  0  0
    3.7321   -4.4175    2.8565 C   0  0  1  0  0  0  0  0  0  0  0  0
    1.2313   -7.4438    2.9763 C   0  0  0  0  0  0  0  0  0  0  0  0
   -0.1110   -6.6583    3.1220 C   0  0  0  0  0  0  0  0  0  0  0  0
   -1.2333   -7.3687    3.8968 C   0  0  0  0  0  0  0  0  0  0  0  0
   -1.9187   -8.4113    3.0656 C   0  0  0  0  0  0  0  0  0  0  0  0
   -1.3572   -9.4464    2.4570 C   0  0  0  0  0  0  0  0  0  0  0  0
    0.1019   -9.7766    2.5283 C   0  0  0  0  0  0  0  0  0  0  0  0
    1.0280   -8.6479    2.0189 C   0  0  0  0  0  0  0  0  0  0  0  0
    1.8489   -7.3208    6.7698 C   0  0  0  0  0  0  0  0  0  0  0  0
    1.4465   -6.0708    7.5244 C   0  0  0  0  0  0  0  0  0  0  0  0
    0.5517   -6.0945    8.3793 O   0  0  0  0  0  0  0  0  0  0  0  0
   -0.1485   -2.4261    6.9944 H   0  0  0  0  0  0  0  0  0  0  0  0
   -0.4610   -4.1557    6.8663 H   0  0  0  0  0  0  0  0  0  0  0  0
    0.5206   -3.3403    5.6598 H   0  0  0  0  0  0  0  0  0  0  0  0
    3.0966   -4.7890    7.8485 H   0  0  0  0  0  0  0  0  0  0  0  0
    3.3679   -3.9127    5.5089 H   0  0  0  0  0  0  0  0  0  0  0  0
    1.8197  -10.4052    5.2254 H   0  0  0  0  0  0  0  0  0  0  0  0
    3.5544  -10.6341    5.0548 H   0  0  0  0  0  0  0  0  0  0  0  0
    2.5173  -10.7377    3.6434 H   0  0  0  0  0  0  0  0  0  0  0  0
    4.8486   -8.9760    3.9562 H   0  0  0  0  0  0  0  0  0  0  0  0
    3.9353   -8.6473    2.5365 H   0  0  0  0  0  0  0  0  0  0  0  0
    4.7932   -6.6802    4.6941 H   0  0  0  0  0  0  0  0  0  0  0  0
    5.2375   -6.7412    3.0564 H   0  0  0  0  0  0  0  0  0  0  0  0
    1.4592   -6.4579    0.4266 H   0  0  0  0  0  0  0  0  0  0  0  0
    3.5122   -5.4378   -0.4557 H   0  0  0  0  0  0  0  0  0  0  0  0
    1.0410   -3.1455   -1.5497 H   0  0  0  0  0  0  0  0  0  0  0  0
    0.8688   -4.8827   -1.2641 H   0  0  0  0  0  0  0  0  0  0  0  0
    2.2968   -4.2163   -2.0742 H   0  0  0  0  0  0  0  0  0  0  0  0
    4.8943   -6.2743    1.4139 H   0  0  0  0  0  0  0  0  0  0  0  0
    5.3412   -0.5906    0.1588 H   0  0  0  0  0  0  0  0  0  0  0  0
    4.2097    1.3340    0.7779 H   0  0  0  0  0  0  0  0  0  0  0  0
    2.2972    1.3705    2.4639 H   0  0  0  0  0  0  0  0  0  0  0  0
    1.5863   -0.8257    3.4492 H   0  0  0  0  0  0  0  0  0  0  0  0
    4.5775   -4.0933    3.4598 H   0  0  0  0  0  0  0  0  0  0  0  0
    0.0468   -5.7036    3.6309 H   0  0  0  0  0  0  0  0  0  0  0  0
   -0.4829   -6.3878    2.1251 H   0  0  0  0  0  0  0  0  0  0  0  0
   -0.8950   -7.8045    4.8397 H   0  0  0  0  0  0  0  0  0  0  0  0
   -1.9913   -6.6414    4.1832 H   0  0  0  0  0  0  0  0  0  0  0  0
   -2.9787   -8.3386    3.0510 H   0  0  0  0  0  0  0  0  0  0  0  0
   -1.9563  -10.1953    1.9790 H   0  0  0  0  0  0  0  0  0  0  0  0
    0.2403  -10.0630    3.5715 H   0  0  0  0  0  0  0  0  0  0  0  0
    0.2891  -10.6872    1.9566 H   0  0  0  0  0  0  0  0  0  0  0  0
    0.6314   -8.2388    1.0870 H   0  0  0  0  0  0  0  0  0  0  0  0
    1.9724   -9.1292    1.7355 H   0  0  0  0  0  0  0  0  0  0  0  0
    1.0966   -8.0877    6.9432 H   0  0  0  0  0  0  0  0  0  0  0  0
    2.8132   -7.7024    7.1053 H   0  0  0  0  0  0  0  0  0  0  0  0
  1  2  1  0
  1 41  1  0
  1 42  1  0
  1 43  1  0
  2  3  1  0
  3 39  1  0
  3  4  1  0
  3 44  1  1
  4  5  2  0
  4 45  1  0
  5 12  1  0
  5  6  1  0
  6  7  2  0
  6 38  1  0
  7 31  1  0
  7  8  1  0
  8  9  1  0
  8 10  1  0
  9 46  1  0
  9 47  1  0
  9 48  1  0
 10 11  1  0
 10 49  1  0
 10 50  1  0
 12 11  1  1
 11 51  1  0
 11 52  1  0
 12 30  1  0
 12 13  1  0
 13 14  2  0
 13 31  1  0
 14 15  1  0
 14 53  1  0
 15 16  1  0
 15 18  1  0
 15 54  1  6
 16 17  1  0
 17 55  1  0
 17 56  1  0
 17 57  1  0
 18 30  1  0
 18 19  1  1
 18 20  1  0
 19 58  1  0
 20 21  2  0
 20 22  1  0
 22 27  2  0
 22 23  1  0
 23 24  2  0
 23 59  1  0
 24 25  1  0
 24 60  1  0
 25 26  2  0
 25 61  1  0
 26 27  1  0
 26 62  1  0
 27 28  1  0
 28 29  2  0
 28 30  1  0
 30 63  1  1
 31 37  1  0
 31 32  1  0
 32 33  1  0
 32 64  1  0
 32 65  1  0
 33 34  1  0
 33 66  1  0
 33 67  1  0
 34 35  2  0
 34 68  1  0
 35 36  1  0
 35 69  1  0
 36 37  1  0
 36 70  1  0
 36 71  1  0
 37 72  1  0
 37 73  1  0
 38 39  1  0
 38 74  1  0
 38 75  1  0
 39 40  2  0
M  END
>  <i_m_ct_stereo_status>  (44) 
1

>  <s_m_source_file>  (44) 
/var/tmp/pbs.5076255.sched01/tmp5t01l7na/0y8cq_bsf.sdf

>  <i_m_source_file_index>  (44) 
33

>  <i_lp_mmshare_version>  (44) 
48012

>  <i_f3d_flags>  (44) 
0

>  <s_epik_input>  (44) 
W0NIM11PW0NASF0oW0NIXT0xKUMoPU8pW0NIMl1DKEMxW0NAQF0yMzQpPUMoTihbQ0gzXSlbQ0gyXVtDSDJdMilDNShbQ0gyXVtDSDJdW0NIXT1bQ0hdW0NIMl1bQ0gyXTUpQzM9W0NIXVtDQEBIXShPW0NIM10pW0NAXTYoW09IXSlbQ0BIXTRDKD1PKWM3YyhDNj1PKVtjSF1bY0hdW2NIXVtjSF03

>  <s_epik_cmdline>  (44) 
J2VwaWtfcHl0aG9uJywgJy1waHQnLCAnMi4wJywgJy1waCcsICc3LjAnLCAnLXRuJywgJzgnLCAnLW1hJywgJzIwMCcsICctaW1hZScsICc8aW5maWxlLm1hZT4nLCAnLW9tYWUnLCAnPG91dGZpbGUubWFlPic=

>  <r_lp_tautomer_probability>  (44) 
0.981485

>  <r_epik_Ionization_Penalty>  (44) 
4.37644e-05

>  <r_epik_Ionization_Penalty_Charging>  (44) 
0

>  <r_epik_Ionization_Penalty_Neutral>  (44) 
4.37644e-05

>  <r_epik_State_Penalty>  (44) 
0.00848496

>  <r_epik_Charging_Adjusted_Penalty>  (44) 
0.00848496

>  <i_epik_Tot_Q>  (44) 
0

>  <i_epik_Tot_abs_Q>  (44) 
0

>  <s_lp_Force_Field>  (44) 
OPLS3e

>  <r_lp_Energy>  (44) 
122.844

>  <b_lp_Chiralities_Consistent>  (44) 
1

>  <s_lp_Variant>  (44) 
13:0-1

>  <s_i_glide_gridfile>  (44) 
pfpi4k_grid

>  <i_i_glide_lignum>  (44) 
33

>  <i_i_glide_rotatable_bonds>  (44) 
3

>  <r_i_docking_score>  (44) 
-1.95802

>  <r_i_glide_ligand_efficiency>  (44) 
-0.0489504

>  <r_i_glide_ligand_efficiency_sa>  (44) 
-0.167408

>  <r_i_glide_ligand_efficiency_ln>  (44) 
-0.417587

>  <r_i_glide_gscore>  (44) 
-1.95802

>  <r_i_glide_lipo>  (44) 
-0.429968

>  <r_i_glide_hbond>  (44) 
0

>  <r_i_glide_metal>  (44) 
-0

>  <r_i_glide_rewards>  (44) 
-0.0351843

>  <r_i_glide_evdw>  (44) 
-28.2169

>  <r_i_glide_ecoul>  (44) 
-0.514462

>  <r_i_glide_erotb>  (44) 
0

>  <r_i_glide_esite>  (44) 
-0.0048525

>  <r_i_glide_emodel>  (44) 
-31.4591

>  <r_i_glide_energy>  (44) 
-28.7313

>  <r_i_glide_einternal>  (44) 
1.07613

>  <r_i_glide_intrahb_reward>  (44) 
-0

>  <i_i_glide_confnum>  (44) 
3

>  <i_i_glide_posenum>  (44) 
24

>  <r_i_glide_eff_state_penalty>  (44) 
0

>  <ligand_id>  (44) 
13

>  <original_smiles>  (44) 
COC1C=C2C(=C3N(C)CCC24C(=CC(OC)C2(O)C(=O)c5ccccc5C(=O)C42)C32CCC=CCC2)CC1=O

>  <smiles>  (44) 
[H]OC12C(=O)c3c([H])c([H])c([H])c([H])c3C(=O)C1([H])C13C4=C([H])C([H])(OC([H])([H])[H])C(=O)C([H])([H])C4=C(N(C([H])([H])[H])C([H])([H])C1([H])[H])C1(C3=C([H])C2([H])OC([H])([H])[H])C([H])([H])C([H])([H])C([H])=C([H])C([H])([H])C1([H])[H]

$$$$
14:0:0
     RDKit          3D

 36 40  0  0  1  0  0  0  0  0999 V2000
    2.3073    6.8199    4.4862 C   0  0  0  0  0  0  0  0  0  0  0  0
    3.2906    5.8969    4.0951 C   0  0  0  0  0  0  0  0  0  0  0  0
    2.9104    4.6016    3.6941 C   0  0  0  0  0  0  0  0  0  0  0  0
    1.5450    4.2189    3.6781 C   0  0  0  0  0  0  0  0  0  0  0  0
    1.1315    2.9184    3.2832 C   0  0  0  0  0  0  0  0  0  0  0  0
   -0.2450    2.6119    3.3090 C   0  0  0  0  0  0  0  0  0  0  0  0
   -1.1507    3.6101    3.7030 C   0  0  0  0  0  0  0  0  0  0  0  0
   -0.7738    4.8501    4.0781 N   0  0  0  0  0  0  0  0  0  0  0  0
    0.5469    5.1598    4.0620 C   0  0  0  0  0  0  0  0  0  0  0  0
    0.9515    6.4473    4.4763 C   0  0  0  0  0  0  0  0  0  0  0  0
   -0.7372    1.2448    2.8663 C   0  0  0  0  0  0  0  0  0  0  0  0
    0.2735    0.2447    2.9149 O   0  0  0  0  0  0  0  0  0  0  0  0
    1.4460    0.6206    2.2029 C   0  0  1  0  0  0  0  0  0  0  0  0
    2.1217    1.8291    2.9014 C   0  0  2  0  0  0  0  0  0  0  0  0
    2.7881    1.3992    4.0841 O   0  0  0  0  0  0  0  0  0  0  0  0
    3.8383    0.4809    3.8544 C   0  0  0  0  0  0  0  0  0  0  0  0
    3.2760   -0.8295    3.2844 C   0  0  2  0  0  0  0  0  0  0  0  0
    4.3082   -1.5953    2.7032 O   0  0  0  0  0  0  0  0  0  0  0  0
    4.4404   -1.1433    1.3980 C   0  0  0  0  0  0  0  0  0  0  0  0
    3.2857   -0.4822    1.0075 O   0  0  0  0  0  0  0  0  0  0  0  0
    2.3713   -0.6028    2.0796 C   0  0  2  0  0  0  0  0  0  0  0  0
    2.5839    7.8211    4.7881 H   0  0  0  0  0  0  0  0  0  0  0  0
    4.3338    6.1839    4.1017 H   0  0  0  0  0  0  0  0  0  0  0  0
    3.6849    3.9111    3.4038 H   0  0  0  0  0  0  0  0  0  0  0  0
   -2.2126    3.4018    3.7331 H   0  0  0  0  0  0  0  0  0  0  0  0
    0.2147    7.1752    4.7627 H   0  0  0  0  0  0  0  0  0  0  0  0
   -1.5522    0.9332    3.5176 H   0  0  0  0  0  0  0  0  0  0  0  0
   -1.1378    1.3180    1.8516 H   0  0  0  0  0  0  0  0  0  0  0  0
    1.1267    0.9045    1.1977 H   0  0  0  0  0  0  0  0  0  0  0  0
    2.8479    2.2472    2.2030 H   0  0  0  0  0  0  0  0  0  0  0  0
    4.5724    0.9335    3.1895 H   0  0  0  0  0  0  0  0  0  0  0  0
    4.3416    0.2872    4.7990 H   0  0  0  0  0  0  0  0  0  0  0  0
    2.7610   -1.3918    4.0615 H   0  0  0  0  0  0  0  0  0  0  0  0
    5.2610   -0.4262    1.3406 H   0  0  0  0  0  0  0  0  0  0  0  0
    4.6568   -1.9926    0.7439 H   0  0  0  0  0  0  0  0  0  0  0  0
    1.7821   -1.5027    1.8922 H   0  0  0  0  0  0  0  0  0  0  0  0
  1 10  2  0
  1  2  1  0
  1 22  1  0
  2  3  2  0
  2 23  1  0
  3  4  1  0
  3 24  1  0
  4  9  2  0
  4  5  1  0
  5 14  1  0
  5  6  2  0
  6  7  1  0
  6 11  1  0
  7  8  2  0
  7 25  1  0
  8  9  1  0
  9 10  1  0
 10 26  1  0
 11 12  1  0
 11 27  1  0
 11 28  1  0
 12 13  1  0
 13 21  1  0
 13 14  1  0
 13 29  1  6
 14 15  1  0
 14 30  1  6
 15 16  1  0
 16 17  1  0
 16 31  1  0
 16 32  1  0
 17 21  1  0
 17 18  1  0
 17 33  1  1
 18 19  1  0
 19 20  1  0
 19 34  1  0
 19 35  1  0
 20 21  1  0
 21 36  1  6
M  END
>  <i_m_ct_stereo_status>  (45) 
1

>  <s_m_source_file>  (45) 
/var/tmp/pbs.5076255.sched01/tmp5t01l7na/0y8cq_bsf.sdf

>  <i_m_source_file_index>  (45) 
35

>  <i_lp_mmshare_version>  (45) 
48012

>  <i_f3d_flags>  (45) 
0

>  <s_epik_input>  (45) 
W2NIXTFbY0hdW2NIXVtjSF1jMm5bY0hdYyhjM2MxMilbQ0gyXU9bQ0BIXTRbQ0BASF0zT1tDSDJdW0NASF01W0NAQEhdNE9bQ0gyXU81

>  <s_epik_cmdline>  (45) 
J2VwaWtfcHl0aG9uJywgJy1waHQnLCAnMi4wJywgJy1waCcsICc3LjAnLCAnLXRuJywgJzgnLCAnLW1hJywgJzIwMCcsICctaW1hZScsICc8aW5maWxlLm1hZT4nLCAnLW9tYWUnLCAnPG91dGZpbGUubWFlPic=

>  <r_epik_Ionization_Penalty>  (45) 
0.00204838

>  <r_epik_Ionization_Penalty_Charging>  (45) 
0

>  <r_epik_Ionization_Penalty_Neutral>  (45) 
0.00204838

>  <r_epik_State_Penalty>  (45) 
0.00140151

>  <r_epik_Charging_Adjusted_Penalty>  (45) 
0.00140151

>  <i_epik_Tot_Q>  (45) 
0

>  <i_epik_Tot_abs_Q>  (45) 
0

>  <s_epik_Chemistry_Notes>  (45) 
This compound contains an acetal/aminal-like group ( X-CH(R)-Y where X, Y are N, S, or O) that may be acid/base labile, releasing an aldehyde.

>  <s_lp_Force_Field>  (45) 
OPLS3e

>  <r_lp_Energy>  (45) 
28.8403

>  <b_lp_Chiralities_Consistent>  (45) 
1

>  <s_lp_Variant>  (45) 
14:0-1

>  <s_i_glide_gridfile>  (45) 
pfpi4k_grid

>  <i_i_glide_lignum>  (45) 
35

>  <i_i_glide_rotatable_bonds>  (45) 
0

>  <r_i_docking_score>  (45) 
-3.11228

>  <r_i_glide_ligand_efficiency>  (45) 
-0.148204

>  <r_i_glide_ligand_efficiency_sa>  (45) 
-0.408883

>  <r_i_glide_ligand_efficiency_ln>  (45) 
-0.769505

>  <r_i_glide_gscore>  (45) 
-3.11228

>  <r_i_glide_lipo>  (45) 
-0.0499028

>  <r_i_glide_hbond>  (45) 
-0.0553629

>  <r_i_glide_metal>  (45) 
-0

>  <r_i_glide_rewards>  (45) 
-1.51763

>  <r_i_glide_evdw>  (45) 
-23.0742

>  <r_i_glide_ecoul>  (45) 
-2.23783

>  <r_i_glide_erotb>  (45) 
0

>  <r_i_glide_esite>  (45) 
0

>  <r_i_glide_emodel>  (45) 
-30.338

>  <r_i_glide_energy>  (45) 
-25.312

>  <r_i_glide_einternal>  (45) 
0

>  <r_i_glide_intrahb_reward>  (45) 
-0

>  <i_i_glide_confnum>  (45) 
1

>  <i_i_glide_posenum>  (45) 
7

>  <r_i_glide_eff_state_penalty>  (45) 
0

>  <ligand_id>  (45) 
14

>  <original_smiles>  (45) 
c1ccc2c3c(cnc2c1)COC1C3OCC2OCOC21

>  <smiles>  (45) 
[H]c1nc2c([H])c([H])c([H])c([H])c2c2c1C([H])([H])OC1([H])C2([H])OC([H])([H])C2([H])OC([H])([H])OC21[H]

$$$$
14:0:1
     RDKit          3D

 36 40  0  0  1  0  0  0  0  0999 V2000
    1.5580   -2.1316    4.7489 C   0  0  0  0  0  0  0  0  0  0  0  0
    1.2388   -1.7806    6.0741 C   0  0  0  0  0  0  0  0  0  0  0  0
    0.4210   -0.6633    6.3246 C   0  0  0  0  0  0  0  0  0  0  0  0
   -0.0919    0.1129    5.2543 C   0  0  0  0  0  0  0  0  0  0  0  0
   -0.9135    1.2493    5.4705 C   0  0  0  0  0  0  0  0  0  0  0  0
   -1.3679    1.9771    4.3488 C   0  0  0  0  0  0  0  0  0  0  0  0
   -0.9780    1.5575    3.0644 C   0  0  0  0  0  0  0  0  0  0  0  0
   -0.1928    0.4842    2.8569 N   0  0  0  0  0  0  0  0  0  0  0  0
    0.2428   -0.2340    3.9128 C   0  0  0  0  0  0  0  0  0  0  0  0
    1.0606   -1.3586    3.6842 C   0  0  0  0  0  0  0  0  0  0  0  0
   -2.2559    3.1908    4.5268 C   0  0  0  0  0  0  0  0  0  0  0  0
   -2.1843    3.7425    5.8334 O   0  0  0  0  0  0  0  0  0  0  0  0
   -2.4062    2.7939    6.8640 C   0  0  1  0  0  0  0  0  0  0  0  0
   -1.2562    1.7559    6.8650 C   0  0  2  0  0  0  0  0  0  0  0  0
   -0.0852    2.3213    7.4427 O   0  0  0  0  0  0  0  0  0  0  0  0
   -0.2359    2.7022    8.7979 C   0  0  0  0  0  0  0  0  0  0  0  0
   -1.2591    3.8442    8.9120 C   0  0  2  0  0  0  0  0  0  0  0  0
   -1.7061    3.9831   10.2410 O   0  0  0  0  0  0  0  0  0  0  0  0
   -2.7505    3.0816   10.4015 C   0  0  0  0  0  0  0  0  0  0  0  0
   -3.2813    2.7598    9.1566 O   0  0  0  0  0  0  0  0  0  0  0  0
   -2.5706    3.5288    8.2078 C   0  0  2  0  0  0  0  0  0  0  0  0
    2.1898   -2.9861    4.5505 H   0  0  0  0  0  0  0  0  0  0  0  0
    1.6358   -2.3638    6.8957 H   0  0  0  0  0  0  0  0  0  0  0  0
    0.2190   -0.4030    7.3508 H   0  0  0  0  0  0  0  0  0  0  0  0
   -1.2984    2.0973    2.1830 H   0  0  0  0  0  0  0  0  0  0  0  0
    1.3167   -1.6201    2.6682 H   0  0  0  0  0  0  0  0  0  0  0  0
   -1.9600    3.9621    3.8144 H   0  0  0  0  0  0  0  0  0  0  0  0
   -3.2900    2.9192    4.3014 H   0  0  0  0  0  0  0  0  0  0  0  0
   -3.3519    2.3018    6.6371 H   0  0  0  0  0  0  0  0  0  0  0  0
   -1.5807    0.9112    7.4730 H   0  0  0  0  0  0  0  0  0  0  0  0
   -0.5280    1.8322    9.3875 H   0  0  0  0  0  0  0  0  0  0  0  0
    0.7293    3.0372    9.1711 H   0  0  0  0  0  0  0  0  0  0  0  0
   -0.8331    4.7774    8.5441 H   0  0  0  0  0  0  0  0  0  0  0  0
   -2.3798    2.1646   10.8639 H   0  0  0  0  0  0  0  0  0  0  0  0
   -3.5036    3.5147   11.0625 H   0  0  0  0  0  0  0  0  0  0  0  0
   -3.1363    4.4503    8.0736 H   0  0  0  0  0  0  0  0  0  0  0  0
  1 10  2  0
  1  2  1  0
  1 22  1  0
  2  3  2  0
  2 23  1  0
  3  4  1  0
  3 24  1  0
  4  9  2  0
  4  5  1  0
  5 14  1  0
  5  6  2  0
  6  7  1  0
  6 11  1  0
  7  8  2  0
  7 25  1  0
  8  9  1  0
  9 10  1  0
 10 26  1  0
 11 12  1  0
 11 27  1  0
 11 28  1  0
 12 13  1  0
 13 21  1  0
 13 14  1  0
 13 29  1  6
 14 15  1  0
 14 30  1  1
 15 16  1  0
 16 17  1  0
 16 31  1  0
 16 32  1  0
 17 21  1  0
 17 18  1  0
 17 33  1  6
 18 19  1  0
 19 20  1  0
 19 34  1  0
 19 35  1  0
 20 21  1  0
 21 36  1  6
M  END
>  <i_m_ct_stereo_status>  (46) 
1

>  <s_m_source_file>  (46) 
/var/tmp/pbs.5076255.sched01/tmp5t01l7na/0y8cq_bsf.sdf

>  <i_m_source_file_index>  (46) 
35

>  <i_lp_mmshare_version>  (46) 
48012

>  <i_f3d_flags>  (46) 
0

>  <s_epik_input>  (46) 
W2NIXTFbY0hdW2NIXVtjSF1jMm5bY0hdYyhjM2MxMilbQ0gyXU9bQ0BIXTRbQ0BASF0zT1tDSDJdW0NASF01W0NAQEhdNE9bQ0gyXU81

>  <s_epik_cmdline>  (46) 
J2VwaWtfcHl0aG9uJywgJy1waHQnLCAnMi4wJywgJy1waCcsICc3LjAnLCAnLXRuJywgJzgnLCAnLW1hJywgJzIwMCcsICctaW1hZScsICc8aW5maWxlLm1hZT4nLCAnLW9tYWUnLCAnPG91dGZpbGUubWFlPic=

>  <r_epik_Ionization_Penalty>  (46) 
0.00204838

>  <r_epik_Ionization_Penalty_Charging>  (46) 
0

>  <r_epik_Ionization_Penalty_Neutral>  (46) 
0.00204838

>  <r_epik_State_Penalty>  (46) 
0.00140151

>  <r_epik_Charging_Adjusted_Penalty>  (46) 
0.00140151

>  <i_epik_Tot_Q>  (46) 
0

>  <i_epik_Tot_abs_Q>  (46) 
0

>  <s_epik_Chemistry_Notes>  (46) 
This compound contains an acetal/aminal-like group ( X-CH(R)-Y where X, Y are N, S, or O) that may be acid/base labile, releasing an aldehyde.

>  <s_lp_Force_Field>  (46) 
OPLS3e

>  <r_lp_Energy>  (46) 
28.8403

>  <b_lp_Chiralities_Consistent>  (46) 
1

>  <s_lp_Variant>  (46) 
14:0-1

>  <s_i_glide_gridfile>  (46) 
pfpi4k_grid

>  <i_i_glide_lignum>  (46) 
35

>  <i_i_glide_rotatable_bonds>  (46) 
0

>  <r_i_docking_score>  (46) 
-2.87452

>  <r_i_glide_ligand_efficiency>  (46) 
-0.136882

>  <r_i_glide_ligand_efficiency_sa>  (46) 
-0.377647

>  <r_i_glide_ligand_efficiency_ln>  (46) 
-0.71072

>  <r_i_glide_gscore>  (46) 
-2.87452

>  <r_i_glide_lipo>  (46) 
-0.2145

>  <r_i_glide_hbond>  (46) 
0

>  <r_i_glide_metal>  (46) 
-0

>  <r_i_glide_rewards>  (46) 
-1.4639

>  <r_i_glide_evdw>  (46) 
-21.4468

>  <r_i_glide_ecoul>  (46) 
-0.192821

>  <r_i_glide_erotb>  (46) 
0

>  <r_i_glide_esite>  (46) 
-0.0948581

>  <r_i_glide_emodel>  (46) 
-26.2704

>  <r_i_glide_energy>  (46) 
-21.6397

>  <r_i_glide_einternal>  (46) 
0

>  <r_i_glide_intrahb_reward>  (46) 
-0

>  <i_i_glide_confnum>  (46) 
1

>  <i_i_glide_posenum>  (46) 
1

>  <r_i_glide_eff_state_penalty>  (46) 
0

>  <ligand_id>  (46) 
14

>  <original_smiles>  (46) 
c1ccc2c3c(cnc2c1)COC1C3OCC2OCOC21

>  <smiles>  (46) 
[H]c1nc2c([H])c([H])c([H])c([H])c2c2c1C([H])([H])OC1([H])C2([H])OC([H])([H])C2([H])OC([H])([H])OC21[H]

$$$$
14:0:2
     RDKit          3D

 36 40  0  0  1  0  0  0  0  0999 V2000
   -2.5833    4.1426   10.4527 C   0  0  0  0  0  0  0  0  0  0  0  0
   -2.5398    3.0550    9.5675 C   0  0  0  0  0  0  0  0  0  0  0  0
   -1.8740    3.1792    8.3326 C   0  0  0  0  0  0  0  0  0  0  0  0
   -1.2447    4.3976    7.9727 C   0  0  0  0  0  0  0  0  0  0  0  0
   -0.5676    4.5606    6.7352 C   0  0  0  0  0  0  0  0  0  0  0  0
    0.0092    5.8144    6.4429 C   0  0  0  0  0  0  0  0  0  0  0  0
   -0.1023    6.8481    7.3885 C   0  0  0  0  0  0  0  0  0  0  0  0
   -0.7486    6.7024    8.5596 N   0  0  0  0  0  0  0  0  0  0  0  0
   -1.3037    5.5073    8.8650 C   0  0  0  0  0  0  0  0  0  0  0  0
   -1.9764    5.3600   10.0949 C   0  0  0  0  0  0  0  0  0  0  0  0
    0.7483    6.0370    5.1325 C   0  0  0  0  0  0  0  0  0  0  0  0
    0.3844    5.0962    4.1313 O   0  0  0  0  0  0  0  0  0  0  0  0
    0.5204    3.7490    4.5655 C   0  0  1  0  0  0  0  0  0  0  0  0
   -0.5175    3.4630    5.6820 C   0  0  2  0  0  0  0  0  0  0  0  0
   -1.8162    3.3265    5.1137 O   0  0  0  0  0  0  0  0  0  0  0  0
   -1.9334    2.2389    4.2154 C   0  0  0  0  0  0  0  0  0  0  0  0
   -1.0425    2.4649    2.9859 C   0  0  2  0  0  0  0  0  0  0  0  0
   -0.8644    1.2499    2.2934 O   0  0  0  0  0  0  0  0  0  0  0  0
    0.2253    0.6223    2.8768 C   0  0  0  0  0  0  0  0  0  0  0  0
    0.9807    1.5421    3.5932 O   0  0  0  0  0  0  0  0  0  0  0  0
    0.3957    2.8065    3.3553 C   0  0  2  0  0  0  0  0  0  0  0  0
   -3.0822    4.0369   11.4084 H   0  0  0  0  0  0  0  0  0  0  0  0
   -3.0202    2.1313    9.8544 H   0  0  0  0  0  0  0  0  0  0  0  0
   -1.8627    2.3296    7.6702 H   0  0  0  0  0  0  0  0  0  0  0  0
    0.3220    7.8236    7.1931 H   0  0  0  0  0  0  0  0  0  0  0  0
   -2.0282    6.1964   10.7736 H   0  0  0  0  0  0  0  0  0  0  0  0
    0.5289    7.0347    4.7532 H   0  0  0  0  0  0  0  0  0  0  0  0
    1.8246    5.9898    5.3176 H   0  0  0  0  0  0  0  0  0  0  0  0
    1.5299    3.6413    4.9668 H   0  0  0  0  0  0  0  0  0  0  0  0
   -0.2327    2.5278    6.1665 H   0  0  0  0  0  0  0  0  0  0  0  0
   -1.6787    1.3140    4.7342 H   0  0  0  0  0  0  0  0  0  0  0  0
   -2.9719    2.1571    3.9026 H   0  0  0  0  0  0  0  0  0  0  0  0
   -1.4733    3.2297    2.3427 H   0  0  0  0  0  0  0  0  0  0  0  0
   -0.1353   -0.1238    3.5862 H   0  0  0  0  0  0  0  0  0  0  0  0
    0.8159    0.1271    2.1002 H   0  0  0  0  0  0  0  0  0  0  0  0
    0.9161    3.2278    2.4937 H   0  0  0  0  0  0  0  0  0  0  0  0
  1 10  2  0
  1  2  1  0
  1 22  1  0
  2  3  2  0
  2 23  1  0
  3  4  1  0
  3 24  1  0
  4  9  2  0
  4  5  1  0
  5 14  1  0
  5  6  2  0
  6  7  1  0
  6 11  1  0
  7  8  2  0
  7 25  1  0
  8  9  1  0
  9 10  1  0
 10 26  1  0
 11 12  1  0
 11 27  1  0
 11 28  1  0
 12 13  1  0
 13 21  1  0
 13 14  1  0
 13 29  1  1
 14 15  1  0
 14 30  1  1
 15 16  1  0
 16 17  1  0
 16 31  1  0
 16 32  1  0
 17 21  1  0
 17 18  1  0
 17 33  1  6
 18 19  1  0
 19 20  1  0
 19 34  1  0
 19 35  1  0
 20 21  1  0
 21 36  1  6
M  END
>  <i_m_ct_stereo_status>  (47) 
1

>  <s_m_source_file>  (47) 
/var/tmp/pbs.5076255.sched01/tmp5t01l7na/0y8cq_bsf.sdf

>  <i_m_source_file_index>  (47) 
35

>  <i_lp_mmshare_version>  (47) 
48012

>  <i_f3d_flags>  (47) 
0

>  <s_epik_input>  (47) 
W2NIXTFbY0hdW2NIXVtjSF1jMm5bY0hdYyhjM2MxMilbQ0gyXU9bQ0BIXTRbQ0BASF0zT1tDSDJdW0NASF01W0NAQEhdNE9bQ0gyXU81

>  <s_epik_cmdline>  (47) 
J2VwaWtfcHl0aG9uJywgJy1waHQnLCAnMi4wJywgJy1waCcsICc3LjAnLCAnLXRuJywgJzgnLCAnLW1hJywgJzIwMCcsICctaW1hZScsICc8aW5maWxlLm1hZT4nLCAnLW9tYWUnLCAnPG91dGZpbGUubWFlPic=

>  <r_epik_Ionization_Penalty>  (47) 
0.00204838

>  <r_epik_Ionization_Penalty_Charging>  (47) 
0

>  <r_epik_Ionization_Penalty_Neutral>  (47) 
0.00204838

>  <r_epik_State_Penalty>  (47) 
0.00140151

>  <r_epik_Charging_Adjusted_Penalty>  (47) 
0.00140151

>  <i_epik_Tot_Q>  (47) 
0

>  <i_epik_Tot_abs_Q>  (47) 
0

>  <s_epik_Chemistry_Notes>  (47) 
This compound contains an acetal/aminal-like group ( X-CH(R)-Y where X, Y are N, S, or O) that may be acid/base labile, releasing an aldehyde.

>  <s_lp_Force_Field>  (47) 
OPLS3e

>  <r_lp_Energy>  (47) 
28.8403

>  <b_lp_Chiralities_Consistent>  (47) 
1

>  <s_lp_Variant>  (47) 
14:0-1

>  <s_i_glide_gridfile>  (47) 
pfpi4k_grid

>  <i_i_glide_lignum>  (47) 
35

>  <i_i_glide_rotatable_bonds>  (47) 
0

>  <r_i_docking_score>  (47) 
-2.77128

>  <r_i_glide_ligand_efficiency>  (47) 
-0.131966

>  <r_i_glide_ligand_efficiency_sa>  (47) 
-0.364084

>  <r_i_glide_ligand_efficiency_ln>  (47) 
-0.685194

>  <r_i_glide_gscore>  (47) 
-2.77128

>  <r_i_glide_lipo>  (47) 
0

>  <r_i_glide_hbond>  (47) 
0

>  <r_i_glide_metal>  (47) 
-0

>  <r_i_glide_rewards>  (47) 
-1.4639

>  <r_i_glide_evdw>  (47) 
-20.8223

>  <r_i_glide_ecoul>  (47) 
-1.52908

>  <r_i_glide_erotb>  (47) 
0

>  <r_i_glide_esite>  (47) 
-0.0369081

>  <r_i_glide_emodel>  (47) 
-26.8206

>  <r_i_glide_energy>  (47) 
-22.3513

>  <r_i_glide_einternal>  (47) 
0

>  <r_i_glide_intrahb_reward>  (47) 
-0

>  <i_i_glide_confnum>  (47) 
1

>  <i_i_glide_posenum>  (47) 
2

>  <r_i_glide_eff_state_penalty>  (47) 
0

>  <ligand_id>  (47) 
14

>  <original_smiles>  (47) 
c1ccc2c3c(cnc2c1)COC1C3OCC2OCOC21

>  <smiles>  (47) 
[H]c1nc2c([H])c([H])c([H])c([H])c2c2c1C([H])([H])OC1([H])C2([H])OC([H])([H])C2([H])OC([H])([H])OC21[H]

$$$$
15:0:0
     RDKit          3D

 39 43  0  0  1  0  0  0  0  0999 V2000
    3.4723   -5.6195    2.9700 O   0  0  0  0  0  0  0  0  0  0  0  0
    4.7911   -4.9554    3.0310 S   0  0  0  0  0  0  0  0  0  0  0  0
    5.2429   -3.9660    4.0226 O   0  0  0  0  0  0  0  0  0  0  0  0
    6.0979   -6.1265    2.7175 C   0  0  0  0  0  0  0  0  0  0  0  0
    7.3493   -6.4926    3.4808 C   0  0  0  0  0  0  0  0  0  0  0  0
    8.4848   -6.1122    2.4605 C   0  0  0  0  0  0  0  0  0  0  0  0
    7.7620   -5.3445    1.3893 C   0  0  0  0  0  0  0  0  0  0  0  0
    6.4931   -5.3951    1.6952 C   0  0  0  0  0  0  0  0  0  0  0  0
    5.3157   -4.6044    1.4363 N   0  0  0  0  0  0  0  0  0  0  0  0
    5.4301   -3.2438    0.8709 C   0  0  2  0  0  0  0  0  0  0  0  0
    4.0773   -2.5047    0.9588 C   0  0  1  0  0  0  0  0  0  0  0  0
    4.2290   -1.0993    0.3382 C   0  0  0  0  0  0  0  0  0  0  0  0
    4.6361   -1.2327   -1.1467 C   0  0  2  0  0  0  0  0  0  0  0  0
    3.5797   -2.0351   -1.9291 C   0  0  0  0  0  0  0  0  0  0  0  0
    3.4408   -3.4297   -1.3055 C   0  0  2  0  0  0  0  0  0  0  0  0
    3.0103   -3.2958    0.1706 C   0  0  0  0  0  0  0  0  0  0  0  0
    4.7950   -4.1562   -1.4076 C   0  0  0  0  0  0  0  0  0  0  0  0
    5.8559   -3.3577   -0.6279 C   0  0  1  0  0  0  0  0  0  0  0  0
    5.9864   -1.9541   -1.2373 C   0  0  0  0  0  0  0  0  0  0  0  0
    7.4036   -5.8641    4.3733 H   0  0  0  0  0  0  0  0  0  0  0  0
    7.3763   -7.5478    3.7470 H   0  0  0  0  0  0  0  0  0  0  0  0
    9.2346   -5.4584    2.9021 H   0  0  0  0  0  0  0  0  0  0  0  0
    8.9687   -6.9879    2.0223 H   0  0  0  0  0  0  0  0  0  0  0  0
    8.2256   -4.5954    0.7793 H   0  0  0  0  0  0  0  0  0  0  0  0
    6.1905   -2.6936    1.4376 H   0  0  0  0  0  0  0  0  0  0  0  0
    3.7783   -2.4028    2.0028 H   0  0  0  0  0  0  0  0  0  0  0  0
    3.2944   -0.5496    0.4295 H   0  0  0  0  0  0  0  0  0  0  0  0
    4.9875   -0.5337    0.8794 H   0  0  0  0  0  0  0  0  0  0  0  0
    4.7195   -0.2457   -1.5951 H   0  0  0  0  0  0  0  0  0  0  0  0
    2.6229   -1.5215   -1.9125 H   0  0  0  0  0  0  0  0  0  0  0  0
    3.8688   -2.1277   -2.9765 H   0  0  0  0  0  0  0  0  0  0  0  0
    2.6758   -3.9856   -1.8404 H   0  0  0  0  0  0  0  0  0  0  0  0
    2.8696   -4.2929    0.5981 H   0  0  0  0  0  0  0  0  0  0  0  0
    2.0461   -2.7984    0.2475 H   0  0  0  0  0  0  0  0  0  0  0  0
    4.7172   -5.1735   -1.0134 H   0  0  0  0  0  0  0  0  0  0  0  0
    5.1022   -4.2759   -2.4454 H   0  0  0  0  0  0  0  0  0  0  0  0
    6.8172   -3.8534   -0.7374 H   0  0  0  0  0  0  0  0  0  0  0  0
    6.3057   -2.0380   -2.2743 H   0  0  0  0  0  0  0  0  0  0  0  0
    6.7522   -1.4044   -0.6989 H   0  0  0  0  0  0  0  0  0  0  0  0
  1  2  2  0
  2  9  1  0
  2  3  2  0
  2  4  1  0
  4  8  2  0
  4  5  1  0
  5  6  1  0
  5 20  1  0
  5 21  1  0
  6  7  1  0
  6 22  1  0
  6 23  1  0
  7  8  1  0
  7 24  1  0
  8  9  1  0
  9 10  1  0
 10 18  1  0
 10 11  1  0
 10 25  1  1
 11 16  1  0
 11 12  1  0
 11 26  1  1
 12 13  1  0
 12 27  1  0
 12 28  1  0
 13 19  1  0
 13 14  1  0
 13 29  1  6
 14 15  1  0
 14 30  1  0
 14 31  1  0
 15 16  1  0
 15 17  1  0
 15 32  1  6
 16 33  1  0
 16 34  1  0
 17 18  1  0
 17 35  1  0
 17 36  1  0
 18 19  1  0
 18 37  1  1
 19 38  1  0
 19 39  1  0
M  CHG  1   7  -1
M  END
>  <i_m_ct_stereo_status>  (48) 
1

>  <s_m_source_file>  (48) 
/var/tmp/pbs.5076255.sched01/tmp5t01l7na/0y8cq_bsf.sdf

>  <i_m_source_file_index>  (48) 
36

>  <i_lp_mmshare_version>  (48) 
48012

>  <i_f3d_flags>  (48) 
0

>  <s_epik_input>  (48) 
W0NIMl0xW0NIMl1bQ0hdPUMoW0NAQEhdMTIpTihTMig9Tyk9TylbQ0BIXShbQ0BIXTM0KVtDQEBIXTVbQ0gyXVtDQEhdKFtDSDJdNClbQ0gyXVtDQEhdKFtDSDJdMylbQ0gyXTU=

>  <s_epik_cmdline>  (48) 
J2VwaWtfcHl0aG9uJywgJy1waHQnLCAnMi4wJywgJy1waCcsICc3LjAnLCAnLXRuJywgJzgnLCAnLW1hJywgJzIwMCcsICctaW1hZScsICc8aW5maWxlLm1hZT4nLCAnLW9tYWUnLCAnPG91dGZpbGUubWFlPic=

>  <r_lp_tautomer_probability>  (48) 
1

>  <r_epik_Ionization_Penalty>  (48) 
1.73942e-07

>  <r_epik_Ionization_Penalty_Charging>  (48) 
0

>  <r_epik_Ionization_Penalty_Neutral>  (48) 
1.73942e-07

>  <r_epik_State_Penalty>  (48) 
-0

>  <r_epik_Charging_Adjusted_Penalty>  (48) 
0

>  <i_epik_Tot_Q>  (48) 
-1

>  <i_epik_Tot_abs_Q>  (48) 
1

>  <s_lp_Force_Field>  (48) 
OPLS3e

>  <r_lp_Energy>  (48) 
25.6952

>  <b_lp_Chiralities_Consistent>  (48) 
1

>  <s_lp_Variant>  (48) 
15:0-1

>  <s_i_glide_gridfile>  (48) 
pfpi4k_grid

>  <i_i_glide_lignum>  (48) 
36

>  <i_i_glide_rotatable_bonds>  (48) 
1

>  <r_i_docking_score>  (48) 
-2.64335

>  <r_i_glide_ligand_efficiency>  (48) 
-0.139124

>  <r_i_glide_ligand_efficiency_sa>  (48) 
-0.371238

>  <r_i_glide_ligand_efficiency_ln>  (48) 
-0.670147

>  <r_i_glide_gscore>  (48) 
-2.64335

>  <r_i_glide_lipo>  (48) 
-0.38696

>  <r_i_glide_hbond>  (48) 
0

>  <r_i_glide_metal>  (48) 
-0

>  <r_i_glide_rewards>  (48) 
-1.57785

>  <r_i_glide_evdw>  (48) 
-19.5614

>  <r_i_glide_ecoul>  (48) 
0.446311

>  <r_i_glide_erotb>  (48) 
0.232579

>  <r_i_glide_esite>  (48) 
0

>  <r_i_glide_emodel>  (48) 
-21.7601

>  <r_i_glide_energy>  (48) 
-19.1151

>  <r_i_glide_einternal>  (48) 
0.0699221

>  <r_i_glide_intrahb_reward>  (48) 
-0

>  <i_i_glide_confnum>  (48) 
1

>  <i_i_glide_posenum>  (48) 
31

>  <r_i_glide_eff_state_penalty>  (48) 
0

>  <ligand_id>  (48) 
15

>  <original_smiles>  (48) 
O=S1(=O)C2CCC=C2N1C1C2CC3CC(C2)CC1C3

>  <smiles>  (48) 
[H][C-]1C2=C(C([H])([H])C1([H])[H])S(=O)(=O)N2C1([H])C2([H])C([H])([H])C3([H])C([H])([H])C([H])(C2([H])[H])C([H])([H])C1([H])C3([H])[H]

$$$$
15:0:1
     RDKit          3D

 39 43  0  0  1  0  0  0  0  0999 V2000
    1.8110   -3.6742   -2.2789 O   0  0  0  0  0  0  0  0  0  0  0  0
    2.9877   -3.0913   -2.9210 S   0  0  0  0  0  0  0  0  0  0  0  0
    3.8932   -3.7382   -3.8937 O   0  0  0  0  0  0  0  0  0  0  0  0
    2.6823   -1.4257   -3.4198 C   0  0  0  0  0  0  0  0  0  0  0  0
    2.8933   -0.6787   -4.7245 C   0  0  0  0  0  0  0  0  0  0  0  0
    3.8796    0.4348   -4.3432 C   0  0  0  0  0  0  0  0  0  0  0  0
    4.3836   -0.0143   -2.9866 C   0  0  0  0  0  0  0  0  0  0  0  0
    3.6391   -1.0446   -2.6198 C   0  0  0  0  0  0  0  0  0  0  0  0
    3.8173   -2.1431   -1.7564 N   0  0  0  0  0  0  0  0  0  0  0  0
    5.1065   -2.4833   -1.1415 C   0  0  2  0  0  0  0  0  0  0  0  0
    5.1075   -3.9389   -0.6174 C   0  0  1  0  0  0  0  0  0  0  0  0
    6.4781   -4.2346    0.0302 C   0  0  0  0  0  0  0  0  0  0  0  0
    6.7033   -3.2757    1.2110 C   0  0  2  0  0  0  0  0  0  0  0  0
    5.5813   -3.4414    2.2604 C   0  0  0  0  0  0  0  0  0  0  0  0
    4.2252   -3.1298    1.6087 C   0  0  2  0  0  0  0  0  0  0  0  0
    3.9946   -4.1162    0.4415 C   0  0  0  0  0  0  0  0  0  0  0  0
    4.2364   -1.6743    1.0989 C   0  0  0  0  0  0  0  0  0  0  0  0
    5.3581   -1.5047    0.0465 C   0  0  1  0  0  0  0  0  0  0  0  0
    6.7233   -1.8248    0.6989 C   0  0  0  0  0  0  0  0  0  0  0  0
    3.4160   -1.3449   -5.4156 H   0  0  0  0  0  0  0  0  0  0  0  0
    1.9672   -0.2765   -5.1358 H   0  0  0  0  0  0  0  0  0  0  0  0
    4.6650    0.4272   -5.0880 H   0  0  0  0  0  0  0  0  0  0  0  0
    3.4396    1.4326   -4.3152 H   0  0  0  0  0  0  0  0  0  0  0  0
    5.3309    0.1654   -2.5236 H   0  0  0  0  0  0  0  0  0  0  0  0
    5.8852   -2.3720   -1.9043 H   0  0  0  0  0  0  0  0  0  0  0  0
    4.9562   -4.6321   -1.4473 H   0  0  0  0  0  0  0  0  0  0  0  0
    6.5250   -5.2703    0.3550 H   0  0  0  0  0  0  0  0  0  0  0  0
    7.2721   -4.0912   -0.6982 H   0  0  0  0  0  0  0  0  0  0  0  0
    7.6620   -3.5103    1.6710 H   0  0  0  0  0  0  0  0  0  0  0  0
    5.5837   -4.4540    2.6643 H   0  0  0  0  0  0  0  0  0  0  0  0
    5.7542   -2.7644    3.0969 H   0  0  0  0  0  0  0  0  0  0  0  0
    3.4270   -3.2488    2.3389 H   0  0  0  0  0  0  0  0  0  0  0  0
    3.0115   -3.9265    0.0059 H   0  0  0  0  0  0  0  0  0  0  0  0
    3.9718   -5.1459    0.7922 H   0  0  0  0  0  0  0  0  0  0  0  0
    3.2657   -1.4144    0.6674 H   0  0  0  0  0  0  0  0  0  0  0  0
    4.3875   -0.9727    1.9183 H   0  0  0  0  0  0  0  0  0  0  0  0
    5.3666   -0.4754   -0.3094 H   0  0  0  0  0  0  0  0  0  0  0  0
    6.9072   -1.1312    1.5180 H   0  0  0  0  0  0  0  0  0  0  0  0
    7.5322   -1.6813   -0.0127 H   0  0  0  0  0  0  0  0  0  0  0  0
  1  2  2  0
  2  9  1  0
  2  3  2  0
  2  4  1  0
  4  8  2  0
  4  5  1  0
  5  6  1  0
  5 20  1  0
  5 21  1  0
  6  7  1  0
  6 22  1  0
  6 23  1  0
  7  8  1  0
  7 24  1  0
  8  9  1  0
  9 10  1  0
 10 18  1  0
 10 11  1  0
 10 25  1  6
 11 16  1  0
 11 12  1  0
 11 26  1  6
 12 13  1  0
 12 27  1  0
 12 28  1  0
 13 19  1  0
 13 14  1  0
 13 29  1  1
 14 15  1  0
 14 30  1  0
 14 31  1  0
 15 16  1  0
 15 17  1  0
 15 32  1  1
 16 33  1  0
 16 34  1  0
 17 18  1  0
 17 35  1  0
 17 36  1  0
 18 19  1  0
 18 37  1  6
 19 38  1  0
 19 39  1  0
M  CHG  1   7  -1
M  END
>  <i_m_ct_stereo_status>  (49) 
1

>  <s_m_source_file>  (49) 
/var/tmp/pbs.5076255.sched01/tmp5t01l7na/0y8cq_bsf.sdf

>  <i_m_source_file_index>  (49) 
36

>  <i_lp_mmshare_version>  (49) 
48012

>  <i_f3d_flags>  (49) 
0

>  <s_epik_input>  (49) 
W0NIMl0xW0NIMl1bQ0hdPUMoW0NAQEhdMTIpTihTMig9Tyk9TylbQ0BIXShbQ0BIXTM0KVtDQEBIXTVbQ0gyXVtDQEhdKFtDSDJdNClbQ0gyXVtDQEhdKFtDSDJdMylbQ0gyXTU=

>  <s_epik_cmdline>  (49) 
J2VwaWtfcHl0aG9uJywgJy1waHQnLCAnMi4wJywgJy1waCcsICc3LjAnLCAnLXRuJywgJzgnLCAnLW1hJywgJzIwMCcsICctaW1hZScsICc8aW5maWxlLm1hZT4nLCAnLW9tYWUnLCAnPG91dGZpbGUubWFlPic=

>  <r_lp_tautomer_probability>  (49) 
1

>  <r_epik_Ionization_Penalty>  (49) 
1.73942e-07

>  <r_epik_Ionization_Penalty_Charging>  (49) 
0

>  <r_epik_Ionization_Penalty_Neutral>  (49) 
1.73942e-07

>  <r_epik_State_Penalty>  (49) 
-0

>  <r_epik_Charging_Adjusted_Penalty>  (49) 
0

>  <i_epik_Tot_Q>  (49) 
-1

>  <i_epik_Tot_abs_Q>  (49) 
1

>  <s_lp_Force_Field>  (49) 
OPLS3e

>  <r_lp_Energy>  (49) 
25.6952

>  <b_lp_Chiralities_Consistent>  (49) 
1

>  <s_lp_Variant>  (49) 
15:0-1

>  <s_i_glide_gridfile>  (49) 
pfpi4k_grid

>  <i_i_glide_lignum>  (49) 
36

>  <i_i_glide_rotatable_bonds>  (49) 
1

>  <r_i_docking_score>  (49) 
-2.55376

>  <r_i_glide_ligand_efficiency>  (49) 
-0.134408

>  <r_i_glide_ligand_efficiency_sa>  (49) 
-0.358655

>  <r_i_glide_ligand_efficiency_ln>  (49) 
-0.647432

>  <r_i_glide_gscore>  (49) 
-2.55376

>  <r_i_glide_lipo>  (49) 
-0.667961

>  <r_i_glide_hbond>  (49) 
0

>  <r_i_glide_metal>  (49) 
-0

>  <r_i_glide_rewards>  (49) 
-1.51252

>  <r_i_glide_evdw>  (49) 
-18.4519

>  <r_i_glide_ecoul>  (49) 
2.42626

>  <r_i_glide_erotb>  (49) 
0.232579

>  <r_i_glide_esite>  (49) 
-0.047197

>  <r_i_glide_emodel>  (49) 
-18.4222

>  <r_i_glide_energy>  (49) 
-16.0257

>  <r_i_glide_einternal>  (49) 
0.0423268

>  <r_i_glide_intrahb_reward>  (49) 
-0

>  <i_i_glide_confnum>  (49) 
1

>  <i_i_glide_posenum>  (49) 
14

>  <r_i_glide_eff_state_penalty>  (49) 
0

>  <ligand_id>  (49) 
15

>  <original_smiles>  (49) 
O=S1(=O)C2CCC=C2N1C1C2CC3CC(C2)CC1C3

>  <smiles>  (49) 
[H][C-]1C2=C(C([H])([H])C1([H])[H])S(=O)(=O)N2C1([H])C2([H])C([H])([H])C3([H])C([H])([H])C([H])(C2([H])[H])C([H])([H])C1([H])C3([H])[H]

$$$$
15:0:2
     RDKit          3D

 39 43  0  0  1  0  0  0  0  0999 V2000
    3.1359    0.1989    3.1063 O   0  0  0  0  0  0  0  0  0  0  0  0
    4.3524   -0.5490    3.4658 S   0  0  0  0  0  0  0  0  0  0  0  0
    5.6958    0.0258    3.6634 O   0  0  0  0  0  0  0  0  0  0  0  0
    4.0016   -1.7410    4.7553 C   0  0  0  0  0  0  0  0  0  0  0  0
    4.6465   -2.0083    6.0935 C   0  0  0  0  0  0  0  0  0  0  0  0
    5.1900   -3.4717    5.9387 C   0  0  0  0  0  0  0  0  0  0  0  0
    5.0610   -3.7401    4.4649 C   0  0  0  0  0  0  0  0  0  0  0  0
    4.4262   -2.7079    3.9411 C   0  0  0  0  0  0  0  0  0  0  0  0
    4.3822   -2.0722    2.6598 N   0  0  0  0  0  0  0  0  0  0  0  0
    5.2972   -2.4467    1.5813 C   0  0  2  0  0  0  0  0  0  0  0  0
    5.2218   -1.4229    0.4271 C   0  0  1  0  0  0  0  0  0  0  0  0
    6.1909   -1.8560   -0.6908 C   0  0  0  0  0  0  0  0  0  0  0  0
    5.7831   -3.2434   -1.2307 C   0  0  2  0  0  0  0  0  0  0  0  0
    4.3375   -3.2120   -1.7674 C   0  0  0  0  0  0  0  0  0  0  0  0
    3.3808   -2.7952   -0.6365 C   0  0  2  0  0  0  0  0  0  0  0  0
    3.7820   -1.3910   -0.1299 C   0  0  0  0  0  0  0  0  0  0  0  0
    3.4634   -3.8259    0.5042 C   0  0  0  0  0  0  0  0  0  0  0  0
    4.9092   -3.8563    1.0435 C   0  0  1  0  0  0  0  0  0  0  0  0
    5.8742   -4.2696   -0.0868 C   0  0  0  0  0  0  0  0  0  0  0  0
    5.4639   -1.2980    6.2272 H   0  0  0  0  0  0  0  0  0  0  0  0
    3.9253   -1.9320    6.9061 H   0  0  0  0  0  0  0  0  0  0  0  0
    6.2458   -3.5465    6.1951 H   0  0  0  0  0  0  0  0  0  0  0  0
    4.6137   -4.2125    6.5022 H   0  0  0  0  0  0  0  0  0  0  0  0
    5.6665   -4.4268    3.9104 H   0  0  0  0  0  0  0  0  0  0  0  0
    6.3096   -2.4631    1.9905 H   0  0  0  0  0  0  0  0  0  0  0  0
    5.5086   -0.4347    0.7861 H   0  0  0  0  0  0  0  0  0  0  0  0
    6.1708   -1.1248   -1.4942 H   0  0  0  0  0  0  0  0  0  0  0  0
    7.2097   -1.8958   -0.3052 H   0  0  0  0  0  0  0  0  0  0  0  0
    6.4558   -3.5344   -2.0378 H   0  0  0  0  0  0  0  0  0  0  0  0
    4.2438   -2.5237   -2.6095 H   0  0  0  0  0  0  0  0  0  0  0  0
    4.0596   -4.1988   -2.1372 H   0  0  0  0  0  0  0  0  0  0  0  0
    2.3558   -2.7620   -1.0079 H   0  0  0  0  0  0  0  0  0  0  0  0
    3.0749   -1.0733    0.6378 H   0  0  0  0  0  0  0  0  0  0  0  0
    3.6969   -0.6597   -0.9265 H   0  0  0  0  0  0  0  0  0  0  0  0
    2.7660   -3.5691    1.3018 H   0  0  0  0  0  0  0  0  0  0  0  0
    3.1697   -4.8165    0.1648 H   0  0  0  0  0  0  0  0  0  0  0  0
    4.9757   -4.6067    1.8320 H   0  0  0  0  0  0  0  0  0  0  0  0
    5.6097   -5.2626   -0.4444 H   0  0  0  0  0  0  0  0  0  0  0  0
    6.8960   -4.3381    0.2888 H   0  0  0  0  0  0  0  0  0  0  0  0
  1  2  2  0
  2  9  1  0
  2  3  2  0
  2  4  1  0
  4  8  2  0
  4  5  1  0
  5  6  1  0
  5 20  1  0
  5 21  1  0
  6  7  1  0
  6 22  1  0
  6 23  1  0
  7  8  1  0
  7 24  1  0
  8  9  1  0
  9 10  1  0
 10 18  1  0
 10 11  1  0
 10 25  1  1
 11 16  1  0
 11 12  1  0
 11 26  1  1
 12 13  1  0
 12 27  1  0
 12 28  1  0
 13 19  1  0
 13 14  1  0
 13 29  1  6
 14 15  1  0
 14 30  1  0
 14 31  1  0
 15 16  1  0
 15 17  1  0
 15 32  1  6
 16 33  1  0
 16 34  1  0
 17 18  1  0
 17 35  1  0
 17 36  1  0
 18 19  1  0
 18 37  1  1
 19 38  1  0
 19 39  1  0
M  CHG  1   7  -1
M  END
>  <i_m_ct_stereo_status>  (50) 
1

>  <s_m_source_file>  (50) 
/var/tmp/pbs.5076255.sched01/tmp5t01l7na/0y8cq_bsf.sdf

>  <i_m_source_file_index>  (50) 
36

>  <i_lp_mmshare_version>  (50) 
48012

>  <i_f3d_flags>  (50) 
0

>  <s_epik_input>  (50) 
W0NIMl0xW0NIMl1bQ0hdPUMoW0NAQEhdMTIpTihTMig9Tyk9TylbQ0BIXShbQ0BIXTM0KVtDQEBIXTVbQ0gyXVtDQEhdKFtDSDJdNClbQ0gyXVtDQEhdKFtDSDJdMylbQ0gyXTU=

>  <s_epik_cmdline>  (50) 
J2VwaWtfcHl0aG9uJywgJy1waHQnLCAnMi4wJywgJy1waCcsICc3LjAnLCAnLXRuJywgJzgnLCAnLW1hJywgJzIwMCcsICctaW1hZScsICc8aW5maWxlLm1hZT4nLCAnLW9tYWUnLCAnPG91dGZpbGUubWFlPic=

>  <r_lp_tautomer_probability>  (50) 
1

>  <r_epik_Ionization_Penalty>  (50) 
1.73942e-07

>  <r_epik_Ionization_Penalty_Charging>  (50) 
0

>  <r_epik_Ionization_Penalty_Neutral>  (50) 
1.73942e-07

>  <r_epik_State_Penalty>  (50) 
-0

>  <r_epik_Charging_Adjusted_Penalty>  (50) 
0

>  <i_epik_Tot_Q>  (50) 
-1

>  <i_epik_Tot_abs_Q>  (50) 
1

>  <s_lp_Force_Field>  (50) 
OPLS3e

>  <r_lp_Energy>  (50) 
25.6952

>  <b_lp_Chiralities_Consistent>  (50) 
1

>  <s_lp_Variant>  (50) 
15:0-1

>  <s_i_glide_gridfile>  (50) 
pfpi4k_grid

>  <i_i_glide_lignum>  (50) 
36

>  <i_i_glide_rotatable_bonds>  (50) 
1

>  <r_i_docking_score>  (50) 
-2.54005

>  <r_i_glide_ligand_efficiency>  (50) 
-0.133687

>  <r_i_glide_ligand_efficiency_sa>  (50) 
-0.35673

>  <r_i_glide_ligand_efficiency_ln>  (50) 
-0.643957

>  <r_i_glide_gscore>  (50) 
-2.54005

>  <r_i_glide_lipo>  (50) 
-0.358382

>  <r_i_glide_hbond>  (50) 
0

>  <r_i_glide_metal>  (50) 
-0

>  <r_i_glide_rewards>  (50) 
-1.60499

>  <r_i_glide_evdw>  (50) 
-19.4818

>  <r_i_glide_ecoul>  (50) 
1.09887

>  <r_i_glide_erotb>  (50) 
0.232579

>  <r_i_glide_esite>  (50) 
0

>  <r_i_glide_emodel>  (50) 
-21.0163

>  <r_i_glide_energy>  (50) 
-18.3829

>  <r_i_glide_einternal>  (50) 
0.0419144

>  <r_i_glide_intrahb_reward>  (50) 
-0

>  <i_i_glide_confnum>  (50) 
3

>  <i_i_glide_posenum>  (50) 
9

>  <r_i_glide_eff_state_penalty>  (50) 
0

>  <ligand_id>  (50) 
15

>  <original_smiles>  (50) 
O=S1(=O)C2CCC=C2N1C1C2CC3CC(C2)CC1C3

>  <smiles>  (50) 
[H][C-]1C2=C(C([H])([H])C1([H])[H])S(=O)(=O)N2C1([H])C2([H])C([H])([H])C3([H])C([H])([H])C([H])(C2([H])[H])C([H])([H])C1([H])C3([H])[H]

$$$$
16:0:0
     RDKit          3D

 47 50  0  0  1  0  0  0  0  0999 V2000
    0.6919  -10.7085    2.8909 C   0  0  0  0  0  0  0  0  0  0  0  0
    1.3589   -9.3266    2.6074 C   0  0  0  0  0  0  0  0  0  0  0  0
    0.4366   -8.0682    2.6553 C   0  0  0  0  0  0  0  0  0  0  0  0
    1.0892   -6.8445    1.9325 C   0  0  0  0  0  0  0  0  0  0  0  0
    0.5252   -6.2654    0.9874 O   0  0  0  0  0  0  0  0  0  0  0  0
    2.2585   -6.4000    2.4078 N   0  0  0  0  0  0  0  0  0  0  0  0
    3.0268   -5.2550    1.8889 C   0  0  2  0  0  0  0  0  0  0  0  0
    3.6271   -5.5418    0.4857 C   0  0  2  0  0  0  0  0  0  0  0  0
    4.6119   -6.7281    0.5623 C   0  0  0  0  0  0  0  0  0  0  0  0
    5.7592   -6.3810    1.5398 C   0  0  2  0  0  0  0  0  0  0  0  0
    5.1833   -6.0885    2.9423 C   0  0  0  0  0  0  0  0  0  0  0  0
    4.1898   -4.9017    2.8515 C   0  0  1  0  0  0  0  0  0  0  0  0
    4.9431   -3.6509    2.3338 C   0  0  0  0  0  0  0  0  0  0  0  0
    5.5285   -3.9508    0.9381 C   0  0  1  0  0  0  0  0  0  0  0  0
    6.2208   -2.8154    0.4532 O   0  0  0  0  0  0  0  0  0  0  0  0
    6.5120   -5.1341    1.0372 C   0  0  0  0  0  0  0  0  0  0  0  0
    4.3747   -4.2915   -0.0265 C   0  0  0  0  0  0  0  0  0  0  0  0
   -1.0580   -8.2224    2.2695 C   0  0  0  0  0  0  0  0  0  0  0  0
   -1.4243   -8.3227    3.7470 C   0  0  0  0  0  0  0  0  0  0  0  0
   -0.0959   -7.6235    4.0356 C   0  0  0  0  0  0  0  0  0  0  0  0
    1.4044  -11.5286    2.8063 H   0  0  0  0  0  0  0  0  0  0  0  0
   -0.1008  -10.9113    2.1756 H   0  0  0  0  0  0  0  0  0  0  0  0
    0.2714  -10.7529    3.8925 H   0  0  0  0  0  0  0  0  0  0  0  0
    2.1589   -9.2237    3.3478 H   0  0  0  0  0  0  0  0  0  0  0  0
    1.8844   -9.3976    1.6528 H   0  0  0  0  0  0  0  0  0  0  0  0
    2.6562   -6.9027    3.1879 H   0  0  0  0  0  0  0  0  0  0  0  0
    2.3558   -4.3961    1.8184 H   0  0  0  0  0  0  0  0  0  0  0  0
    2.8377   -5.7788   -0.2316 H   0  0  0  0  0  0  0  0  0  0  0  0
    4.1001   -7.6364    0.8938 H   0  0  0  0  0  0  0  0  0  0  0  0
    4.9899   -6.9398   -0.4318 H   0  0  0  0  0  0  0  0  0  0  0  0
    6.4536   -7.2200    1.5962 H   0  0  0  0  0  0  0  0  0  0  0  0
    4.6939   -6.9803    3.3377 H   0  0  0  0  0  0  0  0  0  0  0  0
    5.9837   -5.8543    3.6442 H   0  0  0  0  0  0  0  0  0  0  0  0
    3.7886   -4.6816    3.8433 H   0  0  0  0  0  0  0  0  0  0  0  0
    4.2725   -2.7901    2.2901 H   0  0  0  0  0  0  0  0  0  0  0  0
    5.7420   -3.3818    3.0247 H   0  0  0  0  0  0  0  0  0  0  0  0
    6.5357   -3.0098   -0.4073 H   0  0  0  0  0  0  0  0  0  0  0  0
    7.3301   -4.8898    1.7214 H   0  0  0  0  0  0  0  0  0  0  0  0
    6.9752   -5.3467    0.0761 H   0  0  0  0  0  0  0  0  0  0  0  0
    4.7513   -4.4649   -1.0348 H   0  0  0  0  0  0  0  0  0  0  0  0
    3.6822   -3.4483   -0.1016 H   0  0  0  0  0  0  0  0  0  0  0  0
   -1.4934   -7.3383    1.8203 H   0  0  0  0  0  0  0  0  0  0  0  0
   -1.2958   -9.1125    1.6784 H   0  0  0  0  0  0  0  0  0  0  0  0
   -2.3121   -7.7620    4.0367 H   0  0  0  0  0  0  0  0  0  0  0  0
   -1.4396   -9.3616    4.0760 H   0  0  0  0  0  0  0  0  0  0  0  0
    0.4701   -8.0276    4.8819 H   0  0  0  0  0  0  0  0  0  0  0  0
   -0.2133   -6.5413    4.1380 H   0  0  0  0  0  0  0  0  0  0  0  0
  1  2  1  0
  1 21  1  0
  1 22  1  0
  1 23  1  0
  2  3  1  0
  2 24  1  0
  2 25  1  0
  3 20  1  0
  3  4  1  0
  3 18  1  0
  4  5  2  0
  4  6  1  0
  6  7  1  0
  6 26  1  0
  7 12  1  0
  7  8  1  0
  7 27  1  6
  8 17  1  0
  8  9  1  0
  8 28  1  6
  9 10  1  0
  9 29  1  0
  9 30  1  0
 10 16  1  0
 10 11  1  0
 10 31  1  1
 11 12  1  0
 11 32  1  0
 11 33  1  0
 12 13  1  0
 12 34  1  1
 13 14  1  0
 13 35  1  0
 13 36  1  0
 14 15  1  6
 14 16  1  0
 14 17  1  0
 15 37  1  0
 16 38  1  0
 16 39  1  0
 17 40  1  0
 17 41  1  0
 18 19  1  0
 18 42  1  0
 18 43  1  0
 19 20  1  0
 19 44  1  0
 19 45  1  0
 20 46  1  0
 20 47  1  0
M  END
>  <i_m_ct_stereo_status>  (51) 
1

>  <s_m_source_file>  (51) 
/var/tmp/pbs.5076255.sched01/tmp5t01l7na/0y8cq_bsf.sdf

>  <i_m_source_file_index>  (51) 
37

>  <i_lp_mmshare_version>  (51) 
48012

>  <i_f3d_flags>  (51) 
0

>  <s_epik_input>  (51) 
W0NIMl0xW0NIMl1bQ0gyXUMxKFtDSDJdW0NIM10pQyg9TylbTkhdW0NASF0oW0NAQEhdKFtDSDJdMilbQ0gyXVtDQEhdKFtDSDJdMylbQ0gyXTQpW0NAQEhdM1tDSDJdW0NAXTI0W09IXQ==

>  <s_epik_cmdline>  (51) 
J2VwaWtfcHl0aG9uJywgJy1waHQnLCAnMi4wJywgJy1waCcsICc3LjAnLCAnLXRuJywgJzgnLCAnLW1hJywgJzIwMCcsICctaW1hZScsICc8aW5maWxlLm1hZT4nLCAnLW9tYWUnLCAnPG91dGZpbGUubWFlPic=

>  <r_lp_tautomer_probability>  (51) 
1

>  <r_epik_Ionization_Penalty>  (51) 
1.87895e-06

>  <r_epik_Ionization_Penalty_Charging>  (51) 
0

>  <r_epik_Ionization_Penalty_Neutral>  (51) 
1.87895e-06

>  <r_epik_State_Penalty>  (51) 
-0

>  <r_epik_Charging_Adjusted_Penalty>  (51) 
0

>  <i_epik_Tot_Q>  (51) 
0

>  <i_epik_Tot_abs_Q>  (51) 
0

>  <s_lp_Force_Field>  (51) 
OPLS3e

>  <r_lp_Energy>  (51) 
14.4297

>  <b_lp_Chiralities_Consistent>  (51) 
1

>  <s_lp_Variant>  (51) 
16:0-1

>  <s_i_glide_gridfile>  (51) 
pfpi4k_grid

>  <i_i_glide_lignum>  (51) 
37

>  <i_i_glide_rotatable_bonds>  (51) 
5

>  <r_i_docking_score>  (51) 
-3.23798

>  <r_i_glide_ligand_efficiency>  (51) 
-0.161899

>  <r_i_glide_ligand_efficiency_sa>  (51) 
-0.439462

>  <r_i_glide_ligand_efficiency_ln>  (51) 
-0.81036

>  <r_i_glide_gscore>  (51) 
-3.23798

>  <r_i_glide_lipo>  (51) 
-0.564992

>  <r_i_glide_hbond>  (51) 
-0.16

>  <r_i_glide_metal>  (51) 
-0

>  <r_i_glide_rewards>  (51) 
-1.51772

>  <r_i_glide_evdw>  (51) 
-18.7954

>  <r_i_glide_ecoul>  (51) 
-4.63046

>  <r_i_glide_erotb>  (51) 
0.70206

>  <r_i_glide_esite>  (51) 
-0.062995

>  <r_i_glide_emodel>  (51) 
-26.5865

>  <r_i_glide_energy>  (51) 
-23.4258

>  <r_i_glide_einternal>  (51) 
4.5215

>  <r_i_glide_intrahb_reward>  (51) 
-0

>  <i_i_glide_confnum>  (51) 
3

>  <i_i_glide_posenum>  (51) 
27

>  <r_i_glide_eff_state_penalty>  (51) 
0

>  <ligand_id>  (51) 
16

>  <original_smiles>  (51) 
CCC1(C(=O)NC2C3CC4CC2CC(O)(C4)C3)CCC1

>  <smiles>  (51) 
[H]OC12C([H])([H])C3([H])C([H])([H])C([H])(C1([H])[H])C([H])(N([H])C(=O)C1(C([H])([H])C([H])([H])[H])C([H])([H])C([H])([H])C1([H])[H])C([H])(C3([H])[H])C2([H])[H]

$$$$
16:0:1
     RDKit          3D

 47 50  0  0  1  0  0  0  0  0999 V2000
    2.8096   -9.3492    1.6003 C   0  0  0  0  0  0  0  0  0  0  0  0
    2.2373   -8.9059    2.9506 C   0  0  0  0  0  0  0  0  0  0  0  0
    0.9743   -8.0044    2.8956 C   0  0  0  0  0  0  0  0  0  0  0  0
    1.1629   -6.7009    2.0645 C   0  0  0  0  0  0  0  0  0  0  0  0
    0.2755   -6.2627    1.3271 O   0  0  0  0  0  0  0  0  0  0  0  0
    2.3281   -6.0579    2.2111 N   0  0  0  0  0  0  0  0  0  0  0  0
    2.7032   -4.7884    1.5818 C   0  0  2  0  0  0  0  0  0  0  0  0
    3.1046   -4.9604    0.0910 C   0  0  2  0  0  0  0  0  0  0  0  0
    4.3657   -5.8482   -0.0379 C   0  0  0  0  0  0  0  0  0  0  0  0
    5.5300   -5.2164    0.7470 C   0  0  2  0  0  0  0  0  0  0  0  0
    5.1393   -5.0504    2.2346 C   0  0  0  0  0  0  0  0  0  0  0  0
    3.8866   -4.1449    2.3402 C   0  0  1  0  0  0  0  0  0  0  0  0
    4.2048   -2.7612    1.7244 C   0  0  0  0  0  0  0  0  0  0  0  0
    4.5970   -2.9381    0.2407 C   0  0  1  0  0  0  0  0  0  0  0  0
    4.8961   -1.6791   -0.3297 O   0  0  0  0  0  0  0  0  0  0  0  0
    5.8488   -3.8367    0.1436 C   0  0  0  0  0  0  0  0  0  0  0  0
    3.4134   -3.5747   -0.5203 C   0  0  0  0  0  0  0  0  0  0  0  0
   -0.3669   -8.7244    2.5970 C   0  0  0  0  0  0  0  0  0  0  0  0
   -0.6019   -8.8296    4.1055 C   0  0  0  0  0  0  0  0  0  0  0  0
    0.3526   -7.6473    4.2641 C   0  0  0  0  0  0  0  0  0  0  0  0
    3.6553  -10.0250    1.7397 H   0  0  0  0  0  0  0  0  0  0  0  0
    3.1555   -8.5132    1.0150 H   0  0  0  0  0  0  0  0  0  0  0  0
    2.0657   -9.8672    1.0059 H   0  0  0  0  0  0  0  0  0  0  0  0
    1.9980   -9.8224    3.4956 H   0  0  0  0  0  0  0  0  0  0  0  0
    3.0210   -8.4381    3.5453 H   0  0  0  0  0  0  0  0  0  0  0  0
    3.0138   -6.5014    2.8023 H   0  0  0  0  0  0  0  0  0  0  0  0
    1.8499   -4.1096    1.6471 H   0  0  0  0  0  0  0  0  0  0  0  0
    2.2774   -5.4097   -0.4588 H   0  0  0  0  0  0  0  0  0  0  0  0
    4.1890   -6.8475    0.3417 H   0  0  0  0  0  0  0  0  0  0  0  0
    4.6351   -5.9632   -1.0888 H   0  0  0  0  0  0  0  0  0  0  0  0
    6.4051   -5.8603    0.6657 H   0  0  0  0  0  0  0  0  0  0  0  0
    4.9583   -6.0285    2.6842 H   0  0  0  0  0  0  0  0  0  0  0  0
    5.9628   -4.6151    2.8007 H   0  0  0  0  0  0  0  0  0  0  0  0
    3.6141   -4.0099    3.3894 H   0  0  0  0  0  0  0  0  0  0  0  0
    3.3425   -2.0990    1.8180 H   0  0  0  0  0  0  0  0  0  0  0  0
    5.0200   -2.2925    2.2761 H   0  0  0  0  0  0  0  0  0  0  0  0
    4.1114   -1.1553   -0.3242 H   0  0  0  0  0  0  0  0  0  0  0  0
    6.6877   -3.3848    0.6773 H   0  0  0  0  0  0  0  0  0  0  0  0
    6.1601   -3.9549   -0.8950 H   0  0  0  0  0  0  0  0  0  0  0  0
    3.6536   -3.6816   -1.5775 H   0  0  0  0  0  0  0  0  0  0  0  0
    2.5303   -2.9352   -0.4667 H   0  0  0  0  0  0  0  0  0  0  0  0
   -1.1461   -8.1232    2.1228 H   0  0  0  0  0  0  0  0  0  0  0  0
   -0.2642   -9.6934    2.1025 H   0  0  0  0  0  0  0  0  0  0  0  0
   -1.6262   -8.6485    4.4342 H   0  0  0  0  0  0  0  0  0  0  0  0
   -0.1952   -9.7570    4.5339 H   0  0  0  0  0  0  0  0  0  0  0  0
    1.0369   -7.7490    5.1095 H   0  0  0  0  0  0  0  0  0  0  0  0
   -0.1662   -6.6845    4.2843 H   0  0  0  0  0  0  0  0  0  0  0  0
  1  2  1  0
  1 21  1  0
  1 22  1  0
  1 23  1  0
  2  3  1  0
  2 24  1  0
  2 25  1  0
  3 20  1  0
  3  4  1  0
  3 18  1  0
  4  5  2  0
  4  6  1  0
  6  7  1  0
  6 26  1  0
  7 12  1  0
  7  8  1  0
  7 27  1  6
  8 17  1  0
  8  9  1  0
  8 28  1  6
  9 10  1  0
  9 29  1  0
  9 30  1  0
 10 16  1  0
 10 11  1  0
 10 31  1  1
 11 12  1  0
 11 32  1  0
 11 33  1  0
 12 13  1  0
 12 34  1  1
 13 14  1  0
 13 35  1  0
 13 36  1  0
 14 15  1  6
 14 16  1  0
 14 17  1  0
 15 37  1  0
 16 38  1  0
 16 39  1  0
 17 40  1  0
 17 41  1  0
 18 19  1  0
 18 42  1  0
 18 43  1  0
 19 20  1  0
 19 44  1  0
 19 45  1  0
 20 46  1  0
 20 47  1  0
M  END
>  <i_m_ct_stereo_status>  (52) 
1

>  <s_m_source_file>  (52) 
/var/tmp/pbs.5076255.sched01/tmp5t01l7na/0y8cq_bsf.sdf

>  <i_m_source_file_index>  (52) 
37

>  <i_lp_mmshare_version>  (52) 
48012

>  <i_f3d_flags>  (52) 
0

>  <s_epik_input>  (52) 
W0NIMl0xW0NIMl1bQ0gyXUMxKFtDSDJdW0NIM10pQyg9TylbTkhdW0NASF0oW0NAQEhdKFtDSDJdMilbQ0gyXVtDQEhdKFtDSDJdMylbQ0gyXTQpW0NAQEhdM1tDSDJdW0NAXTI0W09IXQ==

>  <s_epik_cmdline>  (52) 
J2VwaWtfcHl0aG9uJywgJy1waHQnLCAnMi4wJywgJy1waCcsICc3LjAnLCAnLXRuJywgJzgnLCAnLW1hJywgJzIwMCcsICctaW1hZScsICc8aW5maWxlLm1hZT4nLCAnLW9tYWUnLCAnPG91dGZpbGUubWFlPic=

>  <r_lp_tautomer_probability>  (52) 
1

>  <r_epik_Ionization_Penalty>  (52) 
1.87895e-06

>  <r_epik_Ionization_Penalty_Charging>  (52) 
0

>  <r_epik_Ionization_Penalty_Neutral>  (52) 
1.87895e-06

>  <r_epik_State_Penalty>  (52) 
-0

>  <r_epik_Charging_Adjusted_Penalty>  (52) 
0

>  <i_epik_Tot_Q>  (52) 
0

>  <i_epik_Tot_abs_Q>  (52) 
0

>  <s_lp_Force_Field>  (52) 
OPLS3e

>  <r_lp_Energy>  (52) 
14.4297

>  <b_lp_Chiralities_Consistent>  (52) 
1

>  <s_lp_Variant>  (52) 
16:0-1

>  <s_i_glide_gridfile>  (52) 
pfpi4k_grid

>  <i_i_glide_lignum>  (52) 
37

>  <i_i_glide_rotatable_bonds>  (52) 
5

>  <r_i_docking_score>  (52) 
-3.10639

>  <r_i_glide_ligand_efficiency>  (52) 
-0.15532

>  <r_i_glide_ligand_efficiency_sa>  (52) 
-0.421602

>  <r_i_glide_ligand_efficiency_ln>  (52) 
-0.777427

>  <r_i_glide_gscore>  (52) 
-3.10639

>  <r_i_glide_lipo>  (52) 
-0.214448

>  <r_i_glide_hbond>  (52) 
-0.202702

>  <r_i_glide_metal>  (52) 
-0

>  <r_i_glide_rewards>  (52) 
-1.51772

>  <r_i_glide_evdw>  (52) 
-18.2778

>  <r_i_glide_ecoul>  (52) 
-5.98828

>  <r_i_glide_erotb>  (52) 
0.70206

>  <r_i_glide_esite>  (52) 
-0.0614508

>  <r_i_glide_emodel>  (52) 
-29.3042

>  <r_i_glide_energy>  (52) 
-24.2661

>  <r_i_glide_einternal>  (52) 
0.305488

>  <r_i_glide_intrahb_reward>  (52) 
-0

>  <i_i_glide_confnum>  (52) 
3

>  <i_i_glide_posenum>  (52) 
11

>  <r_i_glide_eff_state_penalty>  (52) 
0

>  <ligand_id>  (52) 
16

>  <original_smiles>  (52) 
CCC1(C(=O)NC2C3CC4CC2CC(O)(C4)C3)CCC1

>  <smiles>  (52) 
[H]OC12C([H])([H])C3([H])C([H])([H])C([H])(C1([H])[H])C([H])(N([H])C(=O)C1(C([H])([H])C([H])([H])[H])C([H])([H])C([H])([H])C1([H])[H])C([H])(C3([H])[H])C2([H])[H]

$$$$
16:0:2
     RDKit          3D

 47 50  0  0  1  0  0  0  0  0999 V2000
    1.3219  -10.2534    2.5495 C   0  0  0  0  0  0  0  0  0  0  0  0
    0.7710   -9.3411    3.6524 C   0  0  0  0  0  0  0  0  0  0  0  0
    0.0368   -8.0691    3.1558 C   0  0  0  0  0  0  0  0  0  0  0  0
    0.9525   -7.0507    2.4172 C   0  0  0  0  0  0  0  0  0  0  0  0
    0.4998   -6.2875    1.5585 O   0  0  0  0  0  0  0  0  0  0  0  0
    2.2383   -7.0102    2.7906 N   0  0  0  0  0  0  0  0  0  0  0  0
    3.2677   -6.0851    2.3124 C   0  0  2  0  0  0  0  0  0  0  0  0
    4.0352   -6.6482    1.0860 C   0  0  2  0  0  0  0  0  0  0  0  0
    4.7746   -7.9553    1.4628 C   0  0  0  0  0  0  0  0  0  0  0  0
    5.7720   -7.6657    2.6039 C   0  0  2  0  0  0  0  0  0  0  0  0
    5.0205   -7.1079    3.8358 C   0  0  0  0  0  0  0  0  0  0  0  0
    4.2860   -5.8013    3.4418 C   0  0  1  0  0  0  0  0  0  0  0  0
    5.3223   -4.7615    2.9564 C   0  0  0  0  0  0  0  0  0  0  0  0
    6.0749   -5.3250    1.7304 C   0  0  1  0  0  0  0  0  0  0  0  0
    7.0229   -4.3836    1.2769 O   0  0  0  0  0  0  0  0  0  0  0  0
    6.8058   -6.6270    2.1268 C   0  0  0  0  0  0  0  0  0  0  0  0
    5.0614   -5.6014    0.6020 C   0  0  0  0  0  0  0  0  0  0  0  0
   -1.2999   -8.3036    2.4115 C   0  0  0  0  0  0  0  0  0  0  0  0
   -2.0322   -8.0832    3.7320 C   0  0  0  0  0  0  0  0  0  0  0  0
   -0.7994   -7.3196    4.2170 C   0  0  0  0  0  0  0  0  0  0  0  0
    1.7804  -11.1408    2.9875 H   0  0  0  0  0  0  0  0  0  0  0  0
    2.0712   -9.7615    1.9369 H   0  0  0  0  0  0  0  0  0  0  0  0
    0.5254  -10.5986    1.8943 H   0  0  0  0  0  0  0  0  0  0  0  0
    0.0740   -9.9445    4.2369 H   0  0  0  0  0  0  0  0  0  0  0  0
    1.5650   -9.0890    4.3567 H   0  0  0  0  0  0  0  0  0  0  0  0
    2.5292   -7.6887    3.4770 H   0  0  0  0  0  0  0  0  0  0  0  0
    2.7956   -5.1411    2.0308 H   0  0  0  0  0  0  0  0  0  0  0  0
    3.3380   -6.8351    0.2739 H   0  0  0  0  0  0  0  0  0  0  0  0
    4.0718   -8.7267    1.7737 H   0  0  0  0  0  0  0  0  0  0  0  0
    5.2945   -8.3601    0.5943 H   0  0  0  0  0  0  0  0  0  0  0  0
    6.2851   -8.5886    2.8768 H   0  0  0  0  0  0  0  0  0  0  0  0
    4.3211   -7.8538    4.2165 H   0  0  0  0  0  0  0  0  0  0  0  0
    5.7159   -6.9134    4.6526 H   0  0  0  0  0  0  0  0  0  0  0  0
    3.7610   -5.3973    4.3100 H   0  0  0  0  0  0  0  0  0  0  0  0
    4.8268   -3.8226    2.7017 H   0  0  0  0  0  0  0  0  0  0  0  0
    6.0169   -4.5383    3.7650 H   0  0  0  0  0  0  0  0  0  0  0  0
    7.6633   -4.2508    1.9576 H   0  0  0  0  0  0  0  0  0  0  0  0
    7.5248   -6.4316    2.9240 H   0  0  0  0  0  0  0  0  0  0  0  0
    7.3729   -7.0266    1.2848 H   0  0  0  0  0  0  0  0  0  0  0  0
    5.5674   -5.9553   -0.2952 H   0  0  0  0  0  0  0  0  0  0  0  0
    4.5461   -4.6824    0.3184 H   0  0  0  0  0  0  0  0  0  0  0  0
   -1.5612   -7.5441    1.6802 H   0  0  0  0  0  0  0  0  0  0  0  0
   -1.4386   -9.3035    1.9976 H   0  0  0  0  0  0  0  0  0  0  0  0
   -2.9459   -7.4944    3.6648 H   0  0  0  0  0  0  0  0  0  0  0  0
   -2.1886   -9.0170    4.2811 H   0  0  0  0  0  0  0  0  0  0  0  0
   -0.5088   -7.5431    5.2447 H   0  0  0  0  0  0  0  0  0  0  0  0
   -0.8793   -6.2431    4.0529 H   0  0  0  0  0  0  0  0  0  0  0  0
  1  2  1  0
  1 21  1  0
  1 22  1  0
  1 23  1  0
  2  3  1  0
  2 24  1  0
  2 25  1  0
  3 20  1  0
  3  4  1  0
  3 18  1  0
  4  5  2  0
  4  6  1  0
  6  7  1  0
  6 26  1  0
  7 12  1  0
  7  8  1  0
  7 27  1  6
  8 17  1  0
  8  9  1  0
  8 28  1  6
  9 10  1  0
  9 29  1  0
  9 30  1  0
 10 16  1  0
 10 11  1  0
 10 31  1  1
 11 12  1  0
 11 32  1  0
 11 33  1  0
 12 13  1  0
 12 34  1  1
 13 14  1  0
 13 35  1  0
 13 36  1  0
 14 15  1  6
 14 16  1  0
 14 17  1  0
 15 37  1  0
 16 38  1  0
 16 39  1  0
 17 40  1  0
 17 41  1  0
 18 19  1  0
 18 42  1  0
 18 43  1  0
 19 20  1  0
 19 44  1  0
 19 45  1  0
 20 46  1  0
 20 47  1  0
M  END
>  <i_m_ct_stereo_status>  (53) 
1

>  <s_m_source_file>  (53) 
/var/tmp/pbs.5076255.sched01/tmp5t01l7na/0y8cq_bsf.sdf

>  <i_m_source_file_index>  (53) 
37

>  <i_lp_mmshare_version>  (53) 
48012

>  <i_f3d_flags>  (53) 
0

>  <s_epik_input>  (53) 
W0NIMl0xW0NIMl1bQ0gyXUMxKFtDSDJdW0NIM10pQyg9TylbTkhdW0NASF0oW0NAQEhdKFtDSDJdMilbQ0gyXVtDQEhdKFtDSDJdMylbQ0gyXTQpW0NAQEhdM1tDSDJdW0NAXTI0W09IXQ==

>  <s_epik_cmdline>  (53) 
J2VwaWtfcHl0aG9uJywgJy1waHQnLCAnMi4wJywgJy1waCcsICc3LjAnLCAnLXRuJywgJzgnLCAnLW1hJywgJzIwMCcsICctaW1hZScsICc8aW5maWxlLm1hZT4nLCAnLW9tYWUnLCAnPG91dGZpbGUubWFlPic=

>  <r_lp_tautomer_probability>  (53) 
1

>  <r_epik_Ionization_Penalty>  (53) 
1.87895e-06

>  <r_epik_Ionization_Penalty_Charging>  (53) 
0

>  <r_epik_Ionization_Penalty_Neutral>  (53) 
1.87895e-06

>  <r_epik_State_Penalty>  (53) 
-0

>  <r_epik_Charging_Adjusted_Penalty>  (53) 
0

>  <i_epik_Tot_Q>  (53) 
0

>  <i_epik_Tot_abs_Q>  (53) 
0

>  <s_lp_Force_Field>  (53) 
OPLS3e

>  <r_lp_Energy>  (53) 
14.4297

>  <b_lp_Chiralities_Consistent>  (53) 
1

>  <s_lp_Variant>  (53) 
16:0-1

>  <s_i_glide_gridfile>  (53) 
pfpi4k_grid

>  <i_i_glide_lignum>  (53) 
37

>  <i_i_glide_rotatable_bonds>  (53) 
5

>  <r_i_docking_score>  (53) 
-3.01933

>  <r_i_glide_ligand_efficiency>  (53) 
-0.150967

>  <r_i_glide_ligand_efficiency_sa>  (53) 
-0.409786

>  <r_i_glide_ligand_efficiency_ln>  (53) 
-0.755639

>  <r_i_glide_gscore>  (53) 
-3.01933

>  <r_i_glide_lipo>  (53) 
-0.531557

>  <r_i_glide_hbond>  (53) 
-0.172723

>  <r_i_glide_metal>  (53) 
-0

>  <r_i_glide_rewards>  (53) 
-1.51772

>  <r_i_glide_evdw>  (53) 
-17.4413

>  <r_i_glide_ecoul>  (53) 
-3.85513

>  <r_i_glide_erotb>  (53) 
0.70206

>  <r_i_glide_esite>  (53) 
-0.0490607

>  <r_i_glide_emodel>  (53) 
-26.3517

>  <r_i_glide_energy>  (53) 
-21.2965

>  <r_i_glide_einternal>  (53) 
0.266013

>  <r_i_glide_intrahb_reward>  (53) 
-0

>  <i_i_glide_confnum>  (53) 
3

>  <i_i_glide_posenum>  (53) 
31

>  <r_i_glide_eff_state_penalty>  (53) 
0

>  <ligand_id>  (53) 
16

>  <original_smiles>  (53) 
CCC1(C(=O)NC2C3CC4CC2CC(O)(C4)C3)CCC1

>  <smiles>  (53) 
[H]OC12C([H])([H])C3([H])C([H])([H])C([H])(C1([H])[H])C([H])(N([H])C(=O)C1(C([H])([H])C([H])([H])[H])C([H])([H])C([H])([H])C1([H])[H])C([H])(C3([H])[H])C2([H])[H]

$$$$
17:0:0
     RDKit          3D

 89 96  0  0  1  0  0  0  0  0999 V2000
   -1.9528    1.9018    7.8621 C   0  0  0  0  0  0  0  0  0  0  0  0
   -0.7538    1.4522    7.0073 C   0  0  2  0  0  0  0  0  0  0  0  0
    0.3348    1.1875    7.8916 O   0  0  0  0  0  0  0  0  0  0  0  0
    1.5693    0.7481    7.3771 C   0  0  2  0  0  0  0  0  0  0  0  0
    1.7314   -0.7282    7.6978 C   0  0  0  0  0  0  0  0  0  0  0  0
    2.8631   -1.4046    6.8951 C   0  0  0  0  0  0  0  0  0  0  0  0
    4.1002   -0.6320    6.2978 C   0  0  1  0  0  0  0  0  0  0  0  0
    4.0801   -0.1136    4.8002 C   0  0  1  0  0  0  0  0  0  0  0  0
    3.5671   -1.0639    3.6462 C   0  0  2  0  0  0  0  0  0  0  0  0
    2.0317   -1.3360    3.6295 C   0  0  0  0  0  0  0  0  0  0  0  0
    1.7279   -2.6089    3.2528 C   0  0  0  0  0  0  0  0  0  0  0  0
    2.9949   -3.0818    2.6434 C   0  0  2  0  0  0  0  0  0  0  0  0
    3.7666   -4.2166    2.6637 O   0  0  0  0  0  0  0  0  0  0  0  0
    4.9317   -3.4293    2.3208 C   0  0  2  0  0  0  0  0  0  0  0  0
    5.2587   -2.8379    3.4908 O   0  0  0  0  0  0  0  0  0  0  0  0
    3.9240   -2.5063    3.7942 C   0  0  1  0  0  0  0  0  0  0  0  0
    4.5094   -2.1821    1.3617 C   0  0  2  0  0  0  0  0  0  0  0  0
    3.1057   -2.6223    1.1729 C   0  0  1  0  0  0  0  0  0  0  0  0
    2.8938   -3.7255    0.1032 C   0  0  0  0  0  0  0  0  0  0  0  0
    3.5861   -3.3855   -1.2140 C   0  0  1  0  0  0  0  0  0  0  0  0
    2.9933   -2.2802   -1.8746 O   0  0  0  0  0  0  0  0  0  0  0  0
    5.0873   -3.1805   -0.9707 C   0  0  0  0  0  0  0  0  0  0  0  0
    5.4004   -2.0748    0.0637 C   0  0  1  0  0  0  0  0  0  0  0  0
    5.3200   -0.7135   -0.6415 C   0  0  0  0  0  0  0  0  0  0  0  0
    6.7778   -2.1645    0.3973 O   0  0  0  0  0  0  0  0  0  0  0  0
    4.3336   -0.8240    2.2535 C   0  0  1  0  0  0  0  0  0  0  0  0
    3.6804    0.2399    1.5795 O   0  0  0  0  0  0  0  0  0  0  0  0
    3.4937    1.3008    4.6463 C   0  0  0  0  0  0  0  0  0  0  0  0
    3.7368    2.3008    5.8046 C   0  0  0  0  0  0  0  0  0  0  0  0
    3.8329    1.6932    7.2313 C   0  0  1  0  0  0  0  0  0  0  0  0
    2.5929    1.5091    7.9364 O   0  0  0  0  0  0  0  0  0  0  0  0
    4.7108    0.4245    7.2696 C   0  0  0  0  0  0  0  0  0  0  0  0
    4.8195   -0.0913    8.7245 C   0  0  0  0  0  0  0  0  0  0  0  0
    6.1686    0.7821    6.8657 C   0  0  0  0  0  0  0  0  0  0  0  0
   -0.3903    2.5372    5.9721 C   0  0  2  0  0  0  0  0  0  0  0  0
   -1.5413    2.9976    5.0765 C   0  0  0  0  0  0  0  0  0  0  0  0
   -0.8965    3.1865    3.6972 C   0  0  1  0  0  0  0  0  0  0  0  0
   -1.4473    2.1923    2.6690 C   0  0  0  0  0  0  0  0  0  0  0  0
   -1.0368    4.5151    3.2440 O   0  0  0  0  0  0  0  0  0  0  0  0
    0.5713    2.8767    3.9423 C   0  0  0  0  0  0  0  0  0  0  0  0
    0.4327    1.9766    4.9904 O   0  0  0  0  0  0  0  0  0  0  0  0
   -2.8358    2.1353    7.2629 H   0  0  0  0  0  0  0  0  0  0  0  0
   -1.7171    2.7919    8.4505 H   0  0  0  0  0  0  0  0  0  0  0  0
   -2.2612    1.1259    8.5645 H   0  0  0  0  0  0  0  0  0  0  0  0
   -1.0190    0.5203    6.5113 H   0  0  0  0  0  0  0  0  0  0  0  0
    1.6419    0.8072    6.3174 H   0  0  0  0  0  0  0  0  0  0  0  0
    1.7731   -0.8913    8.7817 H   0  0  0  0  0  0  0  0  0  0  0  0
    0.8115   -1.1864    7.3598 H   0  0  0  0  0  0  0  0  0  0  0  0
    3.2866   -2.1255    7.5902 H   0  0  0  0  0  0  0  0  0  0  0  0
    2.3908   -2.0159    6.1356 H   0  0  0  0  0  0  0  0  0  0  0  0
    4.8543   -1.4172    6.2483 H   0  0  0  0  0  0  0  0  0  0  0  0
    5.1359    0.0096    4.5645 H   0  0  0  0  0  0  0  0  0  0  0  0
    1.2970   -0.6476    4.0025 H   0  0  0  0  0  0  0  0  0  0  0  0
    0.7663   -3.0830    3.1916 H   0  0  0  0  0  0  0  0  0  0  0  0
    5.7508   -4.0587    1.9761 H   0  0  0  0  0  0  0  0  0  0  0  0
    3.6823   -2.9696    4.7509 H   0  0  0  0  0  0  0  0  0  0  0  0
    2.4472   -1.7860    0.9307 H   0  0  0  0  0  0  0  0  0  0  0  0
    3.3009   -4.6874    0.4299 H   0  0  0  0  0  0  0  0  0  0  0  0
    1.8342   -3.9037   -0.0604 H   0  0  0  0  0  0  0  0  0  0  0  0
    3.4728   -4.2392   -1.8744 H   0  0  0  0  0  0  0  0  0  0  0  0
    2.1862   -2.0085   -1.4363 H   0  0  0  0  0  0  0  0  0  0  0  0
    5.4980   -4.1235   -0.6183 H   0  0  0  0  0  0  0  0  0  0  0  0
    5.5928   -2.9887   -1.9159 H   0  0  0  0  0  0  0  0  0  0  0  0
    4.3057   -0.4087   -0.8904 H   0  0  0  0  0  0  0  0  0  0  0  0
    5.8541   -0.7405   -1.5876 H   0  0  0  0  0  0  0  0  0  0  0  0
    5.7659    0.0737   -0.0305 H   0  0  0  0  0  0  0  0  0  0  0  0
    6.9459   -2.9854    0.8333 H   0  0  0  0  0  0  0  0  0  0  0  0
    5.3462   -0.4904    2.4750 H   0  0  0  0  0  0  0  0  0  0  0  0
    3.8199    1.0413    2.0622 H   0  0  0  0  0  0  0  0  0  0  0  0
    3.8561    1.7659    3.7318 H   0  0  0  0  0  0  0  0  0  0  0  0
    2.4502    1.1558    4.4618 H   0  0  0  0  0  0  0  0  0  0  0  0
    4.6711    2.8243    5.5967 H   0  0  0  0  0  0  0  0  0  0  0  0
    2.9918    3.0941    5.7877 H   0  0  0  0  0  0  0  0  0  0  0  0
    4.3375    2.4537    7.8258 H   0  0  0  0  0  0  0  0  0  0  0  0
    5.3429    0.6266    9.3597 H   0  0  0  0  0  0  0  0  0  0  0  0
    5.3556   -1.0389    8.7697 H   0  0  0  0  0  0  0  0  0  0  0  0
    3.8510   -0.2424    9.1915 H   0  0  0  0  0  0  0  0  0  0  0  0
    6.6153    1.4891    7.5692 H   0  0  0  0  0  0  0  0  0  0  0  0
    6.2542    1.2511    5.8860 H   0  0  0  0  0  0  0  0  0  0  0  0
    6.8047   -0.1047    6.8479 H   0  0  0  0  0  0  0  0  0  0  0  0
    0.0923    3.3932    6.4456 H   0  0  0  0  0  0  0  0  0  0  0  0
   -2.2699    2.1911    5.0153 H   0  0  0  0  0  0  0  0  0  0  0  0
   -2.0510    3.8815    5.4691 H   0  0  0  0  0  0  0  0  0  0  0  0
   -1.3306    1.1574    3.0059 H   0  0  0  0  0  0  0  0  0  0  0  0
   -0.9202    2.2504    1.7144 H   0  0  0  0  0  0  0  0  0  0  0  0
   -2.5070    2.3589    2.4909 H   0  0  0  0  0  0  0  0  0  0  0  0
   -0.5961    4.5753    2.3914 H   0  0  0  0  0  0  0  0  0  0  0  0
    1.0719    2.4267    3.0815 H   0  0  0  0  0  0  0  0  0  0  0  0
    1.1658    3.7416    4.2468 H   0  0  0  0  0  0  0  0  0  0  0  0
  1  2  1  0
  1 42  1  0
  1 43  1  0
  1 44  1  0
  2  3  1  0
  2 35  1  0
  2 45  1  6
  3  4  1  0
  4 31  1  0
  4  5  1  0
  4 46  1  6
  5  6  1  0
  5 47  1  0
  5 48  1  0
  6  7  1  0
  6 49  1  0
  6 50  1  0
  7 32  1  0
  7  8  1  0
  7 51  1  6
  8  9  1  0
  8 28  1  0
  8 52  1  6
  9 16  1  0
  9 26  1  0
  9 10  1  6
 10 11  2  0
 10 53  1  0
 12 11  1  1
 11 54  1  0
 12 16  1  0
 12 18  1  0
 12 13  1  0
 13 14  1  0
 14 15  1  0
 14 17  1  0
 14 55  1  6
 15 16  1  0
 16 56  1  1
 17 23  1  6
 17 18  1  0
 17 26  1  0
 18 19  1  0
 18 57  1  6
 19 20  1  0
 19 58  1  0
 19 59  1  0
 20 21  1  0
 20 22  1  0
 20 60  1  6
 21 61  1  0
 22 23  1  0
 22 62  1  0
 22 63  1  0
 23 24  1  0
 23 25  1  1
 24 64  1  0
 24 65  1  0
 24 66  1  0
 25 67  1  0
 26 27  1  0
 26 68  1  1
 27 69  1  0
 28 29  1  0
 28 70  1  0
 28 71  1  0
 29 30  1  0
 29 72  1  0
 29 73  1  0
 30 31  1  0
 30 32  1  0
 30 74  1  1
 32 33  1  0
 32 34  1  0
 33 75  1  0
 33 76  1  0
 33 77  1  0
 34 78  1  0
 34 79  1  0
 34 80  1  0
 35 41  1  0
 35 36  1  0
 35 81  1  1
 36 37  1  0
 36 82  1  0
 36 83  1  0
 37 38  1  0
 37 39  1  6
 37 40  1  0
 38 84  1  0
 38 85  1  0
 38 86  1  0
 39 87  1  0
 40 41  1  0
 40 88  1  0
 40 89  1  0
M  END
>  <i_m_ct_stereo_status>  (54) 
1

>  <s_m_source_file>  (54) 
/var/tmp/pbs.5076255.sched01/tmp5t01l7na/0y8cq_bsf.sdf

>  <i_m_source_file_index>  (54) 
38

>  <i_lp_mmshare_version>  (54) 
48012

>  <i_f3d_flags>  (54) 
0

>  <s_epik_input>  (54) 
W0NIM11bQ0BAXTEoW09IXSlbQ0gyXVtDQEhdKE9bQ0gyXTEpW0NASF0oW0NIM10pT1tDQEhdKFtDSDJdW0NIMl1bQ0hdMjMpT1tDQEBIXShDMyhbQ0gzXSlbQ0gzXSlbQ0gyXVtDSDJdW0NAQEhdMltDQEBdKFtDQEhdNFtDQF01NjcpKFtDSF09W0NIXTUpW0NASF0oW09IXSlbQ0BAXTgoW0NASF0oTzYpTzQpW0NASF03W0NIMl1bQ0BASF0oW09IXSlbQ0gyXVtDQF04KFtDSDNdKVtPSF0=

>  <s_epik_cmdline>  (54) 
J2VwaWtfcHl0aG9uJywgJy1waHQnLCAnMi4wJywgJy1waCcsICc3LjAnLCAnLXRuJywgJzgnLCAnLW1hJywgJzIwMCcsICctaW1hZScsICc8aW5maWxlLm1hZT4nLCAnLW9tYWUnLCAnPG91dGZpbGUubWFlPic=

>  <r_lp_tautomer_probability>  (54) 
1

>  <r_epik_Ionization_Penalty>  (54) 
6.76102e-07

>  <r_epik_Ionization_Penalty_Charging>  (54) 
0

>  <r_epik_Ionization_Penalty_Neutral>  (54) 
6.76102e-07

>  <r_epik_State_Penalty>  (54) 
-0

>  <r_epik_Charging_Adjusted_Penalty>  (54) 
0

>  <i_epik_Tot_Q>  (54) 
0

>  <i_epik_Tot_abs_Q>  (54) 
0

>  <s_epik_Chemistry_Notes>  (54) 
This compound contains an acetal/aminal-like group ( X-CH(R)-Y where X, Y are N, S, or O) that may be acid/base labile, releasing an aldehyde.

>  <s_lp_Force_Field>  (54) 
OPLS3e

>  <r_lp_Energy>  (54) 
146.179

>  <b_lp_Chiralities_Consistent>  (54) 
1

>  <s_lp_Variant>  (54) 
17:0-1

>  <s_i_glide_gridfile>  (54) 
pfpi4k_grid

>  <i_i_glide_lignum>  (54) 
38

>  <i_i_glide_rotatable_bonds>  (54) 
8

>  <r_i_docking_score>  (54) 
-3.41453

>  <r_i_glide_ligand_efficiency>  (54) 
-0.0832812

>  <r_i_glide_ligand_efficiency_sa>  (54) 
-0.287172

>  <r_i_glide_ligand_efficiency_ln>  (54) 
-0.724403

>  <r_i_glide_gscore>  (54) 
-3.41453

>  <r_i_glide_lipo>  (54) 
-0.225706

>  <r_i_glide_hbond>  (54) 
-0.213057

>  <r_i_glide_metal>  (54) 
-0

>  <r_i_glide_rewards>  (54) 
-0.0524732

>  <r_i_glide_evdw>  (54) 
-30.0697

>  <r_i_glide_ecoul>  (54) 
-10.4973

>  <r_i_glide_erotb>  (54) 
0.154783

>  <r_i_glide_esite>  (54) 
0

>  <r_i_glide_emodel>  (54) 
-44.9049

>  <r_i_glide_energy>  (54) 
-40.567

>  <r_i_glide_einternal>  (54) 
7.06076

>  <r_i_glide_intrahb_reward>  (54) 
-0

>  <i_i_glide_confnum>  (54) 
5

>  <i_i_glide_posenum>  (54) 
2

>  <r_i_glide_eff_state_penalty>  (54) 
0

>  <ligand_id>  (54) 
17

>  <original_smiles>  (54) 
CC(OC1CCC2C(C34C=CC56OC(OC53)C3(C6CC(O)CC3(C)O)C4O)CCC(O1)C2(C)C)C1CC(C)(O)CO1

>  <smiles>  (54) 
[H]OC1([H])C([H])([H])C2([H])C34OC5([H])OC3([H])C(C3([H])C([H])([H])C([H])([H])C6([H])OC([H])(OC([H])(C([H])([H])[H])C7([H])OC([H])([H])C(O[H])(C([H])([H])[H])C7([H])[H])C([H])([H])C([H])([H])C3([H])C6(C([H])([H])[H])C([H])([H])[H])(C([H])=C4[H])C([H])(O[H])C52C(O[H])(C([H])([H])[H])C1([H])[H]

$$$$
17:0:1
     RDKit          3D

 89 96  0  0  1  0  0  0  0  0999 V2000
    1.5831    0.9366    1.7247 C   0  0  0  0  0  0  0  0  0  0  0  0
    2.2208   -0.2119    2.5296 C   0  0  2  0  0  0  0  0  0  0  0  0
    2.0279    0.0844    3.9154 O   0  0  0  0  0  0  0  0  0  0  0  0
    1.9420   -1.0186    4.7776 C   0  0  2  0  0  0  0  0  0  0  0  0
    0.4691   -1.4237    4.8028 C   0  0  0  0  0  0  0  0  0  0  0  0
    0.1841   -2.7886    5.4675 C   0  0  0  0  0  0  0  0  0  0  0  0
    1.1311   -3.4344    6.5335 C   0  0  1  0  0  0  0  0  0  0  0  0
    2.2748   -4.4235    6.0587 C   0  0  1  0  0  0  0  0  0  0  0  0
    1.9320   -5.6135    5.0692 C   0  0  2  0  0  0  0  0  0  0  0  0
    2.0827   -5.2610    3.5699 C   0  0  0  0  0  0  0  0  0  0  0  0
    1.1644   -5.8842    2.7894 C   0  0  0  0  0  0  0  0  0  0  0  0
    0.6379   -6.9479    3.6696 C   0  0  2  0  0  0  0  0  0  0  0  0
   -0.5826   -7.4728    4.0028 O   0  0  0  0  0  0  0  0  0  0  0  0
   -0.0402   -7.9265    5.2570 C   0  0  2  0  0  0  0  0  0  0  0  0
   -0.0110   -6.7953    6.0002 O   0  0  0  0  0  0  0  0  0  0  0  0
    0.4914   -6.0168    4.9414 C   0  0  1  0  0  0  0  0  0  0  0  0
    1.5400   -8.2953    5.0948 C   0  0  2  0  0  0  0  0  0  0  0  0
    1.5716   -8.1851    3.6211 C   0  0  1  0  0  0  0  0  0  0  0  0
    1.0026   -9.3948    2.8361 C   0  0  0  0  0  0  0  0  0  0  0  0
    1.6006  -10.7148    3.3228 C   0  0  1  0  0  0  0  0  0  0  0  0
    2.9781  -10.7887    2.9799 O   0  0  0  0  0  0  0  0  0  0  0  0
    1.3284  -10.8646    4.8290 C   0  0  0  0  0  0  0  0  0  0  0  0
    1.8782   -9.7066    5.7020 C   0  0  1  0  0  0  0  0  0  0  0  0
    3.3730   -9.9682    5.9812 C   0  0  0  0  0  0  0  0  0  0  0  0
    1.2737   -9.7614    6.9713 O   0  0  0  0  0  0  0  0  0  0  0  0
    2.4648   -7.0450    5.5912 C   0  0  1  0  0  0  0  0  0  0  0  0
    3.8380   -7.1303    5.2433 O   0  0  0  0  0  0  0  0  0  0  0  0
    3.6288   -3.7253    5.7251 C   0  0  0  0  0  0  0  0  0  0  0  0
    3.9903   -2.4813    6.5707 C   0  0  0  0  0  0  0  0  0  0  0  0
    2.7909   -1.6080    7.0088 C   0  0  1  0  0  0  0  0  0  0  0  0
    2.3592   -0.6273    6.0529 O   0  0  0  0  0  0  0  0  0  0  0  0
    1.6358   -2.4301    7.6179 C   0  0  0  0  0  0  0  0  0  0  0  0
    0.5184   -1.4874    8.1217 C   0  0  0  0  0  0  0  0  0  0  0  0
    2.1197   -3.1679    8.9016 C   0  0  0  0  0  0  0  0  0  0  0  0
    3.7322   -0.3330    2.2642 C   0  0  2  0  0  0  0  0  0  0  0  0
    4.0736   -0.5334    0.7870 C   0  0  0  0  0  0  0  0  0  0  0  0
    5.2343   -1.5280    0.7698 C   0  0  1  0  0  0  0  0  0  0  0  0
    4.8568   -2.8142    0.0230 C   0  0  0  0  0  0  0  0  0  0  0  0
    6.3830   -0.9503    0.1759 O   0  0  0  0  0  0  0  0  0  0  0  0
    5.4949   -1.7954    2.2537 C   0  0  0  0  0  0  0  0  0  0  0  0
    4.2466   -1.5203    2.8519 O   0  0  0  0  0  0  0  0  0  0  0  0
    1.7189    0.7637    0.6614 H   0  0  0  0  0  0  0  0  0  0  0  0
    2.0241    1.9035    1.9629 H   0  0  0  0  0  0  0  0  0  0  0  0
    0.5048    0.9978    1.8730 H   0  0  0  0  0  0  0  0  0  0  0  0
    1.7057   -1.1282    2.2357 H   0  0  0  0  0  0  0  0  0  0  0  0
    2.5689   -1.8021    4.4130 H   0  0  0  0  0  0  0  0  0  0  0  0
   -0.1326   -0.5980    5.1739 H   0  0  0  0  0  0  0  0  0  0  0  0
    0.1697   -1.5687    3.7660 H   0  0  0  0  0  0  0  0  0  0  0  0
   -0.7780   -2.6400    5.9775 H   0  0  0  0  0  0  0  0  0  0  0  0
   -0.0028   -3.4370    4.6341 H   0  0  0  0  0  0  0  0  0  0  0  0
    0.4642   -4.1008    7.0689 H   0  0  0  0  0  0  0  0  0  0  0  0
    2.5148   -4.9412    6.9859 H   0  0  0  0  0  0  0  0  0  0  0  0
    2.7435   -4.5094    3.1715 H   0  0  0  0  0  0  0  0  0  0  0  0
    1.0424   -5.7768    1.7267 H   0  0  0  0  0  0  0  0  0  0  0  0
   -0.6863   -8.6717    5.7258 H   0  0  0  0  0  0  0  0  0  0  0  0
   -0.2478   -5.2652    4.7085 H   0  0  0  0  0  0  0  0  0  0  0  0
    2.5706   -7.9674    3.2570 H   0  0  0  0  0  0  0  0  0  0  0  0
   -0.0777   -9.4775    2.9506 H   0  0  0  0  0  0  0  0  0  0  0  0
    1.1770   -9.2475    1.7726 H   0  0  0  0  0  0  0  0  0  0  0  0
    1.0967  -11.5264    2.7977 H   0  0  0  0  0  0  0  0  0  0  0  0
    3.0810  -11.1296    2.1026 H   0  0  0  0  0  0  0  0  0  0  0  0
    0.2485  -10.9284    4.9601 H   0  0  0  0  0  0  0  0  0  0  0  0
    1.6965  -11.8298    5.1738 H   0  0  0  0  0  0  0  0  0  0  0  0
    3.9854   -9.8246    5.1000 H   0  0  0  0  0  0  0  0  0  0  0  0
    3.5266  -10.9977    6.3093 H   0  0  0  0  0  0  0  0  0  0  0  0
    3.7632   -9.3313    6.7727 H   0  0  0  0  0  0  0  0  0  0  0  0
    1.3638  -10.6644    7.2962 H   0  0  0  0  0  0  0  0  0  0  0  0
    2.4247   -7.0669    6.6757 H   0  0  0  0  0  0  0  0  0  0  0  0
    3.8970   -7.2701    4.3171 H   0  0  0  0  0  0  0  0  0  0  0  0
    4.4278   -4.4567    5.8476 H   0  0  0  0  0  0  0  0  0  0  0  0
    3.7169   -3.4446    4.6832 H   0  0  0  0  0  0  0  0  0  0  0  0
    4.5343   -2.8130    7.4568 H   0  0  0  0  0  0  0  0  0  0  0  0
    4.7039   -1.8702    6.0185 H   0  0  0  0  0  0  0  0  0  0  0  0
    3.1824   -0.9811    7.8123 H   0  0  0  0  0  0  0  0  0  0  0  0
    0.8565   -0.8604    8.9500 H   0  0  0  0  0  0  0  0  0  0  0  0
   -0.3362   -2.0630    8.4640 H   0  0  0  0  0  0  0  0  0  0  0  0
    0.1728   -0.7982    7.3568 H   0  0  0  0  0  0  0  0  0  0  0  0
    2.4275   -2.4620    9.6787 H   0  0  0  0  0  0  0  0  0  0  0  0
    2.9819   -3.8125    8.7385 H   0  0  0  0  0  0  0  0  0  0  0  0
    1.3366   -3.7951    9.3297 H   0  0  0  0  0  0  0  0  0  0  0  0
    4.2717    0.5275    2.6697 H   0  0  0  0  0  0  0  0  0  0  0  0
    3.2153   -0.9588    0.2640 H   0  0  0  0  0  0  0  0  0  0  0  0
    4.2878    0.4233    0.3093 H   0  0  0  0  0  0  0  0  0  0  0  0
    3.9701   -3.2748    0.4676 H   0  0  0  0  0  0  0  0  0  0  0  0
    5.6634   -3.5466    0.0639 H   0  0  0  0  0  0  0  0  0  0  0  0
    4.6307   -2.6080   -1.0251 H   0  0  0  0  0  0  0  0  0  0  0  0
    6.6720   -0.2484    0.7358 H   0  0  0  0  0  0  0  0  0  0  0  0
    5.8171   -2.8167    2.4691 H   0  0  0  0  0  0  0  0  0  0  0  0
    6.2279   -1.1070    2.6810 H   0  0  0  0  0  0  0  0  0  0  0  0
  1  2  1  0
  1 42  1  0
  1 43  1  0
  1 44  1  0
  2  3  1  0
  2 35  1  0
  2 45  1  6
  3  4  1  0
  4 31  1  0
  4  5  1  0
  4 46  1  6
  5  6  1  0
  5 47  1  0
  5 48  1  0
  6  7  1  0
  6 49  1  0
  6 50  1  0
  7 32  1  0
  7  8  1  0
  7 51  1  1
  8  9  1  0
  8 28  1  0
  8 52  1  1
  9 16  1  0
  9 26  1  0
  9 10  1  6
 10 11  2  0
 10 53  1  0
 12 11  1  6
 11 54  1  0
 12 16  1  0
 12 18  1  0
 12 13  1  0
 13 14  1  0
 14 15  1  0
 14 17  1  0
 14 55  1  1
 15 16  1  0
 16 56  1  6
 17 23  1  6
 17 18  1  0
 17 26  1  0
 18 19  1  0
 18 57  1  6
 19 20  1  0
 19 58  1  0
 19 59  1  0
 20 21  1  0
 20 22  1  0
 20 60  1  6
 21 61  1  0
 22 23  1  0
 22 62  1  0
 22 63  1  0
 23 24  1  0
 23 25  1  1
 24 64  1  0
 24 65  1  0
 24 66  1  0
 25 67  1  0
 26 27  1  0
 26 68  1  1
 27 69  1  0
 28 29  1  0
 28 70  1  0
 28 71  1  0
 29 30  1  0
 29 72  1  0
 29 73  1  0
 30 31  1  0
 30 32  1  0
 30 74  1  1
 32 33  1  0
 32 34  1  0
 33 75  1  0
 33 76  1  0
 33 77  1  0
 34 78  1  0
 34 79  1  0
 34 80  1  0
 35 41  1  0
 35 36  1  0
 35 81  1  1
 36 37  1  0
 36 82  1  0
 36 83  1  0
 37 38  1  0
 37 39  1  6
 37 40  1  0
 38 84  1  0
 38 85  1  0
 38 86  1  0
 39 87  1  0
 40 41  1  0
 40 88  1  0
 40 89  1  0
M  END
>  <i_m_ct_stereo_status>  (55) 
1

>  <s_m_source_file>  (55) 
/var/tmp/pbs.5076255.sched01/tmp5t01l7na/0y8cq_bsf.sdf

>  <i_m_source_file_index>  (55) 
38

>  <i_lp_mmshare_version>  (55) 
48012

>  <i_f3d_flags>  (55) 
0

>  <s_epik_input>  (55) 
W0NIM11bQ0BAXTEoW09IXSlbQ0gyXVtDQEhdKE9bQ0gyXTEpW0NASF0oW0NIM10pT1tDQEhdKFtDSDJdW0NIMl1bQ0hdMjMpT1tDQEBIXShDMyhbQ0gzXSlbQ0gzXSlbQ0gyXVtDSDJdW0NAQEhdMltDQEBdKFtDQEhdNFtDQF01NjcpKFtDSF09W0NIXTUpW0NASF0oW09IXSlbQ0BAXTgoW0NASF0oTzYpTzQpW0NASF03W0NIMl1bQ0BASF0oW09IXSlbQ0gyXVtDQF04KFtDSDNdKVtPSF0=

>  <s_epik_cmdline>  (55) 
J2VwaWtfcHl0aG9uJywgJy1waHQnLCAnMi4wJywgJy1waCcsICc3LjAnLCAnLXRuJywgJzgnLCAnLW1hJywgJzIwMCcsICctaW1hZScsICc8aW5maWxlLm1hZT4nLCAnLW9tYWUnLCAnPG91dGZpbGUubWFlPic=

>  <r_lp_tautomer_probability>  (55) 
1

>  <r_epik_Ionization_Penalty>  (55) 
6.76102e-07

>  <r_epik_Ionization_Penalty_Charging>  (55) 
0

>  <r_epik_Ionization_Penalty_Neutral>  (55) 
6.76102e-07

>  <r_epik_State_Penalty>  (55) 
-0

>  <r_epik_Charging_Adjusted_Penalty>  (55) 
0

>  <i_epik_Tot_Q>  (55) 
0

>  <i_epik_Tot_abs_Q>  (55) 
0

>  <s_epik_Chemistry_Notes>  (55) 
This compound contains an acetal/aminal-like group ( X-CH(R)-Y where X, Y are N, S, or O) that may be acid/base labile, releasing an aldehyde.

>  <s_lp_Force_Field>  (55) 
OPLS3e

>  <r_lp_Energy>  (55) 
146.179

>  <b_lp_Chiralities_Consistent>  (55) 
1

>  <s_lp_Variant>  (55) 
17:0-1

>  <s_i_glide_gridfile>  (55) 
pfpi4k_grid

>  <i_i_glide_lignum>  (55) 
38

>  <i_i_glide_rotatable_bonds>  (55) 
8

>  <r_i_docking_score>  (55) 
-3.27057

>  <r_i_glide_ligand_efficiency>  (55) 
-0.0797701

>  <r_i_glide_ligand_efficiency_sa>  (55) 
-0.275065

>  <r_i_glide_ligand_efficiency_ln>  (55) 
-0.693863

>  <r_i_glide_gscore>  (55) 
-3.27057

>  <r_i_glide_lipo>  (55) 
-0.435488

>  <r_i_glide_hbond>  (55) 
-0.0608257

>  <r_i_glide_metal>  (55) 
-0

>  <r_i_glide_rewards>  (55) 
0

>  <r_i_glide_evdw>  (55) 
-32.6668

>  <r_i_glide_ecoul>  (55) 
-9.13099

>  <r_i_glide_erotb>  (55) 
0.154783

>  <r_i_glide_esite>  (55) 
-0.0343789

>  <r_i_glide_emodel>  (55) 
-42.5993

>  <r_i_glide_energy>  (55) 
-41.7978

>  <r_i_glide_einternal>  (55) 
10.4708

>  <r_i_glide_intrahb_reward>  (55) 
-0

>  <i_i_glide_confnum>  (55) 
5

>  <i_i_glide_posenum>  (55) 
6

>  <r_i_glide_eff_state_penalty>  (55) 
0

>  <ligand_id>  (55) 
17

>  <original_smiles>  (55) 
CC(OC1CCC2C(C34C=CC56OC(OC53)C3(C6CC(O)CC3(C)O)C4O)CCC(O1)C2(C)C)C1CC(C)(O)CO1

>  <smiles>  (55) 
[H]OC1([H])C([H])([H])C2([H])C34OC5([H])OC3([H])C(C3([H])C([H])([H])C([H])([H])C6([H])OC([H])(OC([H])(C([H])([H])[H])C7([H])OC([H])([H])C(O[H])(C([H])([H])[H])C7([H])[H])C([H])([H])C([H])([H])C3([H])C6(C([H])([H])[H])C([H])([H])[H])(C([H])=C4[H])C([H])(O[H])C52C(O[H])(C([H])([H])[H])C1([H])[H]

$$$$
17:0:2
     RDKit          3D

 89 96  0  0  1  0  0  0  0  0999 V2000
    3.3344   -0.2740    2.1994 C   0  0  0  0  0  0  0  0  0  0  0  0
    4.3377   -1.4539    2.1076 C   0  0  2  0  0  0  0  0  0  0  0  0
    5.3225   -1.3770    3.1441 O   0  0  0  0  0  0  0  0  0  0  0  0
    4.8730   -1.3431    4.4722 C   0  0  2  0  0  0  0  0  0  0  0  0
    5.3171    0.0211    5.0086 C   0  0  0  0  0  0  0  0  0  0  0  0
    4.7676    0.4527    6.4145 C   0  0  0  0  0  0  0  0  0  0  0  0
    4.1546   -0.5959    7.4093 C   0  0  1  0  0  0  0  0  0  0  0  0
    2.6060   -0.9631    7.3056 C   0  0  1  0  0  0  0  0  0  0  0  0
    1.5394    0.1988    7.1755 C   0  0  2  0  0  0  0  0  0  0  0  0
    1.2909    0.9707    8.5153 C   0  0  0  0  0  0  0  0  0  0  0  0
    0.0022    1.2643    8.7325 C   0  0  0  0  0  0  0  0  0  0  0  0
   -0.6302    1.0488    7.4063 C   0  0  2  0  0  0  0  0  0  0  0  0
   -1.7935    0.5245    6.8854 O   0  0  0  0  0  0  0  0  0  0  0  0
   -1.1189    0.2729    5.6303 C   0  0  2  0  0  0  0  0  0  0  0  0
   -0.3612   -0.8200    5.9354 O   0  0  0  0  0  0  0  0  0  0  0  0
    0.1343   -0.3105    7.1593 C   0  0  1  0  0  0  0  0  0  0  0  0
   -0.0365    1.4498    5.3478 C   0  0  2  0  0  0  0  0  0  0  0  0
   -0.4443    2.2881    6.5100 C   0  0  1  0  0  0  0  0  0  0  0  0
   -1.6838    3.1707    6.2877 C   0  0  0  0  0  0  0  0  0  0  0  0
   -1.5742    3.9583    4.9857 C   0  0  1  0  0  0  0  0  0  0  0  0
   -0.5903    4.9742    5.0758 O   0  0  0  0  0  0  0  0  0  0  0  0
   -1.3813    3.0089    3.7908 C   0  0  0  0  0  0  0  0  0  0  0  0
   -0.1456    2.0968    3.9201 C   0  0  1  0  0  0  0  0  0  0  0  0
    1.0986    2.8940    3.4390 C   0  0  0  0  0  0  0  0  0  0  0  0
   -0.2823    1.0816    2.9403 O   0  0  0  0  0  0  0  0  0  0  0  0
    1.4715    0.9940    5.7759 C   0  0  1  0  0  0  0  0  0  0  0  0
    2.3211    2.1142    5.8425 O   0  0  0  0  0  0  0  0  0  0  0  0
    2.3094   -2.1701    6.3675 C   0  0  0  0  0  0  0  0  0  0  0  0
    3.3860   -3.2832    6.2951 C   0  0  0  0  0  0  0  0  0  0  0  0
    4.8512   -2.8062    6.4236 C   0  0  1  0  0  0  0  0  0  0  0  0
    5.4520   -2.3814    5.1960 O   0  0  0  0  0  0  0  0  0  0  0  0
    5.0706   -1.8329    7.6090 C   0  0  0  0  0  0  0  0  0  0  0  0
    6.5714   -1.4473    7.7100 C   0  0  0  0  0  0  0  0  0  0  0  0
    4.7473   -2.5383    8.9477 C   0  0  0  0  0  0  0  0  0  0  0  0
    5.0838   -1.4220    0.7512 C   0  0  2  0  0  0  0  0  0  0  0  0
    4.1258   -1.4040   -0.4411 C   0  0  0  0  0  0  0  0  0  0  0  0
    4.7891   -2.2523   -1.5118 C   0  0  1  0  0  0  0  0  0  0  0  0
    3.9170   -3.4502   -1.8875 C   0  0  0  0  0  0  0  0  0  0  0  0
    5.0109   -1.4747   -2.6670 O   0  0  0  0  0  0  0  0  0  0  0  0
    6.1063   -2.6829   -0.8670 C   0  0  0  0  0  0  0  0  0  0  0  0
    5.8387   -2.6056    0.5280 O   0  0  0  0  0  0  0  0  0  0  0  0
    2.6018   -0.2847    1.3873 H   0  0  0  0  0  0  0  0  0  0  0  0
    3.8589    0.6834    2.1632 H   0  0  0  0  0  0  0  0  0  0  0  0
    2.7371   -0.2945    3.1104 H   0  0  0  0  0  0  0  0  0  0  0  0
    3.8197   -2.4112    2.2202 H   0  0  0  0  0  0  0  0  0  0  0  0
    3.8045   -1.4947    4.4677 H   0  0  0  0  0  0  0  0  0  0  0  0
    6.4015    0.0925    4.9455 H   0  0  0  0  0  0  0  0  0  0  0  0
    4.9469    0.7798    4.3195 H   0  0  0  0  0  0  0  0  0  0  0  0
    5.6508    0.8749    6.9201 H   0  0  0  0  0  0  0  0  0  0  0  0
    4.1398    1.2989    6.3335 H   0  0  0  0  0  0  0  0  0  0  0  0
    4.2044   -0.0429    8.3385 H   0  0  0  0  0  0  0  0  0  0  0  0
    2.3809   -1.3890    8.2976 H   0  0  0  0  0  0  0  0  0  0  0  0
    2.0747    1.0652    9.2607 H   0  0  0  0  0  0  0  0  0  0  0  0
   -0.4590    1.7218    9.6067 H   0  0  0  0  0  0  0  0  0  0  0  0
   -1.8027    0.0481    4.8159 H   0  0  0  0  0  0  0  0  0  0  0  0
   -0.0662   -1.0451    7.9353 H   0  0  0  0  0  0  0  0  0  0  0  0
    0.3339    2.9462    6.8930 H   0  0  0  0  0  0  0  0  0  0  0  0
   -2.5970    2.5774    6.2121 H   0  0  0  0  0  0  0  0  0  0  0  0
   -1.8230    3.8322    7.1344 H   0  0  0  0  0  0  0  0  0  0  0  0
   -2.5121    4.4783    4.8475 H   0  0  0  0  0  0  0  0  0  0  0  0
    0.2658    4.5722    5.0563 H   0  0  0  0  0  0  0  0  0  0  0  0
   -2.2678    2.3831    3.7328 H   0  0  0  0  0  0  0  0  0  0  0  0
   -1.3646    3.5725    2.8570 H   0  0  0  0  0  0  0  0  0  0  0  0
    1.3861    3.6958    4.1106 H   0  0  0  0  0  0  0  0  0  0  0  0
    0.9244    3.3852    2.4841 H   0  0  0  0  0  0  0  0  0  0  0  0
    1.9698    2.2639    3.2811 H   0  0  0  0  0  0  0  0  0  0  0  0
   -0.2197    1.4962    2.0895 H   0  0  0  0  0  0  0  0  0  0  0  0
    1.8186    0.3198    5.0042 H   0  0  0  0  0  0  0  0  0  0  0  0
    2.0989    2.5683    6.6192 H   0  0  0  0  0  0  0  0  0  0  0  0
    1.4016   -2.6621    6.7022 H   0  0  0  0  0  0  0  0  0  0  0  0
    2.0366   -1.8385    5.3672 H   0  0  0  0  0  0  0  0  0  0  0  0
    3.1850   -4.0078    7.0885 H   0  0  0  0  0  0  0  0  0  0  0  0
    3.2628   -3.8470    5.3722 H   0  0  0  0  0  0  0  0  0  0  0  0
    5.4275   -3.7040    6.6482 H   0  0  0  0  0  0  0  0  0  0  0  0
    7.1922   -2.3103    7.9646 H   0  0  0  0  0  0  0  0  0  0  0  0
    6.7331   -0.6811    8.4666 H   0  0  0  0  0  0  0  0  0  0  0  0
    6.9748   -1.0666    6.7771 H   0  0  0  0  0  0  0  0  0  0  0  0
    5.4247   -3.3831    9.1263 H   0  0  0  0  0  0  0  0  0  0  0  0
    3.7396   -2.9473    8.9915 H   0  0  0  0  0  0  0  0  0  0  0  0
    4.8497   -1.8541    9.7930 H   0  0  0  0  0  0  0  0  0  0  0  0
    5.7631   -0.5651    0.6855 H   0  0  0  0  0  0  0  0  0  0  0  0
    3.1664   -1.8395   -0.1709 H   0  0  0  0  0  0  0  0  0  0  0  0
    3.9239   -0.3814   -0.7633 H   0  0  0  0  0  0  0  0  0  0  0  0
    3.7119   -4.0670   -1.0071 H   0  0  0  0  0  0  0  0  0  0  0  0
    4.4167   -4.1037   -2.6067 H   0  0  0  0  0  0  0  0  0  0  0  0
    2.9512   -3.1603   -2.3093 H   0  0  0  0  0  0  0  0  0  0  0  0
    4.1707   -1.1903   -2.9909 H   0  0  0  0  0  0  0  0  0  0  0  0
    6.4340   -3.6775   -1.1688 H   0  0  0  0  0  0  0  0  0  0  0  0
    6.9107   -1.9830   -1.1036 H   0  0  0  0  0  0  0  0  0  0  0  0
  1  2  1  0
  1 42  1  0
  1 43  1  0
  1 44  1  0
  2  3  1  0
  2 35  1  0
  2 45  1  1
  3  4  1  0
  4 31  1  0
  4  5  1  0
  4 46  1  6
  5  6  1  0
  5 47  1  0
  5 48  1  0
  6  7  1  0
  6 49  1  0
  6 50  1  0
  7 32  1  0
  7  8  1  0
  7 51  1  1
  8  9  1  0
  8 28  1  0
  8 52  1  1
  9 16  1  0
  9 26  1  0
  9 10  1  1
 10 11  2  0
 10 53  1  0
 12 11  1  1
 11 54  1  0
 12 16  1  0
 12 18  1  0
 12 13  1  0
 13 14  1  0
 14 15  1  0
 14 17  1  0
 14 55  1  6
 15 16  1  0
 16 56  1  1
 17 23  1  6
 17 18  1  0
 17 26  1  0
 18 19  1  0
 18 57  1  1
 19 20  1  0
 19 58  1  0
 19 59  1  0
 20 21  1  0
 20 22  1  0
 20 60  1  6
 21 61  1  0
 22 23  1  0
 22 62  1  0
 22 63  1  0
 23 24  1  0
 23 25  1  6
 24 64  1  0
 24 65  1  0
 24 66  1  0
 25 67  1  0
 26 27  1  0
 26 68  1  6
 27 69  1  0
 28 29  1  0
 28 70  1  0
 28 71  1  0
 29 30  1  0
 29 72  1  0
 29 73  1  0
 30 31  1  0
 30 32  1  0
 30 74  1  1
 32 33  1  0
 32 34  1  0
 33 75  1  0
 33 76  1  0
 33 77  1  0
 34 78  1  0
 34 79  1  0
 34 80  1  0
 35 41  1  0
 35 36  1  0
 35 81  1  1
 36 37  1  0
 36 82  1  0
 36 83  1  0
 37 38  1  0
 37 39  1  6
 37 40  1  0
 38 84  1  0
 38 85  1  0
 38 86  1  0
 39 87  1  0
 40 41  1  0
 40 88  1  0
 40 89  1  0
M  END
>  <i_m_ct_stereo_status>  (56) 
1

>  <s_m_source_file>  (56) 
/var/tmp/pbs.5076255.sched01/tmp5t01l7na/0y8cq_bsf.sdf

>  <i_m_source_file_index>  (56) 
38

>  <i_lp_mmshare_version>  (56) 
48012

>  <i_f3d_flags>  (56) 
0

>  <s_epik_input>  (56) 
W0NIM11bQ0BAXTEoW09IXSlbQ0gyXVtDQEhdKE9bQ0gyXTEpW0NASF0oW0NIM10pT1tDQEhdKFtDSDJdW0NIMl1bQ0hdMjMpT1tDQEBIXShDMyhbQ0gzXSlbQ0gzXSlbQ0gyXVtDSDJdW0NAQEhdMltDQEBdKFtDQEhdNFtDQF01NjcpKFtDSF09W0NIXTUpW0NASF0oW09IXSlbQ0BAXTgoW0NASF0oTzYpTzQpW0NASF03W0NIMl1bQ0BASF0oW09IXSlbQ0gyXVtDQF04KFtDSDNdKVtPSF0=

>  <s_epik_cmdline>  (56) 
J2VwaWtfcHl0aG9uJywgJy1waHQnLCAnMi4wJywgJy1waCcsICc3LjAnLCAnLXRuJywgJzgnLCAnLW1hJywgJzIwMCcsICctaW1hZScsICc8aW5maWxlLm1hZT4nLCAnLW9tYWUnLCAnPG91dGZpbGUubWFlPic=

>  <r_lp_tautomer_probability>  (56) 
1

>  <r_epik_Ionization_Penalty>  (56) 
6.76102e-07

>  <r_epik_Ionization_Penalty_Charging>  (56) 
0

>  <r_epik_Ionization_Penalty_Neutral>  (56) 
6.76102e-07

>  <r_epik_State_Penalty>  (56) 
-0

>  <r_epik_Charging_Adjusted_Penalty>  (56) 
0

>  <i_epik_Tot_Q>  (56) 
0

>  <i_epik_Tot_abs_Q>  (56) 
0

>  <s_epik_Chemistry_Notes>  (56) 
This compound contains an acetal/aminal-like group ( X-CH(R)-Y where X, Y are N, S, or O) that may be acid/base labile, releasing an aldehyde.

>  <s_lp_Force_Field>  (56) 
OPLS3e

>  <r_lp_Energy>  (56) 
146.179

>  <b_lp_Chiralities_Consistent>  (56) 
1

>  <s_lp_Variant>  (56) 
17:0-1

>  <s_i_glide_gridfile>  (56) 
pfpi4k_grid

>  <i_i_glide_lignum>  (56) 
38

>  <i_i_glide_rotatable_bonds>  (56) 
8

>  <r_i_docking_score>  (56) 
-2.85099

>  <r_i_glide_ligand_efficiency>  (56) 
-0.0695364

>  <r_i_glide_ligand_efficiency_sa>  (56) 
-0.239777

>  <r_i_glide_ligand_efficiency_ln>  (56) 
-0.604848

>  <r_i_glide_gscore>  (56) 
-2.85099

>  <r_i_glide_lipo>  (56) 
-0.227259

>  <r_i_glide_hbond>  (56) 
-0.16

>  <r_i_glide_metal>  (56) 
-0

>  <r_i_glide_rewards>  (56) 
-0.053677

>  <r_i_glide_evdw>  (56) 
-31.3402

>  <r_i_glide_ecoul>  (56) 
-6.37845

>  <r_i_glide_erotb>  (56) 
0.154783

>  <r_i_glide_esite>  (56) 
-0.0410611

>  <r_i_glide_emodel>  (56) 
-42.5363

>  <r_i_glide_energy>  (56) 
-37.7187

>  <r_i_glide_einternal>  (56) 
5.29123

>  <r_i_glide_intrahb_reward>  (56) 
-0

>  <i_i_glide_confnum>  (56) 
4

>  <i_i_glide_posenum>  (56) 
5

>  <r_i_glide_eff_state_penalty>  (56) 
0

>  <ligand_id>  (56) 
17

>  <original_smiles>  (56) 
CC(OC1CCC2C(C34C=CC56OC(OC53)C3(C6CC(O)CC3(C)O)C4O)CCC(O1)C2(C)C)C1CC(C)(O)CO1

>  <smiles>  (56) 
[H]OC1([H])C([H])([H])C2([H])C34OC5([H])OC3([H])C(C3([H])C([H])([H])C([H])([H])C6([H])OC([H])(OC([H])(C([H])([H])[H])C7([H])OC([H])([H])C(O[H])(C([H])([H])[H])C7([H])[H])C([H])([H])C([H])([H])C3([H])C6(C([H])([H])[H])C([H])([H])[H])(C([H])=C4[H])C([H])(O[H])C52C(O[H])(C([H])([H])[H])C1([H])[H]

$$$$
18:0:0
     RDKit          3D

 82 86  0  0  1  0  0  0  0  0999 V2000
   -0.4979   -9.1856    2.7016 C   0  0  0  0  0  0  0  0  0  0  0  0
   -0.6720   -8.2526    3.9031 C   0  0  0  0  0  0  0  0  0  0  0  0
   -2.1569   -7.9388    3.9588 C   0  0  0  0  0  0  0  0  0  0  0  0
   -0.1812   -8.8694    5.2518 C   0  0  0  0  0  0  0  0  0  0  0  0
    1.3104   -9.0910    5.2535 C   0  0  0  0  0  0  0  0  0  0  0  0
    2.1218   -7.8247    4.9169 C   0  0  1  0  0  0  0  0  0  0  0  0
    2.0935   -6.8909    6.1388 C   0  0  0  0  0  0  0  0  0  0  0  0
    3.5466   -8.3371    4.6549 C   0  0  0  0  0  0  0  0  0  0  0  0
    4.4039   -7.2718    3.9961 C   0  0  0  0  0  0  0  0  0  0  0  0
    3.8530   -6.7954    2.6136 C   0  0  1  0  0  0  0  0  0  0  0  0
    4.2403   -7.9149    1.6105 C   0  0  0  0  0  0  0  0  0  0  0  0
    2.3127   -6.6892    2.6228 C   0  0  0  0  0  0  0  0  0  0  0  0
    1.5523   -7.0907    3.6783 C   0  0  0  0  0  0  0  0  0  0  0  0
    0.0484   -6.9146    3.7370 C   0  0  0  0  0  0  0  0  0  0  0  0
    1.7404   -6.1032    1.3297 C   0  0  0  0  0  0  0  0  0  0  0  0
    2.3707   -4.7724    0.9259 C   0  0  0  0  0  0  0  0  0  0  0  0
    3.9124   -4.8802    0.8446 C   0  0  1  0  0  0  0  0  0  0  0  0
    4.6244   -3.6745    0.0795 C   0  0  1  0  0  0  0  0  0  0  0  0
    4.2985   -3.8902   -1.4213 C   0  0  0  0  0  0  0  0  0  0  0  0
    4.0024   -2.2961    0.4731 C   0  0  0  0  0  0  0  0  0  0  0  0
    4.6989   -1.1011   -0.1421 C   0  0  0  0  0  0  0  0  0  0  0  0
    6.1728   -1.1360    0.1907 C   0  0  1  0  0  0  0  0  0  0  0  0
    6.3074   -0.8536    1.5590 O   0  0  0  0  0  0  0  0  0  0  0  0
    6.9580   -2.4291   -0.2724 C   0  0  1  0  0  0  0  0  0  0  0  0
    7.0665   -2.4759   -1.8168 C   0  0  0  0  0  0  0  0  0  0  0  0
    8.4621   -2.4142    0.1472 C   0  0  0  0  0  0  0  0  0  0  0  0
    8.9690   -1.1117    0.1111 O   0  0  0  0  0  0  0  0  0  0  0  0
    6.2039   -3.7151    0.2454 C   0  0  1  0  0  0  0  0  0  0  0  0
    6.5857   -4.1186    1.6791 C   0  0  0  0  0  0  0  0  0  0  0  0
    5.9715   -5.4302    2.1376 C   0  0  0  0  0  0  0  0  0  0  0  0
    4.4444   -5.3609    2.2509 C   0  0  2  0  0  0  0  0  0  0  0  0
    4.0948   -4.3567    3.3887 C   0  0  0  0  0  0  0  0  0  0  0  0
   -1.0191  -10.1344    2.8665 H   0  0  0  0  0  0  0  0  0  0  0  0
    0.5446   -9.4057    2.5034 H   0  0  0  0  0  0  0  0  0  0  0  0
   -0.9244   -8.7432    1.7982 H   0  0  0  0  0  0  0  0  0  0  0  0
   -2.3157   -7.2177    4.7405 H   0  0  0  0  0  0  0  0  0  0  0  0
   -2.6332   -8.8986    4.1101 H   0  0  0  0  0  0  0  0  0  0  0  0
   -2.5364   -7.5140    3.0272 H   0  0  0  0  0  0  0  0  0  0  0  0
   -0.4874   -8.2326    6.0750 H   0  0  0  0  0  0  0  0  0  0  0  0
   -0.5850   -9.8491    5.4657 H   0  0  0  0  0  0  0  0  0  0  0  0
    1.5958   -9.4923    6.2207 H   0  0  0  0  0  0  0  0  0  0  0  0
    1.5034   -9.8789    4.5368 H   0  0  0  0  0  0  0  0  0  0  0  0
    2.5719   -7.3601    6.9954 H   0  0  0  0  0  0  0  0  0  0  0  0
    1.0797   -6.6429    6.4409 H   0  0  0  0  0  0  0  0  0  0  0  0
    2.6026   -5.9545    5.9264 H   0  0  0  0  0  0  0  0  0  0  0  0
    3.9886   -8.6597    5.5971 H   0  0  0  0  0  0  0  0  0  0  0  0
    3.5212   -9.2281    4.0272 H   0  0  0  0  0  0  0  0  0  0  0  0
    4.4813   -6.4770    4.7273 H   0  0  0  0  0  0  0  0  0  0  0  0
    5.4126   -7.6629    3.8830 H   0  0  0  0  0  0  0  0  0  0  0  0
    5.3077   -8.1116    1.6106 H   0  0  0  0  0  0  0  0  0  0  0  0
    3.9479   -7.7218    0.5865 H   0  0  0  0  0  0  0  0  0  0  0  0
    3.7607   -8.8530    1.8694 H   0  0  0  0  0  0  0  0  0  0  0  0
   -0.4007   -6.3938    2.9148 H   0  0  0  0  0  0  0  0  0  0  0  0
   -0.1740   -6.2938    4.5900 H   0  0  0  0  0  0  0  0  0  0  0  0
    1.9172   -6.8315    0.5524 H   0  0  0  0  0  0  0  0  0  0  0  0
    0.6741   -5.9747    1.3368 H   0  0  0  0  0  0  0  0  0  0  0  0
    1.9326   -4.4513   -0.0232 H   0  0  0  0  0  0  0  0  0  0  0  0
    2.0916   -4.0129    1.6542 H   0  0  0  0  0  0  0  0  0  0  0  0
    4.1056   -5.7007    0.1619 H   0  0  0  0  0  0  0  0  0  0  0  0
    4.4205   -3.0142   -2.0419 H   0  0  0  0  0  0  0  0  0  0  0  0
    3.2602   -4.1642   -1.5682 H   0  0  0  0  0  0  0  0  0  0  0  0
    4.9005   -4.6859   -1.8557 H   0  0  0  0  0  0  0  0  0  0  0  0
    2.9495   -2.2452    0.2019 H   0  0  0  0  0  0  0  0  0  0  0  0
    4.0612   -2.1366    1.5351 H   0  0  0  0  0  0  0  0  0  0  0  0
    4.5602   -1.0483   -1.2129 H   0  0  0  0  0  0  0  0  0  0  0  0
    4.2722   -0.1720    0.2387 H   0  0  0  0  0  0  0  0  0  0  0  0
    6.5375   -0.2243   -0.2690 H   0  0  0  0  0  0  0  0  0  0  0  0
    7.0604   -0.2784    1.6353 H   0  0  0  0  0  0  0  0  0  0  0  0
    7.1530   -3.4877   -2.1954 H   0  0  0  0  0  0  0  0  0  0  0  0
    7.9496   -1.9771   -2.2237 H   0  0  0  0  0  0  0  0  0  0  0  0
    6.2267   -2.0248   -2.3084 H   0  0  0  0  0  0  0  0  0  0  0  0
    8.7201   -2.6933    1.1629 H   0  0  0  0  0  0  0  0  0  0  0  0
    9.0565   -3.0634   -0.4930 H   0  0  0  0  0  0  0  0  0  0  0  0
    9.8836   -1.0599   -0.2518 H   0  0  0  0  0  0  0  0  0  0  0  0
    6.5853   -4.5550   -0.3370 H   0  0  0  0  0  0  0  0  0  0  0  0
    7.6408   -4.3539    1.7746 H   0  0  0  0  0  0  0  0  0  0  0  0
    6.3318   -3.3233    2.3677 H   0  0  0  0  0  0  0  0  0  0  0  0
    6.2674   -6.1860    1.4160 H   0  0  0  0  0  0  0  0  0  0  0  0
    6.4100   -5.7124    3.1003 H   0  0  0  0  0  0  0  0  0  0  0  0
    4.2587   -3.3275    3.1213 H   0  0  0  0  0  0  0  0  0  0  0  0
    4.7298   -4.4888    4.2617 H   0  0  0  0  0  0  0  0  0  0  0  0
    3.0618   -4.4288    3.7242 H   0  0  0  0  0  0  0  0  0  0  0  0
  1  2  1  0
  1 33  1  0
  1 34  1  0
  1 35  1  0
  2 14  1  0
  2  3  1  0
  2  4  1  0
  3 36  1  0
  3 37  1  0
  3 38  1  0
  4  5  1  0
  4 39  1  0
  4 40  1  0
  5  6  1  0
  5 41  1  0
  5 42  1  0
  6 13  1  0
  6  7  1  1
  6  8  1  0
  7 43  1  0
  7 44  1  0
  7 45  1  0
  8  9  1  0
  8 46  1  0
  8 47  1  0
  9 10  1  0
  9 48  1  0
  9 49  1  0
 10 31  1  0
 10 11  1  6
 10 12  1  0
 11 50  1  0
 11 51  1  0
 11 52  1  0
 12 13  2  0
 12 15  1  0
 13 14  1  0
 14 53  1  0
 14 54  1  0
 15 16  1  0
 15 55  1  0
 15 56  1  0
 16 17  1  0
 16 57  1  0
 16 58  1  0
 17 31  1  0
 17 18  1  0
 17 59  1  6
 18 28  1  0
 18 19  1  6
 18 20  1  0
 19 60  1  0
 19 61  1  0
 19 62  1  0
 20 21  1  0
 20 63  1  0
 20 64  1  0
 21 22  1  0
 21 65  1  0
 21 66  1  0
 22 23  1  0
 22 24  1  0
 22 67  1  6
 23 68  1  0
 24 25  1  6
 24 26  1  0
 24 28  1  0
 25 69  1  0
 25 70  1  0
 25 71  1  0
 26 27  1  0
 26 72  1  0
 26 73  1  0
 27 74  1  0
 28 29  1  0
 28 75  1  6
 29 30  1  0
 29 76  1  0
 29 77  1  0
 30 31  1  0
 30 78  1  0
 30 79  1  0
 31 32  1  1
 32 80  1  0
 32 81  1  0
 32 82  1  0
M  END
>  <i_m_ct_stereo_status>  (57) 
1

>  <s_m_source_file>  (57) 
/var/tmp/pbs.5076255.sched01/tmp5t01l7na/0y8cq_bsf.sdf

>  <i_m_source_file_index>  (57) 
39

>  <i_lp_mmshare_version>  (57) 
48012

>  <i_f3d_flags>  (57) 
0

>  <s_epik_input>  (57) 
W0NIMl0xW0NIMl1DKFtDSDNdKShbQ0gzXSlbQ0gyXUMoW0NAQF0xMltDSDNdKT1DM1tDQF0oW0NIM10pKFtDSDJdW0NIMl0yKVtDQF00KFtDSDNdKVtDQEBIXShbQ0gyXVtDSDJdMylbQ0BdNShbQ0gzXSlbQ0BIXShbQ0gyXVtDSDJdNClbQ0BdKFtDSDNdKShbQ0gyXVtPSF0pW0NASF0oW09IXSlbQ0gyXVtDSDJdNQ==

>  <s_epik_cmdline>  (57) 
J2VwaWtfcHl0aG9uJywgJy1waHQnLCAnMi4wJywgJy1waCcsICc3LjAnLCAnLXRuJywgJzgnLCAnLW1hJywgJzIwMCcsICctaW1hZScsICc8aW5maWxlLm1hZT4nLCAnLW9tYWUnLCAnPG91dGZpbGUubWFlPic=

>  <r_lp_tautomer_probability>  (57) 
1

>  <r_epik_Ionization_Penalty>  (57) 
1.85211e-06

>  <r_epik_Ionization_Penalty_Charging>  (57) 
0

>  <r_epik_Ionization_Penalty_Neutral>  (57) 
1.85211e-06

>  <r_epik_State_Penalty>  (57) 
-0

>  <r_epik_Charging_Adjusted_Penalty>  (57) 
0

>  <i_epik_Tot_Q>  (57) 
0

>  <i_epik_Tot_abs_Q>  (57) 
0

>  <s_lp_Force_Field>  (57) 
OPLS3e

>  <r_lp_Energy>  (57) 
90.6977

>  <b_lp_Chiralities_Consistent>  (57) 
1

>  <s_lp_Variant>  (57) 
18:0-1

>  <s_i_glide_gridfile>  (57) 
pfpi4k_grid

>  <i_i_glide_lignum>  (57) 
39

>  <i_i_glide_rotatable_bonds>  (57) 
3

>  <r_i_docking_score>  (57) 
-2.62634

>  <r_i_glide_ligand_efficiency>  (57) 
-0.0820731

>  <r_i_glide_ligand_efficiency_sa>  (57) 
-0.260566

>  <r_i_glide_ligand_efficiency_ln>  (57) 
-0.588109

>  <r_i_glide_gscore>  (57) 
-2.62634

>  <r_i_glide_lipo>  (57) 
-0.282337

>  <r_i_glide_hbond>  (57) 
0

>  <r_i_glide_metal>  (57) 
-0

>  <r_i_glide_rewards>  (57) 
-0.390567

>  <r_i_glide_evdw>  (57) 
-14.7467

>  <r_i_glide_ecoul>  (57) 
-8.78712

>  <r_i_glide_erotb>  (57) 
0.101969

>  <r_i_glide_esite>  (57) 
0

>  <r_i_glide_emodel>  (57) 
-18.2679

>  <r_i_glide_energy>  (57) 
-23.5338

>  <r_i_glide_einternal>  (57) 
8.48601

>  <r_i_glide_intrahb_reward>  (57) 
-0

>  <i_i_glide_confnum>  (57) 
2

>  <i_i_glide_posenum>  (57) 
14

>  <r_i_glide_eff_state_penalty>  (57) 
0

>  <ligand_id>  (57) 
18

>  <original_smiles>  (57) 
CC1(C)CCC2(C)CCC3(C)C(=C2C1)CCC1C2(C)CCC(O)C(C)(CO)C2CCC13C

>  <smiles>  (57) 
[H]OC([H])([H])C1(C([H])([H])[H])C([H])(O[H])C([H])([H])C([H])([H])C2(C([H])([H])[H])C1([H])C([H])([H])C([H])([H])C1(C([H])([H])[H])C2([H])C([H])([H])C([H])([H])C2=C3C([H])([H])C(C([H])([H])[H])(C([H])([H])[H])C([H])([H])C([H])([H])C3(C([H])([H])[H])C([H])([H])C([H])([H])C21C([H])([H])[H]

$$$$
18:0:1
     RDKit          3D

 82 86  0  0  1  0  0  0  0  0999 V2000
   -0.4197   -9.3072    2.7644 C   0  0  0  0  0  0  0  0  0  0  0  0
   -0.5109   -8.4549    4.0479 C   0  0  0  0  0  0  0  0  0  0  0  0
   -1.9833   -8.1226    4.2500 C   0  0  0  0  0  0  0  0  0  0  0  0
    0.0586   -9.1771    5.2932 C   0  0  0  0  0  0  0  0  0  0  0  0
    1.5573   -9.4363    5.1734 C   0  0  0  0  0  0  0  0  0  0  0  0
    2.3860   -8.1687    4.8532 C   0  0  1  0  0  0  0  0  0  0  0  0
    2.4768   -7.3079    6.1349 C   0  0  0  0  0  0  0  0  0  0  0  0
    3.7877   -8.6781    4.4661 C   0  0  0  0  0  0  0  0  0  0  0  0
    4.6267   -7.5823    3.8151 C   0  0  0  0  0  0  0  0  0  0  0  0
    3.9866   -7.0035    2.5155 C   0  0  1  0  0  0  0  0  0  0  0  0
    4.2875   -8.0651    1.4131 C   0  0  0  0  0  0  0  0  0  0  0  0
    2.4569   -6.8833    2.6355 C   0  0  0  0  0  0  0  0  0  0  0  0
    1.7512   -7.3471    3.7218 C   0  0  0  0  0  0  0  0  0  0  0  0
    0.2520   -7.1441    3.8981 C   0  0  0  0  0  0  0  0  0  0  0  0
    1.8039   -6.2025    1.4307 C   0  0  0  0  0  0  0  0  0  0  0  0
    2.4326   -4.8550    1.0630 C   0  0  0  0  0  0  0  0  0  0  0  0
    3.9645   -4.9807    0.8692 C   0  0  1  0  0  0  0  0  0  0  0  0
    4.6352   -3.7432    0.1192 C   0  0  1  0  0  0  0  0  0  0  0  0
    4.2041   -3.8813   -1.3702 C   0  0  0  0  0  0  0  0  0  0  0  0
    4.0896   -2.3756    0.6332 C   0  0  0  0  0  0  0  0  0  0  0  0
    4.7954   -1.1489    0.0454 C   0  0  0  0  0  0  0  0  0  0  0  0
    6.3079   -1.2284    0.2764 C   0  0  1  0  0  0  0  0  0  0  0  0
    6.5209   -1.1141    1.6557 O   0  0  0  0  0  0  0  0  0  0  0  0
    6.9673   -2.5124   -0.3427 C   0  0  1  0  0  0  0  0  0  0  0  0
    6.9596   -2.4701   -1.9018 C   0  0  0  0  0  0  0  0  0  0  0  0
    8.4917   -2.5176   -0.0167 C   0  0  0  0  0  0  0  0  0  0  0  0
    9.1461   -3.6042   -0.6313 O   0  0  0  0  0  0  0  0  0  0  0  0
    6.2160   -3.8115    0.1767 C   0  0  1  0  0  0  0  0  0  0  0  0
    6.7167   -4.2849    1.5584 C   0  0  0  0  0  0  0  0  0  0  0  0
    6.1242   -5.6320    1.9667 C   0  0  0  0  0  0  0  0  0  0  0  0
    4.6031   -5.5601    2.1863 C   0  0  2  0  0  0  0  0  0  0  0  0
    4.3421   -4.6249    3.4126 C   0  0  0  0  0  0  0  0  0  0  0  0
   -0.9519  -10.2484    2.9018 H   0  0  0  0  0  0  0  0  0  0  0  0
    0.6148   -9.5386    2.4906 H   0  0  0  0  0  0  0  0  0  0  0  0
   -0.8758   -8.7989    1.9155 H   0  0  0  0  0  0  0  0  0  0  0  0
   -2.0760   -7.4633    5.1086 H   0  0  0  0  0  0  0  0  0  0  0  0
   -2.5550   -9.0282    4.4361 H   0  0  0  0  0  0  0  0  0  0  0  0
   -2.4365   -7.6094    3.4041 H   0  0  0  0  0  0  0  0  0  0  0  0
   -0.1483   -8.5904    6.1941 H   0  0  0  0  0  0  0  0  0  0  0  0
   -0.3838  -10.1417    5.4791 H   0  0  0  0  0  0  0  0  0  0  0  0
    1.9102   -9.9116    6.0898 H   0  0  0  0  0  0  0  0  0  0  0  0
    1.6949  -10.1900    4.3957 H   0  0  0  0  0  0  0  0  0  0  0  0
    3.0093   -7.8326    6.9254 H   0  0  0  0  0  0  0  0  0  0  0  0
    1.4941   -7.0591    6.5295 H   0  0  0  0  0  0  0  0  0  0  0  0
    2.9916   -6.3676    5.9427 H   0  0  0  0  0  0  0  0  0  0  0  0
    4.2971   -9.0650    5.3480 H   0  0  0  0  0  0  0  0  0  0  0  0
    3.7087   -9.5245    3.7831 H   0  0  0  0  0  0  0  0  0  0  0  0
    4.7733   -6.8362    4.5879 H   0  0  0  0  0  0  0  0  0  0  0  0
    5.6184   -7.9795    3.6077 H   0  0  0  0  0  0  0  0  0  0  0  0
    5.3472   -8.2806    1.3200 H   0  0  0  0  0  0  0  0  0  0  0  0
    3.9238   -7.7988    0.4304 H   0  0  0  0  0  0  0  0  0  0  0  0
    3.8033   -9.0138    1.6450 H   0  0  0  0  0  0  0  0  0  0  0  0
   -0.2371   -6.5461    3.1421 H   0  0  0  0  0  0  0  0  0  0  0  0
    0.1179   -6.5578    4.8126 H   0  0  0  0  0  0  0  0  0  0  0  0
    1.9023   -6.8844    0.5844 H   0  0  0  0  0  0  0  0  0  0  0  0
    0.7410   -6.0504    1.5158 H   0  0  0  0  0  0  0  0  0  0  0  0
    1.9451   -4.4774    0.1786 H   0  0  0  0  0  0  0  0  0  0  0  0
    2.2097   -4.1295    1.8503 H   0  0  0  0  0  0  0  0  0  0  0  0
    4.0945   -5.7690    0.1238 H   0  0  0  0  0  0  0  0  0  0  0  0
    4.2686   -2.9605   -1.9371 H   0  0  0  0  0  0  0  0  0  0  0  0
    3.1689   -4.1884   -1.4823 H   0  0  0  0  0  0  0  0  0  0  0  0
    4.7994   -4.6354   -1.8898 H   0  0  0  0  0  0  0  0  0  0  0  0
    3.0212   -2.2860    0.4451 H   0  0  0  0  0  0  0  0  0  0  0  0
    4.2032   -2.2866    1.7046 H   0  0  0  0  0  0  0  0  0  0  0  0
    4.5462   -1.0275   -1.0064 H   0  0  0  0  0  0  0  0  0  0  0  0
    4.4142   -0.2462    0.5135 H   0  0  0  0  0  0  0  0  0  0  0  0
    6.7373   -0.3120   -0.1096 H   0  0  0  0  0  0  0  0  0  0  0  0
    6.1115   -1.8575    2.0746 H   0  0  0  0  0  0  0  0  0  0  0  0
    6.9728   -3.4746   -2.3312 H   0  0  0  0  0  0  0  0  0  0  0  0
    7.8290   -1.9879   -2.3185 H   0  0  0  0  0  0  0  0  0  0  0  0
    6.0933   -1.9593   -2.3120 H   0  0  0  0  0  0  0  0  0  0  0  0
    8.9619   -1.5927   -0.3498 H   0  0  0  0  0  0  0  0  0  0  0  0
    8.6969   -2.5646    1.0438 H   0  0  0  0  0  0  0  0  0  0  0  0
    9.7264   -3.2300   -1.3070 H   0  0  0  0  0  0  0  0  0  0  0  0
    6.5302   -4.6279   -0.4693 H   0  0  0  0  0  0  0  0  0  0  0  0
    7.7909   -4.4384    1.5567 H   0  0  0  0  0  0  0  0  0  0  0  0
    6.5077   -3.5423    2.3207 H   0  0  0  0  0  0  0  0  0  0  0  0
    6.3616   -6.3466    1.1723 H   0  0  0  0  0  0  0  0  0  0  0  0
    6.6296   -5.9858    2.8619 H   0  0  0  0  0  0  0  0  0  0  0  0
    4.4974   -3.5776    3.2027 H   0  0  0  0  0  0  0  0  0  0  0  0
    5.0299   -4.8219    4.2335 H   0  0  0  0  0  0  0  0  0  0  0  0
    3.3320   -4.7096    3.8117 H   0  0  0  0  0  0  0  0  0  0  0  0
  1  2  1  0
  1 33  1  0
  1 34  1  0
  1 35  1  0
  2 14  1  0
  2  3  1  0
  2  4  1  0
  3 36  1  0
  3 37  1  0
  3 38  1  0
  4  5  1  0
  4 39  1  0
  4 40  1  0
  5  6  1  0
  5 41  1  0
  5 42  1  0
  6 13  1  0
  6  7  1  1
  6  8  1  0
  7 43  1  0
  7 44  1  0
  7 45  1  0
  8  9  1  0
  8 46  1  0
  8 47  1  0
  9 10  1  0
  9 48  1  0
  9 49  1  0
 10 31  1  0
 10 11  1  6
 10 12  1  0
 11 50  1  0
 11 51  1  0
 11 52  1  0
 12 13  2  0
 12 15  1  0
 13 14  1  0
 14 53  1  0
 14 54  1  0
 15 16  1  0
 15 55  1  0
 15 56  1  0
 16 17  1  0
 16 57  1  0
 16 58  1  0
 17 31  1  0
 17 18  1  0
 17 59  1  6
 18 28  1  0
 18 19  1  6
 18 20  1  0
 19 60  1  0
 19 61  1  0
 19 62  1  0
 20 21  1  0
 20 63  1  0
 20 64  1  0
 21 22  1  0
 21 65  1  0
 21 66  1  0
 22 23  1  0
 22 24  1  0
 22 67  1  6
 23 68  1  0
 24 25  1  6
 24 26  1  0
 24 28  1  0
 25 69  1  0
 25 70  1  0
 25 71  1  0
 26 27  1  0
 26 72  1  0
 26 73  1  0
 27 74  1  0
 28 29  1  0
 28 75  1  6
 29 30  1  0
 29 76  1  0
 29 77  1  0
 30 31  1  0
 30 78  1  0
 30 79  1  0
 31 32  1  1
 32 80  1  0
 32 81  1  0
 32 82  1  0
M  END
>  <i_m_ct_stereo_status>  (58) 
1

>  <s_m_source_file>  (58) 
/var/tmp/pbs.5076255.sched01/tmp5t01l7na/0y8cq_bsf.sdf

>  <i_m_source_file_index>  (58) 
39

>  <i_lp_mmshare_version>  (58) 
48012

>  <i_f3d_flags>  (58) 
0

>  <s_epik_input>  (58) 
W0NIMl0xW0NIMl1DKFtDSDNdKShbQ0gzXSlbQ0gyXUMoW0NAQF0xMltDSDNdKT1DM1tDQF0oW0NIM10pKFtDSDJdW0NIMl0yKVtDQF00KFtDSDNdKVtDQEBIXShbQ0gyXVtDSDJdMylbQ0BdNShbQ0gzXSlbQ0BIXShbQ0gyXVtDSDJdNClbQ0BdKFtDSDNdKShbQ0gyXVtPSF0pW0NASF0oW09IXSlbQ0gyXVtDSDJdNQ==

>  <s_epik_cmdline>  (58) 
J2VwaWtfcHl0aG9uJywgJy1waHQnLCAnMi4wJywgJy1waCcsICc3LjAnLCAnLXRuJywgJzgnLCAnLW1hJywgJzIwMCcsICctaW1hZScsICc8aW5maWxlLm1hZT4nLCAnLW9tYWUnLCAnPG91dGZpbGUubWFlPic=

>  <r_lp_tautomer_probability>  (58) 
1

>  <r_epik_Ionization_Penalty>  (58) 
1.85211e-06

>  <r_epik_Ionization_Penalty_Charging>  (58) 
0

>  <r_epik_Ionization_Penalty_Neutral>  (58) 
1.85211e-06

>  <r_epik_State_Penalty>  (58) 
-0

>  <r_epik_Charging_Adjusted_Penalty>  (58) 
0

>  <i_epik_Tot_Q>  (58) 
0

>  <i_epik_Tot_abs_Q>  (58) 
0

>  <s_lp_Force_Field>  (58) 
OPLS3e

>  <r_lp_Energy>  (58) 
90.6977

>  <b_lp_Chiralities_Consistent>  (58) 
1

>  <s_lp_Variant>  (58) 
18:0-1

>  <s_i_glide_gridfile>  (58) 
pfpi4k_grid

>  <i_i_glide_lignum>  (58) 
39

>  <i_i_glide_rotatable_bonds>  (58) 
3

>  <r_i_docking_score>  (58) 
-2.38566

>  <r_i_glide_ligand_efficiency>  (58) 
-0.0745519

>  <r_i_glide_ligand_efficiency_sa>  (58) 
-0.236687

>  <r_i_glide_ligand_efficiency_ln>  (58) 
-0.534214

>  <r_i_glide_gscore>  (58) 
-2.38566

>  <r_i_glide_lipo>  (58) 
-0.299805

>  <r_i_glide_hbond>  (58) 
-0.315753

>  <r_i_glide_metal>  (58) 
-0

>  <r_i_glide_rewards>  (58) 
-0.390567

>  <r_i_glide_evdw>  (58) 
-18.7713

>  <r_i_glide_ecoul>  (58) 
-3.41565

>  <r_i_glide_erotb>  (58) 
0.0713781

>  <r_i_glide_esite>  (58) 
0

>  <r_i_glide_emodel>  (58) 
-22.8781

>  <r_i_glide_energy>  (58) 
-22.187

>  <r_i_glide_einternal>  (58) 
1.08809

>  <r_i_glide_intrahb_reward>  (58) 
-0

>  <i_i_glide_confnum>  (58) 
1

>  <i_i_glide_posenum>  (58) 
5

>  <r_i_glide_eff_state_penalty>  (58) 
0

>  <ligand_id>  (58) 
18

>  <original_smiles>  (58) 
CC1(C)CCC2(C)CCC3(C)C(=C2C1)CCC1C2(C)CCC(O)C(C)(CO)C2CCC13C

>  <smiles>  (58) 
[H]OC([H])([H])C1(C([H])([H])[H])C([H])(O[H])C([H])([H])C([H])([H])C2(C([H])([H])[H])C1([H])C([H])([H])C([H])([H])C1(C([H])([H])[H])C2([H])C([H])([H])C([H])([H])C2=C3C([H])([H])C(C([H])([H])[H])(C([H])([H])[H])C([H])([H])C([H])([H])C3(C([H])([H])[H])C([H])([H])C([H])([H])C21C([H])([H])[H]

$$$$
18:0:2
     RDKit          3D

 82 86  0  0  1  0  0  0  0  0999 V2000
   -0.4387   -9.3345    2.8424 C   0  0  0  0  0  0  0  0  0  0  0  0
   -0.5292   -8.4619    4.1086 C   0  0  0  0  0  0  0  0  0  0  0  0
   -1.9694   -8.1048    4.2773 C   0  0  0  0  0  0  0  0  0  0  0  0
    0.0155   -9.1519    5.3803 C   0  0  0  0  0  0  0  0  0  0  0  0
    1.5117   -9.4102    5.2812 C   0  0  0  0  0  0  0  0  0  0  0  0
    2.3330   -8.1390    4.9461 C   0  0  1  0  0  0  0  0  0  0  0  0
    2.4026   -7.2607    6.2119 C   0  0  0  0  0  0  0  0  0  0  0  0
    3.7371   -8.6440    4.5769 C   0  0  0  0  0  0  0  0  0  0  0  0
    4.5663   -7.5490    3.9133 C   0  0  0  0  0  0  0  0  0  0  0  0
    3.9353   -6.9957    2.5958 C   0  0  1  0  0  0  0  0  0  0  0  0
    4.2501   -8.0728    1.5196 C   0  0  0  0  0  0  0  0  0  0  0  0
    2.4066   -6.8918    2.7131 C   0  0  0  0  0  0  0  0  0  0  0  0
    1.7099   -7.3336    3.7892 C   0  0  0  0  0  0  0  0  0  0  0  0
    0.2110   -7.1454    3.9484 C   0  0  0  0  0  0  0  0  0  0  0  0
    1.7597   -6.2358    1.4894 C   0  0  0  0  0  0  0  0  0  0  0  0
    2.3773   -4.8887    1.0969 C   0  0  0  0  0  0  0  0  0  0  0  0
    3.9096   -5.0027    0.9169 C   0  0  1  0  0  0  0  0  0  0  0  0
    4.5901   -3.7718    0.1703 C   0  0  1  0  0  0  0  0  0  0  0  0
    4.1643   -3.9069   -1.3219 C   0  0  0  0  0  0  0  0  0  0  0  0
    4.0133   -2.4044    0.6555 C   0  0  0  0  0  0  0  0  0  0  0  0
    4.7035   -1.1860    0.0403 C   0  0  0  0  0  0  0  0  0  0  0  0
    6.2090   -1.2478    0.2734 C   0  0  1  0  0  0  0  0  0  0  0  0
    6.3910   -1.1269    1.6712 O   0  0  0  0  0  0  0  0  0  0  0  0
    6.9300   -2.5225   -0.2735 C   0  0  1  0  0  0  0  0  0  0  0  0
    6.9298   -2.4843   -1.8396 C   0  0  0  0  0  0  0  0  0  0  0  0
    8.4655   -2.5320    0.0558 C   0  0  0  0  0  0  0  0  0  0  0  0
    9.0170   -1.2353    0.0872 O   0  0  0  0  0  0  0  0  0  0  0  0
    6.1817   -3.8266    0.2266 C   0  0  1  0  0  0  0  0  0  0  0  0
    6.6457   -4.3130    1.6219 C   0  0  0  0  0  0  0  0  0  0  0  0
    6.0365   -5.6379    2.0509 C   0  0  0  0  0  0  0  0  0  0  0  0
    4.5223   -5.5558    2.2555 C   0  0  2  0  0  0  0  0  0  0  0  0
    4.2579   -4.6082    3.4672 C   0  0  0  0  0  0  0  0  0  0  0  0
   -0.9787  -10.2723    3.0108 H   0  0  0  0  0  0  0  0  0  0  0  0
    0.6031   -9.5712    2.5744 H   0  0  0  0  0  0  0  0  0  0  0  0
   -0.9098   -8.8406    1.9791 H   0  0  0  0  0  0  0  0  0  0  0  0
   -2.0166   -7.4566    5.1206 H   0  0  0  0  0  0  0  0  0  0  0  0
   -2.5320   -9.0213    4.4722 H   0  0  0  0  0  0  0  0  0  0  0  0
   -2.4300   -7.5893    3.4499 H   0  0  0  0  0  0  0  0  0  0  0  0
   -0.1962   -8.5523    6.2592 H   0  0  0  0  0  0  0  0  0  0  0  0
   -0.4330  -10.1085    5.5944 H   0  0  0  0  0  0  0  0  0  0  0  0
    1.8604   -9.8658    6.2149 H   0  0  0  0  0  0  0  0  0  0  0  0
    1.6620  -10.1733    4.5159 H   0  0  0  0  0  0  0  0  0  0  0  0
    2.9329   -7.7716    7.0178 H   0  0  0  0  0  0  0  0  0  0  0  0
    1.4114   -7.0123    6.5950 H   0  0  0  0  0  0  0  0  0  0  0  0
    2.9113   -6.3171    6.0101 H   0  0  0  0  0  0  0  0  0  0  0  0
    4.2393   -9.0114    5.4764 H   0  0  0  0  0  0  0  0  0  0  0  0
    3.6646   -9.5031    3.9080 H   0  0  0  0  0  0  0  0  0  0  0  0
    4.7019   -6.7936    4.6769 H   0  0  0  0  0  0  0  0  0  0  0  0
    5.5630   -7.9466    3.7190 H   0  0  0  0  0  0  0  0  0  0  0  0
    5.3168   -8.2825    1.4409 H   0  0  0  0  0  0  0  0  0  0  0  0
    3.8966   -7.8280    0.5214 H   0  0  0  0  0  0  0  0  0  0  0  0
    3.7755   -9.0253    1.7620 H   0  0  0  0  0  0  0  0  0  0  0  0
   -0.2787   -6.5685    3.1798 H   0  0  0  0  0  0  0  0  0  0  0  0
    0.0675   -6.5571    4.8480 H   0  0  0  0  0  0  0  0  0  0  0  0
    1.8755   -6.9330    0.6645 H   0  0  0  0  0  0  0  0  0  0  0  0
    0.6935   -6.0866    1.5660 H   0  0  0  0  0  0  0  0  0  0  0  0
    1.8920   -4.5180    0.1930 H   0  0  0  0  0  0  0  0  0  0  0  0
    2.1485   -4.1590    1.8797 H   0  0  0  0  0  0  0  0  0  0  0  0
    4.0518   -5.7918    0.1850 H   0  0  0  0  0  0  0  0  0  0  0  0
    4.2592   -2.9951   -1.9045 H   0  0  0  0  0  0  0  0  0  0  0  0
    3.1184   -4.1860   -1.4318 H   0  0  0  0  0  0  0  0  0  0  0  0
    4.7476   -4.6799   -1.8272 H   0  0  0  0  0  0  0  0  0  0  0  0
    2.9408   -2.3276    0.4504 H   0  0  0  0  0  0  0  0  0  0  0  0
    4.1266   -2.2934    1.7267 H   0  0  0  0  0  0  0  0  0  0  0  0
    4.4516   -1.0798   -1.0146 H   0  0  0  0  0  0  0  0  0  0  0  0
    4.3129   -0.2722    0.4965 H   0  0  0  0  0  0  0  0  0  0  0  0
    6.5575   -0.3640   -0.2359 H   0  0  0  0  0  0  0  0  0  0  0  0
    6.0546   -1.8927    2.0717 H   0  0  0  0  0  0  0  0  0  0  0  0
    7.0338   -3.4805   -2.2897 H   0  0  0  0  0  0  0  0  0  0  0  0
    7.7601   -1.9088   -2.2513 H   0  0  0  0  0  0  0  0  0  0  0  0
    6.0345   -2.0286   -2.2761 H   0  0  0  0  0  0  0  0  0  0  0  0
    8.7607   -2.7935    1.0515 H   0  0  0  0  0  0  0  0  0  0  0  0
    8.9961   -3.2020   -0.6353 H   0  0  0  0  0  0  0  0  0  0  0  0
    9.8954   -1.1795   -0.3105 H   0  0  0  0  0  0  0  0  0  0  0  0
    6.5039   -4.6507   -0.4183 H   0  0  0  0  0  0  0  0  0  0  0  0
    7.7037   -4.5598    1.6452 H   0  0  0  0  0  0  0  0  0  0  0  0
    6.4373   -3.5608    2.3764 H   0  0  0  0  0  0  0  0  0  0  0  0
    6.2783   -6.3601    1.2740 H   0  0  0  0  0  0  0  0  0  0  0  0
    6.5309   -5.9694    2.9696 H   0  0  0  0  0  0  0  0  0  0  0  0
    4.4150   -3.5667    3.2366 H   0  0  0  0  0  0  0  0  0  0  0  0
    4.9487   -4.7897    4.2936 H   0  0  0  0  0  0  0  0  0  0  0  0
    3.2439   -4.6899    3.8651 H   0  0  0  0  0  0  0  0  0  0  0  0
  1  2  1  0
  1 33  1  0
  1 34  1  0
  1 35  1  0
  2 14  1  0
  2  3  1  0
  2  4  1  0
  3 36  1  0
  3 37  1  0
  3 38  1  0
  4  5  1  0
  4 39  1  0
  4 40  1  0
  5  6  1  0
  5 41  1  0
  5 42  1  0
  6 13  1  0
  6  7  1  1
  6  8  1  0
  7 43  1  0
  7 44  1  0
  7 45  1  0
  8  9  1  0
  8 46  1  0
  8 47  1  0
  9 10  1  0
  9 48  1  0
  9 49  1  0
 10 31  1  0
 10 11  1  6
 10 12  1  0
 11 50  1  0
 11 51  1  0
 11 52  1  0
 12 13  2  0
 12 15  1  0
 13 14  1  0
 14 53  1  0
 14 54  1  0
 15 16  1  0
 15 55  1  0
 15 56  1  0
 16 17  1  0
 16 57  1  0
 16 58  1  0
 17 31  1  0
 17 18  1  0
 17 59  1  6
 18 28  1  0
 18 19  1  6
 18 20  1  0
 19 60  1  0
 19 61  1  0
 19 62  1  0
 20 21  1  0
 20 63  1  0
 20 64  1  0
 21 22  1  0
 21 65  1  0
 21 66  1  0
 22 23  1  0
 22 24  1  0
 22 67  1  6
 23 68  1  0
 24 25  1  6
 24 26  1  0
 24 28  1  0
 25 69  1  0
 25 70  1  0
 25 71  1  0
 26 27  1  0
 26 72  1  0
 26 73  1  0
 27 74  1  0
 28 29  1  0
 28 75  1  6
 29 30  1  0
 29 76  1  0
 29 77  1  0
 30 31  1  0
 30 78  1  0
 30 79  1  0
 31 32  1  1
 32 80  1  0
 32 81  1  0
 32 82  1  0
M  END
>  <i_m_ct_stereo_status>  (59) 
1

>  <s_m_source_file>  (59) 
/var/tmp/pbs.5076255.sched01/tmp5t01l7na/0y8cq_bsf.sdf

>  <i_m_source_file_index>  (59) 
39

>  <i_lp_mmshare_version>  (59) 
48012

>  <i_f3d_flags>  (59) 
0

>  <s_epik_input>  (59) 
W0NIMl0xW0NIMl1DKFtDSDNdKShbQ0gzXSlbQ0gyXUMoW0NAQF0xMltDSDNdKT1DM1tDQF0oW0NIM10pKFtDSDJdW0NIMl0yKVtDQF00KFtDSDNdKVtDQEBIXShbQ0gyXVtDSDJdMylbQ0BdNShbQ0gzXSlbQ0BIXShbQ0gyXVtDSDJdNClbQ0BdKFtDSDNdKShbQ0gyXVtPSF0pW0NASF0oW09IXSlbQ0gyXVtDSDJdNQ==

>  <s_epik_cmdline>  (59) 
J2VwaWtfcHl0aG9uJywgJy1waHQnLCAnMi4wJywgJy1waCcsICc3LjAnLCAnLXRuJywgJzgnLCAnLW1hJywgJzIwMCcsICctaW1hZScsICc8aW5maWxlLm1hZT4nLCAnLW9tYWUnLCAnPG91dGZpbGUubWFlPic=

>  <r_lp_tautomer_probability>  (59) 
1

>  <r_epik_Ionization_Penalty>  (59) 
1.85211e-06

>  <r_epik_Ionization_Penalty_Charging>  (59) 
0

>  <r_epik_Ionization_Penalty_Neutral>  (59) 
1.85211e-06

>  <r_epik_State_Penalty>  (59) 
-0

>  <r_epik_Charging_Adjusted_Penalty>  (59) 
0

>  <i_epik_Tot_Q>  (59) 
0

>  <i_epik_Tot_abs_Q>  (59) 
0

>  <s_lp_Force_Field>  (59) 
OPLS3e

>  <r_lp_Energy>  (59) 
90.6977

>  <b_lp_Chiralities_Consistent>  (59) 
1

>  <s_lp_Variant>  (59) 
18:0-1

>  <s_i_glide_gridfile>  (59) 
pfpi4k_grid

>  <i_i_glide_lignum>  (59) 
39

>  <i_i_glide_rotatable_bonds>  (59) 
3

>  <r_i_docking_score>  (59) 
-2.12175

>  <r_i_glide_ligand_efficiency>  (59) 
-0.0663048

>  <r_i_glide_ligand_efficiency_sa>  (59) 
-0.210505

>  <r_i_glide_ligand_efficiency_ln>  (59) 
-0.475118

>  <r_i_glide_gscore>  (59) 
-2.12175

>  <r_i_glide_lipo>  (59) 
-0.303758

>  <r_i_glide_hbond>  (59) 
0

>  <r_i_glide_metal>  (59) 
-0

>  <r_i_glide_rewards>  (59) 
-0.390567

>  <r_i_glide_evdw>  (59) 
-14.6704

>  <r_i_glide_ecoul>  (59) 
-5.30586

>  <r_i_glide_erotb>  (59) 
0.101969

>  <r_i_glide_esite>  (59) 
0

>  <r_i_glide_emodel>  (59) 
-15.8167

>  <r_i_glide_energy>  (59) 
-19.9762

>  <r_i_glide_einternal>  (59) 
6.59839

>  <r_i_glide_intrahb_reward>  (59) 
-0

>  <i_i_glide_confnum>  (59) 
2

>  <i_i_glide_posenum>  (59) 
3

>  <r_i_glide_eff_state_penalty>  (59) 
0

>  <ligand_id>  (59) 
18

>  <original_smiles>  (59) 
CC1(C)CCC2(C)CCC3(C)C(=C2C1)CCC1C2(C)CCC(O)C(C)(CO)C2CCC13C

>  <smiles>  (59) 
[H]OC([H])([H])C1(C([H])([H])[H])C([H])(O[H])C([H])([H])C([H])([H])C2(C([H])([H])[H])C1([H])C([H])([H])C([H])([H])C1(C([H])([H])[H])C2([H])C([H])([H])C([H])([H])C2=C3C([H])([H])C(C([H])([H])[H])(C([H])([H])[H])C([H])([H])C([H])([H])C3(C([H])([H])[H])C([H])([H])C([H])([H])C21C([H])([H])[H]

$$$$
19:0:0
     RDKit          3D

 70 77  0  0  1  0  0  0  0  0999 V2000
    7.0854   -5.0951    5.8186 C   0  0  0  0  0  0  0  0  0  0  0  0
    5.6829   -4.6508    5.3890 C   0  0  2  0  0  0  0  0  0  0  0  0
    4.5408   -4.8976    6.3706 C   0  0  1  0  0  0  0  0  0  0  0  0
    3.5811   -3.7906    6.8072 C   0  0  0  0  0  0  0  0  0  0  0  0
    3.0734   -2.8202    5.7114 C   0  0  1  0  0  0  0  0  0  0  0  0
    2.3446   -3.5796    4.5875 C   0  0  0  0  0  0  0  0  0  0  0  0
    1.0061   -3.5672    4.5419 C   0  0  0  0  0  0  0  0  0  0  0  0
    0.1686   -2.8466    5.5697 C   0  0  0  0  0  0  0  0  0  0  0  0
    0.8005   -1.4806    5.8758 C   0  0  1  0  0  0  0  0  0  0  0  0
    2.2557   -1.6511    6.3799 C   0  0  2  0  0  0  0  0  0  0  0  0
    3.1057   -0.3536    6.5088 C   0  0  0  0  0  0  0  0  0  0  0  0
    2.3676    0.9903    6.6980 C   0  0  0  0  0  0  0  0  0  0  0  0
    1.5708    1.6139    5.5139 C   0  0  1  0  0  0  0  0  0  0  0  0
    1.6011    2.9685    5.9132 O   0  0  0  0  0  0  0  0  0  0  0  0
    1.7632    1.2990    3.9901 C   0  0  1  0  0  0  0  0  0  0  0  0
    1.7433   -0.1938    3.7502 C   0  0  0  0  0  0  0  0  0  0  0  0
    0.5587   -0.4986    4.6961 C   0  0  2  0  0  0  0  0  0  0  0  0
    0.2256    0.9621    5.1081 C   0  0  1  0  0  0  0  0  0  0  0  0
   -1.0303    1.1264    5.9699 C   0  0  0  0  0  0  0  0  0  0  0  0
    0.2988    1.7948    3.7995 C   0  0  2  0  0  0  0  0  0  0  0  0
   -0.6662    1.4111    2.6520 C   0  0  0  0  0  0  0  0  0  0  0  0
   -1.8859    2.2824    2.8901 C   0  0  0  0  0  0  0  0  0  0  0  0
   -1.2449    3.4997    3.5238 C   0  0  0  0  0  0  0  0  0  0  0  0
   -1.8411    4.5468    3.7242 O   0  0  0  0  0  0  0  0  0  0  0  0
    0.0227    3.1882    3.8843 O   0  0  0  0  0  0  0  0  0  0  0  0
    3.0431   -4.0598    3.4010 C   0  0  0  0  0  0  0  0  0  0  0  0
    4.1760   -4.7984    3.2972 C   0  0  0  0  0  0  0  0  0  0  0  0
    4.7066   -5.1368    1.9129 C   0  0  0  0  0  0  0  0  0  0  0  0
    4.5561   -6.6445    1.6554 C   0  0  0  0  0  0  0  0  0  0  0  0
    4.3407   -7.0797    0.5334 O   0  0  0  0  0  0  0  0  0  0  0  0
    4.7366   -7.5785    2.8582 C   0  0  0  0  0  0  0  0  0  0  0  0
    5.5047   -6.8709    3.9777 C   0  0  0  0  0  0  0  0  0  0  0  0
    4.8635   -5.5498    4.4491 C   0  0  1  0  0  0  0  0  0  0  0  0
    3.9083   -5.8462    5.4863 O   0  0  0  0  0  0  0  0  0  0  0  0
    7.0944   -6.1249    6.1896 H   0  0  0  0  0  0  0  0  0  0  0  0
    7.4838   -4.4751    6.6190 H   0  0  0  0  0  0  0  0  0  0  0  0
    7.7939   -5.0574    4.9931 H   0  0  0  0  0  0  0  0  0  0  0  0
    5.6853   -3.6177    5.0392 H   0  0  0  0  0  0  0  0  0  0  0  0
    4.9397   -5.4201    7.2438 H   0  0  0  0  0  0  0  0  0  0  0  0
    2.7251   -4.2319    7.3176 H   0  0  0  0  0  0  0  0  0  0  0  0
    4.0816   -3.1842    7.5626 H   0  0  0  0  0  0  0  0  0  0  0  0
    3.9383   -2.3767    5.2213 H   0  0  0  0  0  0  0  0  0  0  0  0
    0.4696   -4.0232    3.7188 H   0  0  0  0  0  0  0  0  0  0  0  0
   -0.8439   -2.7317    5.1829 H   0  0  0  0  0  0  0  0  0  0  0  0
    0.1041   -3.4622    6.4648 H   0  0  0  0  0  0  0  0  0  0  0  0
    0.2362   -1.0946    6.7206 H   0  0  0  0  0  0  0  0  0  0  0  0
    2.0884   -1.9609    7.4137 H   0  0  0  0  0  0  0  0  0  0  0  0
    3.7429   -0.4894    7.3844 H   0  0  0  0  0  0  0  0  0  0  0  0
    3.8117   -0.2272    5.6893 H   0  0  0  0  0  0  0  0  0  0  0  0
    1.6986    0.9034    7.5571 H   0  0  0  0  0  0  0  0  0  0  0  0
    3.1374    1.6893    7.0432 H   0  0  0  0  0  0  0  0  0  0  0  0
    1.1732    3.4557    5.2155 H   0  0  0  0  0  0  0  0  0  0  0  0
    2.5172    1.8905    3.4726 H   0  0  0  0  0  0  0  0  0  0  0  0
    1.5043   -0.4261    2.7098 H   0  0  0  0  0  0  0  0  0  0  0  0
    2.6927   -0.6851    3.9561 H   0  0  0  0  0  0  0  0  0  0  0  0
   -0.2469   -0.9163    4.0981 H   0  0  0  0  0  0  0  0  0  0  0  0
   -1.8799    0.6498    5.4812 H   0  0  0  0  0  0  0  0  0  0  0  0
   -1.2738    2.1830    6.0660 H   0  0  0  0  0  0  0  0  0  0  0  0
   -0.9408    0.7381    6.9839 H   0  0  0  0  0  0  0  0  0  0  0  0
   -0.2312    1.6054    1.6706 H   0  0  0  0  0  0  0  0  0  0  0  0
   -1.0137    0.3775    2.6642 H   0  0  0  0  0  0  0  0  0  0  0  0
   -2.4728    2.5184    2.0108 H   0  0  0  0  0  0  0  0  0  0  0  0
   -2.5476    1.8356    3.6258 H   0  0  0  0  0  0  0  0  0  0  0  0
    2.6351   -3.7112    2.4740 H   0  0  0  0  0  0  0  0  0  0  0  0
    4.1659   -4.5951    1.1406 H   0  0  0  0  0  0  0  0  0  0  0  0
    5.7588   -4.8655    1.8331 H   0  0  0  0  0  0  0  0  0  0  0  0
    3.7568   -7.9117    3.2042 H   0  0  0  0  0  0  0  0  0  0  0  0
    5.2840   -8.4578    2.5315 H   0  0  0  0  0  0  0  0  0  0  0  0
    5.6466   -7.5572    4.8181 H   0  0  0  0  0  0  0  0  0  0  0  0
    6.5088   -6.6639    3.5990 H   0  0  0  0  0  0  0  0  0  0  0  0
  1  2  1  0
  1 35  1  0
  1 36  1  0
  1 37  1  0
  2 33  1  0
  2  3  1  0
  2 38  1  6
  3 34  1  0
  3  4  1  0
  3 39  1  1
  4  5  1  0
  4 40  1  0
  4 41  1  0
  5 10  1  0
  5  6  1  0
  5 42  1  6
  6  7  2  0
  6 26  1  0
  7  8  1  0
  7 43  1  0
  8  9  1  0
  8 44  1  0
  8 45  1  0
  9 17  1  0
  9 10  1  0
  9 46  1  1
 10 11  1  0
 10 47  1  1
 11 12  1  0
 11 48  1  0
 11 49  1  0
 12 13  1  0
 12 50  1  0
 12 51  1  0
 13 18  1  0
 13 14  1  6
 13 15  1  0
 14 52  1  0
 15 20  1  0
 15 16  1  0
 15 53  1  6
 16 17  1  0
 16 54  1  0
 16 55  1  0
 17 18  1  0
 17 56  1  6
 18 19  1  1
 18 20  1  0
 19 57  1  0
 19 58  1  0
 19 59  1  0
 20 25  1  1
 20 21  1  0
 21 22  1  0
 21 60  1  0
 21 61  1  0
 22 23  1  0
 22 62  1  0
 22 63  1  0
 23 24  2  0
 23 25  1  0
 26 27  2  3
 26 64  1  0
 27 33  1  0
 27 28  1  0
 28 29  1  0
 28 65  1  0
 28 66  1  0
 29 30  2  0
 29 31  1  0
 31 32  1  0
 31 67  1  0
 31 68  1  0
 33 32  1  6
 32 69  1  0
 32 70  1  0
 33 34  1  0
M  END
>  <i_m_ct_stereo_status>  (60) 
1

>  <s_m_source_file>  (60) 
/var/tmp/pbs.5076255.sched01/tmp5t01l7na/0y8cq_bsf.sdf

>  <i_m_source_file_index>  (60) 
40

>  <i_lp_mmshare_version>  (60) 
48012

>  <i_f3d_flags>  (60) 
0

>  <s_epik_input>  (60) 
W0NIMl0xQyg9TylbQ0gyXVtDSDJdW0NAQF0yKFtDQEhdKFtDSDNdKVtDQEhdKE8yKVtDSDJdMylDLzE9W0NIXVxDKD1bQ0hdW0NIMl00KVtDQEhdM1tDQEBIXShbQ0gyXVtDSDJdNSlbQ0BIXTRbQ0BIXShbQ0gyXTYpW0NAQF03KFtDSDNdKVtDQF01KFtPSF0pW0NAQEhdNltDQEBdNzhbQ0gyXVtDSDJdQyg9TylPOA==

>  <s_epik_cmdline>  (60) 
J2VwaWtfcHl0aG9uJywgJy1waHQnLCAnMi4wJywgJy1waCcsICc3LjAnLCAnLXRuJywgJzgnLCAnLW1hJywgJzIwMCcsICctaW1hZScsICc8aW5maWxlLm1hZT4nLCAnLW9tYWUnLCAnPG91dGZpbGUubWFlPic=

>  <r_lp_tautomer_probability>  (60) 
1

>  <r_epik_Ionization_Penalty>  (60) 
2.06753e-07

>  <r_epik_Ionization_Penalty_Charging>  (60) 
0

>  <r_epik_Ionization_Penalty_Neutral>  (60) 
2.06753e-07

>  <r_epik_State_Penalty>  (60) 
-0

>  <r_epik_Charging_Adjusted_Penalty>  (60) 
0

>  <i_epik_Tot_Q>  (60) 
0

>  <i_epik_Tot_abs_Q>  (60) 
0

>  <s_epik_Chemistry_Notes>  (60) 
This compound has an ester and may undergo hydrolysis at high or low pH.

>  <s_lp_Force_Field>  (60) 
OPLS3e

>  <r_lp_Energy>  (60) 
109.998

>  <b_lp_Chiralities_Consistent>  (60) 
1

>  <s_lp_Variant>  (60) 
19:0-1

>  <s_i_glide_gridfile>  (60) 
pfpi4k_grid

>  <i_i_glide_lignum>  (60) 
40

>  <i_i_glide_rotatable_bonds>  (60) 
1

>  <r_i_docking_score>  (60) 
-2.67435

>  <r_i_glide_ligand_efficiency>  (60) 
-0.0786573

>  <r_i_glide_ligand_efficiency_sa>  (60) 
-0.254819

>  <r_i_glide_ligand_efficiency_ln>  (60) 
-0.590838

>  <r_i_glide_gscore>  (60) 
-2.67435

>  <r_i_glide_lipo>  (60) 
-0.0548214

>  <r_i_glide_hbond>  (60) 
-0.16

>  <r_i_glide_metal>  (60) 
-0

>  <r_i_glide_rewards>  (60) 
-0.818398

>  <r_i_glide_evdw>  (60) 
-18.9484

>  <r_i_glide_ecoul>  (60) 
-4.09125

>  <r_i_glide_erotb>  (60) 
0

>  <r_i_glide_esite>  (60) 
-0.0800199

>  <r_i_glide_emodel>  (60) 
-30.7141

>  <r_i_glide_energy>  (60) 
-23.0397

>  <r_i_glide_einternal>  (60) 
0.0777937

>  <r_i_glide_intrahb_reward>  (60) 
-0.5

>  <i_i_glide_confnum>  (60) 
1

>  <i_i_glide_posenum>  (60) 
34

>  <r_i_glide_eff_state_penalty>  (60) 
0

>  <ligand_id>  (60) 
19

>  <original_smiles>  (60) 
CC1C2CC3C(=CCC4C3CCC3(O)C5CC4C3(C)C53CCC(=O)O3)C=C3CC(=O)CCC31O2

>  <smiles>  (60) 
[H]OC12C([H])([H])C([H])([H])C3([H])C4([H])C(=C([H])C([H])([H])C3([H])C3([H])C([H])([H])C1([H])C1(OC(=O)C([H])([H])C1([H])[H])C32C([H])([H])[H])C([H])=C1C([H])([H])C(=O)C([H])([H])C([H])([H])C12OC([H])(C4([H])[H])C2([H])C([H])([H])[H]

$$$$
19:0:1
     RDKit          3D

 70 77  0  0  1  0  0  0  0  0999 V2000
    7.9443   -1.2628    7.7814 C   0  0  0  0  0  0  0  0  0  0  0  0
    6.4239   -1.2178    7.5979 C   0  0  2  0  0  0  0  0  0  0  0  0
    5.5821   -0.9834    8.8493 C   0  0  1  0  0  0  0  0  0  0  0  0
    4.5106    0.1080    8.9113 C   0  0  0  0  0  0  0  0  0  0  0  0
    3.6035    0.2898    7.6683 C   0  0  1  0  0  0  0  0  0  0  0  0
    2.8463   -1.0016    7.3285 C   0  0  0  0  0  0  0  0  0  0  0  0
    1.5446   -1.1204    7.6586 C   0  0  0  0  0  0  0  0  0  0  0  0
    0.7898   -0.0249    8.3626 C   0  0  0  0  0  0  0  0  0  0  0  0
    1.1646    1.3310    7.7470 C   0  0  1  0  0  0  0  0  0  0  0  0
    2.6986    1.5689    7.8525 C   0  0  2  0  0  0  0  0  0  0  0  0
    3.2736    2.7933    7.0800 C   0  0  0  0  0  0  0  0  0  0  0  0
    2.3283    3.9739    6.7785 C   0  0  0  0  0  0  0  0  0  0  0  0
    1.1967    3.8239    5.7247 C   0  0  1  0  0  0  0  0  0  0  0  0
    0.9832    5.1931    5.4056 O   0  0  0  0  0  0  0  0  0  0  0  0
    1.1528    2.7569    4.5648 C   0  0  1  0  0  0  0  0  0  0  0  0
    1.3966    1.3568    5.1148 C   0  0  0  0  0  0  0  0  0  0  0  0
    0.4990    1.5104    6.3576 C   0  0  2  0  0  0  0  0  0  0  0  0
   -0.0297    2.9429    6.0741 C   0  0  1  0  0  0  0  0  0  0  0  0
   -1.1222    3.4488    7.0159 C   0  0  0  0  0  0  0  0  0  0  0  0
   -0.3915    2.9523    4.5732 C   0  0  2  0  0  0  0  0  0  0  0  0
   -1.4375    1.9113    4.1241 C   0  0  0  0  0  0  0  0  0  0  0  0
   -2.2693    2.5520    3.0431 C   0  0  0  0  0  0  0  0  0  0  0  0
   -1.9683    4.0196    3.2312 C   0  0  0  0  0  0  0  0  0  0  0  0
   -2.6351    4.9297    2.7497 O   0  0  0  0  0  0  0  0  0  0  0  0
   -0.9185    4.1625    4.0248 O   0  0  0  0  0  0  0  0  0  0  0  0
    3.3803   -1.9908    6.4024 C   0  0  0  0  0  0  0  0  0  0  0  0
    4.6019   -2.5825    6.3761 C   0  0  0  0  0  0  0  0  0  0  0  0
    4.9104   -3.5749    5.2620 C   0  0  0  0  0  0  0  0  0  0  0  0
    5.0348   -4.9854    5.8465 C   0  0  0  0  0  0  0  0  0  0  0  0
    4.6923   -5.9775    5.2036 O   0  0  0  0  0  0  0  0  0  0  0  0
    5.6402   -5.1118    7.2447 C   0  0  0  0  0  0  0  0  0  0  0  0
    6.4491   -3.8565    7.5958 C   0  0  0  0  0  0  0  0  0  0  0  0
    5.6463   -2.5405    7.4995 C   0  0  1  0  0  0  0  0  0  0  0  0
    4.9991   -2.3092    8.7750 O   0  0  0  0  0  0  0  0  0  0  0  0
    8.2442   -1.9274    8.5951 H   0  0  0  0  0  0  0  0  0  0  0  0
    8.3556   -0.2835    8.0138 H   0  0  0  0  0  0  0  0  0  0  0  0
    8.4383   -1.6218    6.8832 H   0  0  0  0  0  0  0  0  0  0  0  0
    6.1480   -0.5369    6.7916 H   0  0  0  0  0  0  0  0  0  0  0  0
    6.2383   -0.9239    9.7178 H   0  0  0  0  0  0  0  0  0  0  0  0
    3.8837   -0.0524    9.7893 H   0  0  0  0  0  0  0  0  0  0  0  0
    5.0101    1.0605    9.0884 H   0  0  0  0  0  0  0  0  0  0  0  0
    4.2420    0.4677    6.8052 H   0  0  0  0  0  0  0  0  0  0  0  0
    0.9771   -1.9903    7.3618 H   0  0  0  0  0  0  0  0  0  0  0  0
   -0.2803   -0.2073    8.2730 H   0  0  0  0  0  0  0  0  0  0  0  0
    1.0363   -0.0518    9.4242 H   0  0  0  0  0  0  0  0  0  0  0  0
    0.7033    2.0665    8.4049 H   0  0  0  0  0  0  0  0  0  0  0  0
    2.7970    1.8530    8.9035 H   0  0  0  0  0  0  0  0  0  0  0  0
    4.0861    3.1892    7.6945 H   0  0  0  0  0  0  0  0  0  0  0  0
    3.7663    2.5112    6.1503 H   0  0  0  0  0  0  0  0  0  0  0  0
    1.8793    4.3037    7.7156 H   0  0  0  0  0  0  0  0  0  0  0  0
    2.9948    4.7938    6.4996 H   0  0  0  0  0  0  0  0  0  0  0  0
    1.4466    5.3527    4.5972 H   0  0  0  0  0  0  0  0  0  0  0  0
    1.6422    3.0210    3.6266 H   0  0  0  0  0  0  0  0  0  0  0  0
    1.0465    0.5798    4.4363 H   0  0  0  0  0  0  0  0  0  0  0  0
    2.4432    1.1320    5.2814 H   0  0  0  0  0  0  0  0  0  0  0  0
   -0.3224    0.8004    6.2737 H   0  0  0  0  0  0  0  0  0  0  0  0
   -1.9330    2.7253    7.0894 H   0  0  0  0  0  0  0  0  0  0  0  0
   -1.5555    4.3607    6.6066 H   0  0  0  0  0  0  0  0  0  0  0  0
   -0.7650    3.6864    8.0173 H   0  0  0  0  0  0  0  0  0  0  0  0
   -1.0175    0.9575    3.8019 H   0  0  0  0  0  0  0  0  0  0  0  0
   -2.1190    1.6820    4.9487 H   0  0  0  0  0  0  0  0  0  0  0  0
   -1.9447    2.2270    2.0626 H   0  0  0  0  0  0  0  0  0  0  0  0
   -3.3286    2.3403    3.1534 H   0  0  0  0  0  0  0  0  0  0  0  0
    2.7329   -2.2293    5.5782 H   0  0  0  0  0  0  0  0  0  0  0  0
    4.1259   -3.5749    4.5052 H   0  0  0  0  0  0  0  0  0  0  0  0
    5.8431   -3.3073    4.7646 H   0  0  0  0  0  0  0  0  0  0  0  0
    4.8402   -5.2760    7.9680 H   0  0  0  0  0  0  0  0  0  0  0  0
    6.2869   -5.9849    7.2666 H   0  0  0  0  0  0  0  0  0  0  0  0
    6.8915   -3.9700    8.5876 H   0  0  0  0  0  0  0  0  0  0  0  0
    7.2911   -3.8111    6.9029 H   0  0  0  0  0  0  0  0  0  0  0  0
  1  2  1  0
  1 35  1  0
  1 36  1  0
  1 37  1  0
  2 33  1  0
  2  3  1  0
  2 38  1  6
  3 34  1  0
  3  4  1  0
  3 39  1  1
  4  5  1  0
  4 40  1  0
  4 41  1  0
  5 10  1  0
  5  6  1  0
  5 42  1  6
  6  7  2  0
  6 26  1  0
  7  8  1  0
  7 43  1  0
  8  9  1  0
  8 44  1  0
  8 45  1  0
  9 17  1  0
  9 10  1  0
  9 46  1  1
 10 11  1  0
 10 47  1  1
 11 12  1  0
 11 48  1  0
 11 49  1  0
 12 13  1  0
 12 50  1  0
 12 51  1  0
 13 18  1  0
 13 14  1  6
 13 15  1  0
 14 52  1  0
 15 20  1  0
 15 16  1  0
 15 53  1  6
 16 17  1  0
 16 54  1  0
 16 55  1  0
 17 18  1  0
 17 56  1  6
 18 19  1  1
 18 20  1  0
 19 57  1  0
 19 58  1  0
 19 59  1  0
 20 25  1  6
 20 21  1  0
 21 22  1  0
 21 60  1  0
 21 61  1  0
 22 23  1  0
 22 62  1  0
 22 63  1  0
 23 24  2  0
 23 25  1  0
 26 27  2  3
 26 64  1  0
 27 33  1  0
 27 28  1  0
 28 29  1  0
 28 65  1  0
 28 66  1  0
 29 30  2  0
 29 31  1  0
 31 32  1  0
 31 67  1  0
 31 68  1  0
 33 32  1  1
 32 69  1  0
 32 70  1  0
 33 34  1  0
M  END
>  <i_m_ct_stereo_status>  (61) 
1

>  <s_m_source_file>  (61) 
/var/tmp/pbs.5076255.sched01/tmp5t01l7na/0y8cq_bsf.sdf

>  <i_m_source_file_index>  (61) 
40

>  <i_lp_mmshare_version>  (61) 
48012

>  <i_f3d_flags>  (61) 
0

>  <s_epik_input>  (61) 
W0NIMl0xQyg9TylbQ0gyXVtDSDJdW0NAQF0yKFtDQEhdKFtDSDNdKVtDQEhdKE8yKVtDSDJdMylDLzE9W0NIXVxDKD1bQ0hdW0NIMl00KVtDQEhdM1tDQEBIXShbQ0gyXVtDSDJdNSlbQ0BIXTRbQ0BIXShbQ0gyXTYpW0NAQF03KFtDSDNdKVtDQF01KFtPSF0pW0NAQEhdNltDQEBdNzhbQ0gyXVtDSDJdQyg9TylPOA==

>  <s_epik_cmdline>  (61) 
J2VwaWtfcHl0aG9uJywgJy1waHQnLCAnMi4wJywgJy1waCcsICc3LjAnLCAnLXRuJywgJzgnLCAnLW1hJywgJzIwMCcsICctaW1hZScsICc8aW5maWxlLm1hZT4nLCAnLW9tYWUnLCAnPG91dGZpbGUubWFlPic=

>  <r_lp_tautomer_probability>  (61) 
1

>  <r_epik_Ionization_Penalty>  (61) 
2.06753e-07

>  <r_epik_Ionization_Penalty_Charging>  (61) 
0

>  <r_epik_Ionization_Penalty_Neutral>  (61) 
2.06753e-07

>  <r_epik_State_Penalty>  (61) 
-0

>  <r_epik_Charging_Adjusted_Penalty>  (61) 
0

>  <i_epik_Tot_Q>  (61) 
0

>  <i_epik_Tot_abs_Q>  (61) 
0

>  <s_epik_Chemistry_Notes>  (61) 
This compound has an ester and may undergo hydrolysis at high or low pH.

>  <s_lp_Force_Field>  (61) 
OPLS3e

>  <r_lp_Energy>  (61) 
109.998

>  <b_lp_Chiralities_Consistent>  (61) 
1

>  <s_lp_Variant>  (61) 
19:0-1

>  <s_i_glide_gridfile>  (61) 
pfpi4k_grid

>  <i_i_glide_lignum>  (61) 
40

>  <i_i_glide_rotatable_bonds>  (61) 
1

>  <r_i_docking_score>  (61) 
-1.83804

>  <r_i_glide_ligand_efficiency>  (61) 
-0.05406

>  <r_i_glide_ligand_efficiency_sa>  (61) 
-0.175133

>  <r_i_glide_ligand_efficiency_ln>  (61) 
-0.406075

>  <r_i_glide_gscore>  (61) 
-1.83804

>  <r_i_glide_lipo>  (61) 
-0.147626

>  <r_i_glide_hbond>  (61) 
-0.16

>  <r_i_glide_metal>  (61) 
-0

>  <r_i_glide_rewards>  (61) 
-0.24141

>  <r_i_glide_evdw>  (61) 
-13.9707

>  <r_i_glide_ecoul>  (61) 
-3.26978

>  <r_i_glide_erotb>  (61) 
0

>  <r_i_glide_esite>  (61) 
-0.1

>  <r_i_glide_emodel>  (61) 
-19.0163

>  <r_i_glide_energy>  (61) 
-17.2405

>  <r_i_glide_einternal>  (61) 
0.490381

>  <r_i_glide_intrahb_reward>  (61) 
-0

>  <i_i_glide_confnum>  (61) 
2

>  <i_i_glide_posenum>  (61) 
5

>  <r_i_glide_eff_state_penalty>  (61) 
0

>  <ligand_id>  (61) 
19

>  <original_smiles>  (61) 
CC1C2CC3C(=CCC4C3CCC3(O)C5CC4C3(C)C53CCC(=O)O3)C=C3CC(=O)CCC31O2

>  <smiles>  (61) 
[H]OC12C([H])([H])C([H])([H])C3([H])C4([H])C(=C([H])C([H])([H])C3([H])C3([H])C([H])([H])C1([H])C1(OC(=O)C([H])([H])C1([H])[H])C32C([H])([H])[H])C([H])=C1C([H])([H])C(=O)C([H])([H])C([H])([H])C12OC([H])(C4([H])[H])C2([H])C([H])([H])[H]

$$$$
19:0:2
     RDKit          3D

 70 77  0  0  1  0  0  0  0  0999 V2000
    7.1945   -1.1397    8.5137 C   0  0  0  0  0  0  0  0  0  0  0  0
    5.7777   -1.1896    7.9218 C   0  0  2  0  0  0  0  0  0  0  0  0
    4.6119   -1.2333    8.9004 C   0  0  1  0  0  0  0  0  0  0  0  0
    3.4407   -0.2510    8.8300 C   0  0  0  0  0  0  0  0  0  0  0  0
    2.8807    0.0814    7.4299 C   0  0  1  0  0  0  0  0  0  0  0  0
    2.3921   -1.1909    6.7148 C   0  0  0  0  0  0  0  0  0  0  0  0
    1.0887   -1.4550    6.6468 C   0  0  0  0  0  0  0  0  0  0  0  0
    0.0551   -0.5544    7.2799 C   0  0  0  0  0  0  0  0  0  0  0  0
    0.4166    0.9088    7.0032 C   0  0  1  0  0  0  0  0  0  0  0  0
    1.8246    1.2452    7.5474 C   0  0  2  0  0  0  0  0  0  0  0  0
    2.4310    2.6192    7.1379 C   0  0  0  0  0  0  0  0  0  0  0  0
    1.4684    3.7590    6.7610 C   0  0  0  0  0  0  0  0  0  0  0  0
    0.6834    3.6771    5.4208 C   0  0  1  0  0  0  0  0  0  0  0  0
    0.4546    5.0732    5.2341 O   0  0  0  0  0  0  0  0  0  0  0  0
    1.0409    2.8323    4.1603 C   0  0  1  0  0  0  0  0  0  0  0  0
    1.3026    1.3811    4.5390 C   0  0  0  0  0  0  0  0  0  0  0  0
    0.1091    1.2576    5.5263 C   0  0  2  0  0  0  0  0  0  0  0  0
   -0.4883    2.6716    5.3212 C   0  0  1  0  0  0  0  0  0  0  0  0
   -1.8259    2.9190    6.0219 C   0  0  0  0  0  0  0  0  0  0  0  0
   -0.4733    2.9096    3.7952 C   0  0  2  0  0  0  0  0  0  0  0  0
   -1.2233    1.9325    2.8441 C   0  0  0  0  0  0  0  0  0  0  0  0
   -2.5879    2.5590    2.6844 C   0  0  0  0  0  0  0  0  0  0  0  0
   -2.2584    4.0269    2.8619 C   0  0  0  0  0  0  0  0  0  0  0  0
   -2.9782    4.9515    2.5042 O   0  0  0  0  0  0  0  0  0  0  0  0
   -1.0497    4.1411    3.3788 O   0  0  0  0  0  0  0  0  0  0  0  0
    3.2722   -1.9646    5.8405 C   0  0  0  0  0  0  0  0  0  0  0  0
    4.5178   -2.4455    6.0747 C   0  0  0  0  0  0  0  0  0  0  0  0
    5.2175   -3.2019    4.9541 C   0  0  0  0  0  0  0  0  0  0  0  0
    5.3384   -4.6866    5.3437 C   0  0  0  0  0  0  0  0  0  0  0  0
    5.2988   -5.5591    4.4996 O   0  0  0  0  0  0  0  0  0  0  0  0
    5.5650   -5.0028    6.8217 C   0  0  0  0  0  0  0  0  0  0  0  0
    6.1085   -3.7819    7.5662 C   0  0  0  0  0  0  0  0  0  0  0  0
    5.2145   -2.5303    7.4319 C   0  0  1  0  0  0  0  0  0  0  0  0
    4.2322   -2.5599    8.4816 O   0  0  0  0  0  0  0  0  0  0  0  0
    7.3508   -1.9026    9.2749 H   0  0  0  0  0  0  0  0  0  0  0  0
    7.4089   -0.1849    8.9886 H   0  0  0  0  0  0  0  0  0  0  0  0
    7.9586   -1.2987    7.7548 H   0  0  0  0  0  0  0  0  0  0  0  0
    5.6291   -0.4140    7.1609 H   0  0  0  0  0  0  0  0  0  0  0  0
    5.0222   -1.2692    9.9069 H   0  0  0  0  0  0  0  0  0  0  0  0
    2.6287   -0.6041    9.4667 H   0  0  0  0  0  0  0  0  0  0  0  0
    3.7608    0.6936    9.2737 H   0  0  0  0  0  0  0  0  0  0  0  0
    3.6951    0.4428    6.8063 H   0  0  0  0  0  0  0  0  0  0  0  0
    0.7079   -2.2996    6.0791 H   0  0  0  0  0  0  0  0  0  0  0  0
   -0.9184   -0.8023    6.8559 H   0  0  0  0  0  0  0  0  0  0  0  0
    0.0270   -0.7547    8.3466 H   0  0  0  0  0  0  0  0  0  0  0  0
   -0.2765    1.4899    7.6089 H   0  0  0  0  0  0  0  0  0  0  0  0
    1.6196    1.3535    8.6145 H   0  0  0  0  0  0  0  0  0  0  0  0
    3.0028    2.9690    8.0015 H   0  0  0  0  0  0  0  0  0  0  0  0
    3.1677    2.5357    6.3411 H   0  0  0  0  0  0  0  0  0  0  0  0
    0.7461    3.8966    7.5618 H   0  0  0  0  0  0  0  0  0  0  0  0
    2.0743    4.6653    6.7996 H   0  0  0  0  0  0  0  0  0  0  0  0
    0.5524    5.2258    4.3047 H   0  0  0  0  0  0  0  0  0  0  0  0
    1.7115    3.2818    3.4230 H   0  0  0  0  0  0  0  0  0  0  0  0
    1.1770    0.7158    3.6848 H   0  0  0  0  0  0  0  0  0  0  0  0
    2.3026    1.1956    4.9327 H   0  0  0  0  0  0  0  0  0  0  0  0
   -0.5639    0.5032    5.1287 H   0  0  0  0  0  0  0  0  0  0  0  0
   -2.5320    2.1359    5.7570 H   0  0  0  0  0  0  0  0  0  0  0  0
   -2.2567    3.8596    5.6808 H   0  0  0  0  0  0  0  0  0  0  0  0
   -1.7613    2.9969    7.1047 H   0  0  0  0  0  0  0  0  0  0  0  0
   -0.7250    1.8297    1.8679 H   0  0  0  0  0  0  0  0  0  0  0  0
   -1.3888    0.9224    3.2372 H   0  0  0  0  0  0  0  0  0  0  0  0
   -3.0961    2.3238    1.7515 H   0  0  0  0  0  0  0  0  0  0  0  0
   -3.2382    2.2789    3.5050 H   0  0  0  0  0  0  0  0  0  0  0  0
    2.8970   -2.1084    4.8493 H   0  0  0  0  0  0  0  0  0  0  0  0
    4.6622   -3.1235    4.0240 H   0  0  0  0  0  0  0  0  0  0  0  0
    6.2113   -2.7950    4.7940 H   0  0  0  0  0  0  0  0  0  0  0  0
    4.6339   -5.3556    7.2698 H   0  0  0  0  0  0  0  0  0  0  0  0
    6.2881   -5.8166    6.8899 H   0  0  0  0  0  0  0  0  0  0  0  0
    6.2888   -4.0308    8.6115 H   0  0  0  0  0  0  0  0  0  0  0  0
    7.0951   -3.5633    7.1405 H   0  0  0  0  0  0  0  0  0  0  0  0
  1  2  1  0
  1 35  1  0
  1 36  1  0
  1 37  1  0
  2 33  1  0
  2  3  1  0
  2 38  1  6
  3 34  1  0
  3  4  1  0
  3 39  1  1
  4  5  1  0
  4 40  1  0
  4 41  1  0
  5 10  1  0
  5  6  1  0
  5 42  1  6
  6  7  2  0
  6 26  1  0
  7  8  1  0
  7 43  1  0
  8  9  1  0
  8 44  1  0
  8 45  1  0
  9 17  1  0
  9 10  1  0
  9 46  1  1
 10 11  1  0
 10 47  1  1
 11 12  1  0
 11 48  1  0
 11 49  1  0
 12 13  1  0
 12 50  1  0
 12 51  1  0
 13 18  1  0
 13 14  1  6
 13 15  1  0
 14 52  1  0
 15 20  1  0
 15 16  1  0
 15 53  1  6
 16 17  1  0
 16 54  1  0
 16 55  1  0
 17 18  1  0
 17 56  1  6
 18 19  1  1
 18 20  1  0
 19 57  1  0
 19 58  1  0
 19 59  1  0
 20 25  1  1
 20 21  1  0
 21 22  1  0
 21 60  1  0
 21 61  1  0
 22 23  1  0
 22 62  1  0
 22 63  1  0
 23 24  2  0
 23 25  1  0
 26 27  2  3
 26 64  1  0
 27 33  1  0
 27 28  1  0
 28 29  1  0
 28 65  1  0
 28 66  1  0
 29 30  2  0
 29 31  1  0
 31 32  1  0
 31 67  1  0
 31 68  1  0
 33 32  1  6
 32 69  1  0
 32 70  1  0
 33 34  1  0
M  END
>  <i_m_ct_stereo_status>  (62) 
1

>  <s_m_source_file>  (62) 
/var/tmp/pbs.5076255.sched01/tmp5t01l7na/0y8cq_bsf.sdf

>  <i_m_source_file_index>  (62) 
40

>  <i_lp_mmshare_version>  (62) 
48012

>  <i_f3d_flags>  (62) 
0

>  <s_epik_input>  (62) 
W0NIMl0xQyg9TylbQ0gyXVtDSDJdW0NAQF0yKFtDQEhdKFtDSDNdKVtDQEhdKE8yKVtDSDJdMylDLzE9W0NIXVxDKD1bQ0hdW0NIMl00KVtDQEhdM1tDQEBIXShbQ0gyXVtDSDJdNSlbQ0BIXTRbQ0BIXShbQ0gyXTYpW0NAQF03KFtDSDNdKVtDQF01KFtPSF0pW0NAQEhdNltDQEBdNzhbQ0gyXVtDSDJdQyg9TylPOA==

>  <s_epik_cmdline>  (62) 
J2VwaWtfcHl0aG9uJywgJy1waHQnLCAnMi4wJywgJy1waCcsICc3LjAnLCAnLXRuJywgJzgnLCAnLW1hJywgJzIwMCcsICctaW1hZScsICc8aW5maWxlLm1hZT4nLCAnLW9tYWUnLCAnPG91dGZpbGUubWFlPic=

>  <r_lp_tautomer_probability>  (62) 
1

>  <r_epik_Ionization_Penalty>  (62) 
2.06753e-07

>  <r_epik_Ionization_Penalty_Charging>  (62) 
0

>  <r_epik_Ionization_Penalty_Neutral>  (62) 
2.06753e-07

>  <r_epik_State_Penalty>  (62) 
-0

>  <r_epik_Charging_Adjusted_Penalty>  (62) 
0

>  <i_epik_Tot_Q>  (62) 
0

>  <i_epik_Tot_abs_Q>  (62) 
0

>  <s_epik_Chemistry_Notes>  (62) 
This compound has an ester and may undergo hydrolysis at high or low pH.

>  <s_lp_Force_Field>  (62) 
OPLS3e

>  <r_lp_Energy>  (62) 
109.998

>  <b_lp_Chiralities_Consistent>  (62) 
1

>  <s_lp_Variant>  (62) 
19:0-1

>  <s_i_glide_gridfile>  (62) 
pfpi4k_grid

>  <i_i_glide_lignum>  (62) 
40

>  <i_i_glide_rotatable_bonds>  (62) 
1

>  <r_i_docking_score>  (62) 
-1.78264

>  <r_i_glide_ligand_efficiency>  (62) 
-0.0524306

>  <r_i_glide_ligand_efficiency_sa>  (62) 
-0.169855

>  <r_i_glide_ligand_efficiency_ln>  (62) 
-0.393836

>  <r_i_glide_gscore>  (62) 
-1.78264

>  <r_i_glide_lipo>  (62) 
-0.0934488

>  <r_i_glide_hbond>  (62) 
-0.150055

>  <r_i_glide_metal>  (62) 
-0

>  <r_i_glide_rewards>  (62) 
-0.243236

>  <r_i_glide_evdw>  (62) 
-15.1042

>  <r_i_glide_ecoul>  (62) 
-2.93794

>  <r_i_glide_erotb>  (62) 
0

>  <r_i_glide_esite>  (62) 
-0.1

>  <r_i_glide_emodel>  (62) 
-19.1161

>  <r_i_glide_energy>  (62) 
-18.0422

>  <r_i_glide_einternal>  (62) 
0.650566

>  <r_i_glide_intrahb_reward>  (62) 
-0

>  <i_i_glide_confnum>  (62) 
3

>  <i_i_glide_posenum>  (62) 
38

>  <r_i_glide_eff_state_penalty>  (62) 
0

>  <ligand_id>  (62) 
19

>  <original_smiles>  (62) 
CC1C2CC3C(=CCC4C3CCC3(O)C5CC4C3(C)C53CCC(=O)O3)C=C3CC(=O)CCC31O2

>  <smiles>  (62) 
[H]OC12C([H])([H])C([H])([H])C3([H])C4([H])C(=C([H])C([H])([H])C3([H])C3([H])C([H])([H])C1([H])C1(OC(=O)C([H])([H])C1([H])[H])C32C([H])([H])[H])C([H])=C1C([H])([H])C(=O)C([H])([H])C([H])([H])C12OC([H])(C4([H])[H])C2([H])C([H])([H])[H]

$$$$
19:1:0
     RDKit          3D

 70 77  0  0  1  0  0  0  0  0999 V2000
    2.6449   -3.3271   -1.6256 C   0  0  0  0  0  0  0  0  0  0  0  0
    3.0230   -2.9790   -0.1982 C   0  0  2  0  0  0  0  0  0  0  0  0
    4.1333   -1.9469    0.0311 C   0  0  1  0  0  0  0  0  0  0  0  0
    4.1567   -0.8241    1.1027 C   0  0  0  0  0  0  0  0  0  0  0  0
    3.1273   -0.8141    2.2916 C   0  0  1  0  0  0  0  0  0  0  0  0
    3.2808   -2.0069    3.2563 C   0  0  0  0  0  0  0  0  0  0  0  0
    3.6564   -1.8593    4.5339 C   0  0  0  0  0  0  0  0  0  0  0  0
    3.9112   -0.5107    5.1675 C   0  0  0  0  0  0  0  0  0  0  0  0
    3.0205    0.5822    4.5539 C   0  0  1  0  0  0  0  0  0  0  0  0
    3.1461    0.5821    3.0120 C   0  0  2  0  0  0  0  0  0  0  0  0
    2.2909    1.6749    2.3300 C   0  0  0  0  0  0  0  0  0  0  0  0
    0.7610    1.4773    2.3018 C   0  0  0  0  0  0  0  0  0  0  0  0
    0.0335    1.7913    3.6086 C   0  0  1  0  0  0  0  0  0  0  0  0
   -0.8289    2.8432    3.1820 O   0  0  0  0  0  0  0  0  0  0  0  0
   -0.5437    0.6142    4.4562 C   0  0  1  0  0  0  0  0  0  0  0  0
    0.5568   -0.3977    4.6697 C   0  0  0  0  0  0  0  0  0  0  0  0
    1.6040    0.6171    5.1750 C   0  0  2  0  0  0  0  0  0  0  0  0
    0.7881    1.9177    4.9631 C   0  0  1  0  0  0  0  0  0  0  0  0
    1.4447    3.1898    5.4670 C   0  0  0  0  0  0  0  0  0  0  0  0
   -0.5748    1.6178    5.6605 C   0  0  2  0  0  0  0  0  0  0  0  0
   -0.5762    1.1202    7.1270 C   0  0  0  0  0  0  0  0  0  0  0  0
   -1.7845    1.6790    7.8135 C   0  0  0  0  0  0  0  0  0  0  0  0
   -2.2074    2.7644    6.8711 C   0  0  0  0  0  0  0  0  0  0  0  0
   -2.9779    3.6469    7.1708 O   0  0  0  0  0  0  0  0  0  0  0  0
   -1.6292    2.5999    5.7237 O   0  0  0  0  0  0  0  0  0  0  0  0
    2.9147   -3.3094    2.7442 C   0  0  0  0  0  0  0  0  0  0  0  0
    3.8814   -3.9807    2.0875 C   0  0  0  0  0  0  0  0  0  0  0  0
    5.1634   -4.4355    2.7797 C   0  0  0  0  0  0  0  0  0  0  0  0
    5.6239   -5.7589    2.1507 C   0  0  0  0  0  0  0  0  0  0  0  0
    6.0660   -6.6686    2.8399 O   0  0  0  0  0  0  0  0  0  0  0  0
    5.6154   -5.8728    0.6294 C   0  0  0  0  0  0  0  0  0  0  0  0
    4.3403   -5.2983    0.0141 C   0  0  0  0  0  0  0  0  0  0  0  0
    4.0020   -3.9171    0.5510 C   0  0  1  0  0  0  0  0  0  0  0  0
    5.0647   -2.9981    0.2969 O   0  0  0  0  0  0  0  0  0  0  0  0
    3.5249   -3.5181   -2.2393 H   0  0  0  0  0  0  0  0  0  0  0  0
    2.0924   -2.5374   -2.1177 H   0  0  0  0  0  0  0  0  0  0  0  0
    2.0234   -4.2153   -1.6685 H   0  0  0  0  0  0  0  0  0  0  0  0
    2.1372   -2.6773    0.3565 H   0  0  0  0  0  0  0  0  0  0  0  0
    4.3495   -1.5154   -0.9570 H   0  0  0  0  0  0  0  0  0  0  0  0
    5.1646   -0.7234    1.4969 H   0  0  0  0  0  0  0  0  0  0  0  0
    3.9922    0.1094    0.5635 H   0  0  0  0  0  0  0  0  0  0  0  0
    2.1406   -0.9349    1.8508 H   0  0  0  0  0  0  0  0  0  0  0  0
    3.7612   -2.7193    5.1849 H   0  0  0  0  0  0  0  0  0  0  0  0
    3.7386   -0.5931    6.2421 H   0  0  0  0  0  0  0  0  0  0  0  0
    4.9696   -0.2684    5.0383 H   0  0  0  0  0  0  0  0  0  0  0  0
    3.4869    1.5107    4.8844 H   0  0  0  0  0  0  0  0  0  0  0  0
    4.1743    0.9307    2.8784 H   0  0  0  0  0  0  0  0  0  0  0  0
    2.5337    2.6553    2.7378 H   0  0  0  0  0  0  0  0  0  0  0  0
    2.6012    1.7054    1.2931 H   0  0  0  0  0  0  0  0  0  0  0  0
    0.3983    2.0696    1.4661 H   0  0  0  0  0  0  0  0  0  0  0  0
    0.5186    0.4689    1.9799 H   0  0  0  0  0  0  0  0  0  0  0  0
   -0.3511    3.3710    2.5408 H   0  0  0  0  0  0  0  0  0  0  0  0
   -1.5298    0.2711    4.1147 H   0  0  0  0  0  0  0  0  0  0  0  0
    0.2900   -1.1447    5.4091 H   0  0  0  0  0  0  0  0  0  0  0  0
    0.8120   -0.9202    3.7524 H   0  0  0  0  0  0  0  0  0  0  0  0
    1.7499    0.4267    6.2376 H   0  0  0  0  0  0  0  0  0  0  0  0
    1.7635    3.0908    6.5067 H   0  0  0  0  0  0  0  0  0  0  0  0
    0.7186    4.0077    5.4608 H   0  0  0  0  0  0  0  0  0  0  0  0
    2.2963    3.5096    4.8801 H   0  0  0  0  0  0  0  0  0  0  0  0
   -0.4743    0.0358    7.2511 H   0  0  0  0  0  0  0  0  0  0  0  0
    0.2979    1.5502    7.6492 H   0  0  0  0  0  0  0  0  0  0  0  0
   -2.5929    0.9678    7.8731 H   0  0  0  0  0  0  0  0  0  0  0  0
   -1.5681    2.0734    8.8042 H   0  0  0  0  0  0  0  0  0  0  0  0
    1.9669   -3.1869    2.2610 H   0  0  0  0  0  0  0  0  0  0  0  0
    5.9491   -3.6948    2.6786 H   0  0  0  0  0  0  0  0  0  0  0  0
    4.9677   -4.6095    3.8351 H   0  0  0  0  0  0  0  0  0  0  0  0
    6.4773   -5.3293    0.2412 H   0  0  0  0  0  0  0  0  0  0  0  0
    5.7255   -6.9130    0.3466 H   0  0  0  0  0  0  0  0  0  0  0  0
    4.4673   -5.2697   -1.0698 H   0  0  0  0  0  0  0  0  0  0  0  0
    3.5076   -5.9837    0.2010 H   0  0  0  0  0  0  0  0  0  0  0  0
  1  2  1  0
  1 35  1  0
  1 36  1  0
  1 37  1  0
  2 33  1  0
  2  3  1  0
  2 38  1  1
  3 34  1  0
  3  4  1  0
  3 39  1  6
  4  5  1  0
  4 40  1  0
  4 41  1  0
  5 10  1  0
  5  6  1  0
  5 42  1  6
  6  7  2  0
  6 26  1  0
  7  8  1  0
  7 43  1  0
  8  9  1  0
  8 44  1  0
  8 45  1  0
  9 17  1  0
  9 10  1  0
  9 46  1  1
 10 11  1  0
 10 47  1  1
 11 12  1  0
 11 48  1  0
 11 49  1  0
 12 13  1  0
 12 50  1  0
 12 51  1  0
 13 18  1  0
 13 14  1  6
 13 15  1  0
 14 52  1  0
 15 20  1  0
 15 16  1  0
 15 53  1  6
 16 17  1  0
 16 54  1  0
 16 55  1  0
 17 18  1  0
 17 56  1  1
 18 19  1  1
 18 20  1  0
 19 57  1  0
 19 58  1  0
 19 59  1  0
 20 25  1  6
 20 21  1  0
 21 22  1  0
 21 60  1  0
 21 61  1  0
 22 23  1  0
 22 62  1  0
 22 63  1  0
 23 24  2  0
 23 25  1  0
 26 27  2  3
 26 64  1  0
 27 33  1  0
 27 28  1  0
 28 29  1  0
 28 65  1  0
 28 66  1  0
 29 30  2  0
 29 31  1  0
 31 32  1  0
 31 67  1  0
 31 68  1  0
 33 32  1  6
 32 69  1  0
 32 70  1  0
 33 34  1  0
M  END
>  <i_m_ct_stereo_status>  (63) 
1

>  <s_m_source_file>  (63) 
/var/tmp/pbs.5076255.sched01/tmp5t01l7na/0y8cq_bsf.sdf

>  <i_m_source_file_index>  (63) 
41

>  <i_lp_mmshare_version>  (63) 
48012

>  <i_f3d_flags>  (63) 
0

>  <s_epik_input>  (63) 
W0NIMl0xQyg9TylbQ0gyXVtDSDJdW0NAQF0yKFtDQEhdKFtDSDNdKVtDQEhdKE8yKVtDSDJdMylDLzE9W0NIXVxDKD1bQ0hdW0NIMl00KVtDQEhdM1tDQEBIXShbQ0gyXVtDSDJdNSlbQ0BIXTRbQ0BIXShbQ0gyXTYpW0NAQF03KFtDSDNdKVtDQF01KFtPSF0pW0NAQEhdNltDQEBdNzhbQ0gyXVtDSDJdQyg9TylPOA==

>  <s_epik_cmdline>  (63) 
J2VwaWtfcHl0aG9uJywgJy1waHQnLCAnMi4wJywgJy1waCcsICc3LjAnLCAnLXRuJywgJzgnLCAnLW1hJywgJzIwMCcsICctaW1hZScsICc8aW5maWxlLm1hZT4nLCAnLW9tYWUnLCAnPG91dGZpbGUubWFlPic=

>  <r_lp_tautomer_probability>  (63) 
1

>  <r_epik_Ionization_Penalty>  (63) 
2.06753e-07

>  <r_epik_Ionization_Penalty_Charging>  (63) 
0

>  <r_epik_Ionization_Penalty_Neutral>  (63) 
2.06753e-07

>  <r_epik_State_Penalty>  (63) 
-0

>  <r_epik_Charging_Adjusted_Penalty>  (63) 
0

>  <i_epik_Tot_Q>  (63) 
0

>  <i_epik_Tot_abs_Q>  (63) 
0

>  <s_epik_Chemistry_Notes>  (63) 
This compound has an ester and may undergo hydrolysis at high or low pH.

>  <s_lp_Force_Field>  (63) 
OPLS3e

>  <r_lp_Energy>  (63) 
133.561

>  <b_lp_Chiralities_Consistent>  (63) 
1

>  <s_lp_Variant>  (63) 
19:0-2

>  <s_i_glide_gridfile>  (63) 
pfpi4k_grid

>  <i_i_glide_lignum>  (63) 
41

>  <i_i_glide_rotatable_bonds>  (63) 
1

>  <r_i_docking_score>  (63) 
-2.63354

>  <r_i_glide_ligand_efficiency>  (63) 
-0.0774572

>  <r_i_glide_ligand_efficiency_sa>  (63) 
-0.250931

>  <r_i_glide_ligand_efficiency_ln>  (63) 
-0.581824

>  <r_i_glide_gscore>  (63) 
-2.63354

>  <r_i_glide_lipo>  (63) 
-0.408108

>  <r_i_glide_hbond>  (63) 
0

>  <r_i_glide_metal>  (63) 
-0

>  <r_i_glide_rewards>  (63) 
-0.417573

>  <r_i_glide_evdw>  (63) 
-24.4201

>  <r_i_glide_ecoul>  (63) 
-3.9124

>  <r_i_glide_erotb>  (63) 
0

>  <r_i_glide_esite>  (63) 
0

>  <r_i_glide_emodel>  (63) 
-31.4321

>  <r_i_glide_energy>  (63) 
-28.3325

>  <r_i_glide_einternal>  (63) 
1.08146

>  <r_i_glide_intrahb_reward>  (63) 
-0

>  <i_i_glide_confnum>  (63) 
2

>  <i_i_glide_posenum>  (63) 
7

>  <r_i_glide_eff_state_penalty>  (63) 
0

>  <ligand_id>  (63) 
19

>  <original_smiles>  (63) 
CC1C2CC3C(=CCC4C3CCC3(O)C5CC4C3(C)C53CCC(=O)O3)C=C3CC(=O)CCC31O2

>  <smiles>  (63) 
[H]OC12C([H])([H])C([H])([H])C3([H])C4([H])C(=C([H])C([H])([H])C3([H])C3([H])C([H])([H])C1([H])C1(OC(=O)C([H])([H])C1([H])[H])C32C([H])([H])[H])C([H])=C1C([H])([H])C(=O)C([H])([H])C([H])([H])C12OC([H])(C4([H])[H])C2([H])C([H])([H])[H]

$$$$
19:1:1
     RDKit          3D

 70 77  0  0  1  0  0  0  0  0999 V2000
    3.1206   -2.6263   -1.8260 C   0  0  0  0  0  0  0  0  0  0  0  0
    3.3641   -2.4818   -0.3314 C   0  0  2  0  0  0  0  0  0  0  0  0
    4.4983   -1.5729    0.1518 C   0  0  1  0  0  0  0  0  0  0  0  0
    4.4744   -0.5819    1.3476 C   0  0  0  0  0  0  0  0  0  0  0  0
    3.3157   -0.6249    2.4189 C   0  0  1  0  0  0  0  0  0  0  0  0
    3.2785   -1.9361    3.2250 C   0  0  0  0  0  0  0  0  0  0  0  0
    3.5129   -1.9748    4.5430 C   0  0  0  0  0  0  0  0  0  0  0  0
    3.7884   -0.7389    5.3664 C   0  0  0  0  0  0  0  0  0  0  0  0
    3.0546    0.4852    4.8158 C   0  0  1  0  0  0  0  0  0  0  0  0
    3.3470    0.6608    3.3164 C   0  0  2  0  0  0  0  0  0  0  0  0
    2.6503    1.9039    2.7397 C   0  0  0  0  0  0  0  0  0  0  0  0
    1.1325    1.8336    2.4657 C   0  0  0  0  0  0  0  0  0  0  0  0
    0.2768    2.0648    3.7118 C   0  0  1  0  0  0  0  0  0  0  0  0
   -0.4453    3.2368    3.3298 O   0  0  0  0  0  0  0  0  0  0  0  0
   -0.4634    0.8443    4.3374 C   0  0  1  0  0  0  0  0  0  0  0  0
    0.5245   -0.2796    4.5354 C   0  0  0  0  0  0  0  0  0  0  0  0
    1.5819    0.5696    5.2746 C   0  0  2  0  0  0  0  0  0  0  0  0
    0.8818    1.9506    5.1480 C   0  0  1  0  0  0  0  0  0  0  0  0
    1.5746    3.1026    5.8605 C   0  0  0  0  0  0  0  0  0  0  0  0
   -0.5691    1.6783    5.6462 C   0  0  2  0  0  0  0  0  0  0  0  0
   -0.7751    1.0162    7.0269 C   0  0  0  0  0  0  0  0  0  0  0  0
   -2.0163    1.5858    7.6512 C   0  0  0  0  0  0  0  0  0  0  0  0
   -2.2376    2.8238    6.8182 C   0  0  0  0  0  0  0  0  0  0  0  0
   -2.9498    3.7458    7.1752 O   0  0  0  0  0  0  0  0  0  0  0  0
   -1.5526    2.7125    5.6911 O   0  0  0  0  0  0  0  0  0  0  0  0
    2.8894   -3.1277    2.5093 C   0  0  0  0  0  0  0  0  0  0  0  0
    3.8823   -3.7927    1.8861 C   0  0  0  0  0  0  0  0  0  0  0  0
    5.0339   -4.4238    2.6489 C   0  0  0  0  0  0  0  0  0  0  0  0
    5.4693   -5.7017    1.9109 C   0  0  0  0  0  0  0  0  0  0  0  0
    5.7567   -6.7167    2.5243 O   0  0  0  0  0  0  0  0  0  0  0  0
    5.6278   -5.6400    0.3957 C   0  0  0  0  0  0  0  0  0  0  0  0
    4.4772   -4.8989   -0.2812 C   0  0  0  0  0  0  0  0  0  0  0  0
    4.1899   -3.5685    0.3939 C   0  0  1  0  0  0  0  0  0  0  0  0
    5.3322   -2.7114    0.3656 O   0  0  0  0  0  0  0  0  0  0  0  0
    4.0557   -2.7966   -2.3690 H   0  0  0  0  0  0  0  0  0  0  0  0
    2.6622   -1.7401   -2.2643 H   0  0  0  0  0  0  0  0  0  0  0  0
    2.4698   -3.4714   -2.0549 H   0  0  0  0  0  0  0  0  0  0  0  0
    2.4446   -2.2028    0.1692 H   0  0  0  0  0  0  0  0  0  0  0  0
    4.8424   -1.0491   -0.7515 H   0  0  0  0  0  0  0  0  0  0  0  0
    5.4403   -0.6080    1.8550 H   0  0  0  0  0  0  0  0  0  0  0  0
    4.4351    0.4160    0.9148 H   0  0  0  0  0  0  0  0  0  0  0  0
    2.3869   -0.6150    1.8545 H   0  0  0  0  0  0  0  0  0  0  0  0
    3.4869   -2.9080    5.0928 H   0  0  0  0  0  0  0  0  0  0  0  0
    3.4868   -0.9291    6.3963 H   0  0  0  0  0  0  0  0  0  0  0  0
    4.8664   -0.5639    5.3755 H   0  0  0  0  0  0  0  0  0  0  0  0
    3.5388    1.3303    5.2994 H   0  0  0  0  0  0  0  0  0  0  0  0
    4.4027    0.9336    3.3237 H   0  0  0  0  0  0  0  0  0  0  0  0
    2.8973    2.8056    3.3004 H   0  0  0  0  0  0  0  0  0  0  0  0
    3.1118    2.0527    1.8049 H   0  0  0  0  0  0  0  0  0  0  0  0
    0.9284    2.5454    1.6871 H   0  0  0  0  0  0  0  0  0  0  0  0
    0.8631    0.8851    1.9921 H   0  0  0  0  0  0  0  0  0  0  0  0
   -0.2553    3.4204    2.4050 H   0  0  0  0  0  0  0  0  0  0  0  0
   -1.4287    0.6266    3.8709 H   0  0  0  0  0  0  0  0  0  0  0  0
    0.1294   -1.0998    5.1433 H   0  0  0  0  0  0  0  0  0  0  0  0
    0.8489   -0.7148    3.5900 H   0  0  0  0  0  0  0  0  0  0  0  0
    1.5800    0.2497    6.3125 H   0  0  0  0  0  0  0  0  0  0  0  0
    1.7572    2.8511    6.9032 H   0  0  0  0  0  0  0  0  0  0  0  0
    0.9055    3.9661    5.8769 H   0  0  0  0  0  0  0  0  0  0  0  0
    2.5133    3.4224    5.4121 H   0  0  0  0  0  0  0  0  0  0  0  0
   -0.7684   -0.0719    7.0138 H   0  0  0  0  0  0  0  0  0  0  0  0
    0.0492    1.3113    7.7027 H   0  0  0  0  0  0  0  0  0  0  0  0
   -2.8857    0.9444    7.5170 H   0  0  0  0  0  0  0  0  0  0  0  0
   -1.8896    1.8468    8.7017 H   0  0  0  0  0  0  0  0  0  0  0  0
    2.0095   -2.8756    1.9582 H   0  0  0  0  0  0  0  0  0  0  0  0
    5.8832   -3.7532    2.7308 H   0  0  0  0  0  0  0  0  0  0  0  0
    4.7016   -4.7065    3.6461 H   0  0  0  0  0  0  0  0  0  0  0  0
    6.5678   -5.1336    0.1746 H   0  0  0  0  0  0  0  0  0  0  0  0
    5.6950   -6.6502    0.0170 H   0  0  0  0  0  0  0  0  0  0  0  0
    4.7177   -4.7676   -1.3459 H   0  0  0  0  0  0  0  0  0  0  0  0
    3.5869   -5.5307   -0.2582 H   0  0  0  0  0  0  0  0  0  0  0  0
  1  2  1  0
  1 35  1  0
  1 36  1  0
  1 37  1  0
  2 33  1  0
  2  3  1  0
  2 38  1  1
  3 34  1  0
  3  4  1  0
  3 39  1  6
  4  5  1  0
  4 40  1  0
  4 41  1  0
  5 10  1  0
  5  6  1  0
  5 42  1  6
  6  7  2  0
  6 26  1  0
  7  8  1  0
  7 43  1  0
  8  9  1  0
  8 44  1  0
  8 45  1  0
  9 17  1  0
  9 10  1  0
  9 46  1  1
 10 11  1  0
 10 47  1  1
 11 12  1  0
 11 48  1  0
 11 49  1  0
 12 13  1  0
 12 50  1  0
 12 51  1  0
 13 18  1  0
 13 14  1  6
 13 15  1  0
 14 52  1  0
 15 20  1  0
 15 16  1  0
 15 53  1  6
 16 17  1  0
 16 54  1  0
 16 55  1  0
 17 18  1  0
 17 56  1  1
 18 19  1  1
 18 20  1  0
 19 57  1  0
 19 58  1  0
 19 59  1  0
 20 25  1  6
 20 21  1  0
 21 22  1  0
 21 60  1  0
 21 61  1  0
 22 23  1  0
 22 62  1  0
 22 63  1  0
 23 24  2  0
 23 25  1  0
 26 27  2  3
 26 64  1  0
 27 33  1  0
 27 28  1  0
 28 29  1  0
 28 65  1  0
 28 66  1  0
 29 30  2  0
 29 31  1  0
 31 32  1  0
 31 67  1  0
 31 68  1  0
 33 32  1  6
 32 69  1  0
 32 70  1  0
 33 34  1  0
M  END
>  <i_m_ct_stereo_status>  (64) 
1

>  <s_m_source_file>  (64) 
/var/tmp/pbs.5076255.sched01/tmp5t01l7na/0y8cq_bsf.sdf

>  <i_m_source_file_index>  (64) 
41

>  <i_lp_mmshare_version>  (64) 
48012

>  <i_f3d_flags>  (64) 
0

>  <s_epik_input>  (64) 
W0NIMl0xQyg9TylbQ0gyXVtDSDJdW0NAQF0yKFtDQEhdKFtDSDNdKVtDQEhdKE8yKVtDSDJdMylDLzE9W0NIXVxDKD1bQ0hdW0NIMl00KVtDQEhdM1tDQEBIXShbQ0gyXVtDSDJdNSlbQ0BIXTRbQ0BIXShbQ0gyXTYpW0NAQF03KFtDSDNdKVtDQF01KFtPSF0pW0NAQEhdNltDQEBdNzhbQ0gyXVtDSDJdQyg9TylPOA==

>  <s_epik_cmdline>  (64) 
J2VwaWtfcHl0aG9uJywgJy1waHQnLCAnMi4wJywgJy1waCcsICc3LjAnLCAnLXRuJywgJzgnLCAnLW1hJywgJzIwMCcsICctaW1hZScsICc8aW5maWxlLm1hZT4nLCAnLW9tYWUnLCAnPG91dGZpbGUubWFlPic=

>  <r_lp_tautomer_probability>  (64) 
1

>  <r_epik_Ionization_Penalty>  (64) 
2.06753e-07

>  <r_epik_Ionization_Penalty_Charging>  (64) 
0

>  <r_epik_Ionization_Penalty_Neutral>  (64) 
2.06753e-07

>  <r_epik_State_Penalty>  (64) 
-0

>  <r_epik_Charging_Adjusted_Penalty>  (64) 
0

>  <i_epik_Tot_Q>  (64) 
0

>  <i_epik_Tot_abs_Q>  (64) 
0

>  <s_epik_Chemistry_Notes>  (64) 
This compound has an ester and may undergo hydrolysis at high or low pH.

>  <s_lp_Force_Field>  (64) 
OPLS3e

>  <r_lp_Energy>  (64) 
133.561

>  <b_lp_Chiralities_Consistent>  (64) 
1

>  <s_lp_Variant>  (64) 
19:0-2

>  <s_i_glide_gridfile>  (64) 
pfpi4k_grid

>  <i_i_glide_lignum>  (64) 
41

>  <i_i_glide_rotatable_bonds>  (64) 
1

>  <r_i_docking_score>  (64) 
-2.61503

>  <r_i_glide_ligand_efficiency>  (64) 
-0.0769125

>  <r_i_glide_ligand_efficiency_sa>  (64) 
-0.249167

>  <r_i_glide_ligand_efficiency_ln>  (64) 
-0.577733

>  <r_i_glide_gscore>  (64) 
-2.61503

>  <r_i_glide_lipo>  (64) 
-0.267634

>  <r_i_glide_hbond>  (64) 
0

>  <r_i_glide_metal>  (64) 
-0

>  <r_i_glide_rewards>  (64) 
-0.436692

>  <r_i_glide_evdw>  (64) 
-22.9635

>  <r_i_glide_ecoul>  (64) 
-5.08349

>  <r_i_glide_erotb>  (64) 
0

>  <r_i_glide_esite>  (64) 
0

>  <r_i_glide_emodel>  (64) 
-30.7211

>  <r_i_glide_energy>  (64) 
-28.047

>  <r_i_glide_einternal>  (64) 
1.21315

>  <r_i_glide_intrahb_reward>  (64) 
-0

>  <i_i_glide_confnum>  (64) 
2

>  <i_i_glide_posenum>  (64) 
17

>  <r_i_glide_eff_state_penalty>  (64) 
0

>  <ligand_id>  (64) 
19

>  <original_smiles>  (64) 
CC1C2CC3C(=CCC4C3CCC3(O)C5CC4C3(C)C53CCC(=O)O3)C=C3CC(=O)CCC31O2

>  <smiles>  (64) 
[H]OC12C([H])([H])C([H])([H])C3([H])C4([H])C(=C([H])C([H])([H])C3([H])C3([H])C([H])([H])C1([H])C1(OC(=O)C([H])([H])C1([H])[H])C32C([H])([H])[H])C([H])=C1C([H])([H])C(=O)C([H])([H])C([H])([H])C12OC([H])(C4([H])[H])C2([H])C([H])([H])[H]

$$$$
19:1:2
     RDKit          3D

 70 77  0  0  1  0  0  0  0  0999 V2000
    3.6776   -1.4378   -1.8003 C   0  0  0  0  0  0  0  0  0  0  0  0
    3.6031   -1.7124   -0.2943 C   0  0  2  0  0  0  0  0  0  0  0  0
    4.7735   -1.2424    0.5681 C   0  0  1  0  0  0  0  0  0  0  0  0
    4.6642   -0.6337    1.9979 C   0  0  0  0  0  0  0  0  0  0  0  0
    3.3234   -0.6679    2.8226 C   0  0  1  0  0  0  0  0  0  0  0  0
    2.8747   -2.0904    3.2022 C   0  0  0  0  0  0  0  0  0  0  0  0
    2.8061   -2.5134    4.4746 C   0  0  0  0  0  0  0  0  0  0  0  0
    3.1224   -1.6272    5.6543 C   0  0  0  0  0  0  0  0  0  0  0  0
    2.7698   -0.1605    5.3669 C   0  0  1  0  0  0  0  0  0  0  0  0
    3.4129    0.3131    4.0491 C   0  0  2  0  0  0  0  0  0  0  0  0
    3.1003    1.7873    3.7201 C   0  0  0  0  0  0  0  0  0  0  0  0
    1.6780    2.1402    3.2540 C   0  0  0  0  0  0  0  0  0  0  0  0
    0.6346    2.2547    4.3811 C   0  0  1  0  0  0  0  0  0  0  0  0
    0.2636    3.6260    4.3017 O   0  0  0  0  0  0  0  0  0  0  0  0
   -0.4559    1.1453    4.4715 C   0  0  1  0  0  0  0  0  0  0  0  0
    0.2508   -0.2124    4.4916 C   0  0  0  0  0  0  0  0  0  0  0  0
    1.2678    0.1407    5.5966 C   0  0  2  0  0  0  0  0  0  0  0  0
    0.8630    1.6265    5.7901 C   0  0  1  0  0  0  0  0  0  0  0  0
    1.5856    2.3730    6.9093 C   0  0  0  0  0  0  0  0  0  0  0  0
   -0.6781    1.5994    5.9323 C   0  0  2  0  0  0  0  0  0  0  0  0
   -1.2529    0.6948    7.0351 C   0  0  0  0  0  0  0  0  0  0  0  0
   -2.4882    1.3653    7.5785 C   0  0  0  0  0  0  0  0  0  0  0  0
   -2.3221    2.7880    7.1031 C   0  0  0  0  0  0  0  0  0  0  0  0
   -2.9533    3.7290    7.5642 O   0  0  0  0  0  0  0  0  0  0  0  0
   -1.3839    2.8239    6.1478 O   0  0  0  0  0  0  0  0  0  0  0  0
    2.4317   -2.9422    2.1218 C   0  0  0  0  0  0  0  0  0  0  0  0
    3.3736   -3.6459    1.4859 C   0  0  0  0  0  0  0  0  0  0  0  0
    4.2047   -4.7161    2.1781 C   0  0  0  0  0  0  0  0  0  0  0  0
    4.5569   -5.8307    1.1788 C   0  0  0  0  0  0  0  0  0  0  0  0
    4.5143   -7.0125    1.4977 O   0  0  0  0  0  0  0  0  0  0  0  0
    5.0361   -5.4111   -0.2100 C   0  0  0  0  0  0  0  0  0  0  0  0
    4.2080   -4.2625   -0.7904 C   0  0  0  0  0  0  0  0  0  0  0  0
    4.0232   -3.1192    0.2062 C   0  0  1  0  0  0  0  0  0  0  0  0
    5.3169   -2.5886    0.5861 O   0  0  0  0  0  0  0  0  0  0  0  0
    4.6578   -1.6930   -2.2074 H   0  0  0  0  0  0  0  0  0  0  0  0
    3.5102   -0.3916   -2.0480 H   0  0  0  0  0  0  0  0  0  0  0  0
    2.9336   -2.0166   -2.3497 H   0  0  0  0  0  0  0  0  0  0  0  0
    2.6734   -1.3297    0.1001 H   0  0  0  0  0  0  0  0  0  0  0  0
    5.4121   -0.6213   -0.0530 H   0  0  0  0  0  0  0  0  0  0  0  0
    5.4841   -1.0142    2.6159 H   0  0  0  0  0  0  0  0  0  0  0  0
    4.8977    0.4193    1.8741 H   0  0  0  0  0  0  0  0  0  0  0  0
    2.5499   -0.2964    2.1565 H   0  0  0  0  0  0  0  0  0  0  0  0
    2.4883   -3.5191    4.7036 H   0  0  0  0  0  0  0  0  0  0  0  0
    2.5768   -1.9924    6.5244 H   0  0  0  0  0  0  0  0  0  0  0  0
    4.1836   -1.7257    5.8862 H   0  0  0  0  0  0  0  0  0  0  0  0
    3.2771    0.3945    6.1544 H   0  0  0  0  0  0  0  0  0  0  0  0
    4.4748    0.3203    4.2997 H   0  0  0  0  0  0  0  0  0  0  0  0
    3.3944    2.4355    4.5474 H   0  0  0  0  0  0  0  0  0  0  0  0
    3.7429    2.0620    2.9023 H   0  0  0  0  0  0  0  0  0  0  0  0
    1.7550    3.0720    2.6864 H   0  0  0  0  0  0  0  0  0  0  0  0
    1.3374    1.4422    2.4943 H   0  0  0  0  0  0  0  0  0  0  0  0
    0.1417    3.8241    3.3849 H   0  0  0  0  0  0  0  0  0  0  0  0
   -1.3094    1.2586    3.8055 H   0  0  0  0  0  0  0  0  0  0  0  0
   -0.4137   -1.0363    4.7668 H   0  0  0  0  0  0  0  0  0  0  0  0
    0.6848   -0.4637    3.5232 H   0  0  0  0  0  0  0  0  0  0  0  0
    0.9901   -0.4177    6.4871 H   0  0  0  0  0  0  0  0  0  0  0  0
    1.4954    1.8303    7.8480 H   0  0  0  0  0  0  0  0  0  0  0  0
    1.1053    3.3377    7.0682 H   0  0  0  0  0  0  0  0  0  0  0  0
    2.6408    2.5584    6.7122 H   0  0  0  0  0  0  0  0  0  0  0  0
   -1.4288   -0.3273    6.6967 H   0  0  0  0  0  0  0  0  0  0  0  0
   -0.5471    0.6197    7.8682 H   0  0  0  0  0  0  0  0  0  0  0  0
   -3.3850    0.9643    7.1348 H   0  0  0  0  0  0  0  0  0  0  0  0
   -2.5438    1.3463    8.6627 H   0  0  0  0  0  0  0  0  0  0  0  0
    1.7619   -2.3473    1.5317 H   0  0  0  0  0  0  0  0  0  0  0  0
    5.1235   -4.2995    2.5910 H   0  0  0  0  0  0  0  0  0  0  0  0
    3.6311   -5.1549    2.9972 H   0  0  0  0  0  0  0  0  0  0  0  0
    6.0767   -5.1060   -0.1182 H   0  0  0  0  0  0  0  0  0  0  0  0
    4.9987   -6.2603   -0.8848 H   0  0  0  0  0  0  0  0  0  0  0  0
    4.6911   -3.9278   -1.7152 H   0  0  0  0  0  0  0  0  0  0  0  0
    3.2308   -4.6424   -1.0814 H   0  0  0  0  0  0  0  0  0  0  0  0
  1  2  1  0
  1 35  1  0
  1 36  1  0
  1 37  1  0
  2 33  1  0
  2  3  1  0
  2 38  1  1
  3 34  1  0
  3  4  1  0
  3 39  1  6
  4  5  1  0
  4 40  1  0
  4 41  1  0
  5 10  1  0
  5  6  1  0
  5 42  1  6
  6  7  2  0
  6 26  1  0
  7  8  1  0
  7 43  1  0
  8  9  1  0
  8 44  1  0
  8 45  1  0
  9 17  1  0
  9 10  1  0
  9 46  1  1
 10 11  1  0
 10 47  1  1
 11 12  1  0
 11 48  1  0
 11 49  1  0
 12 13  1  0
 12 50  1  0
 12 51  1  0
 13 18  1  0
 13 14  1  1
 13 15  1  0
 14 52  1  0
 15 20  1  0
 15 16  1  0
 15 53  1  6
 16 17  1  0
 16 54  1  0
 16 55  1  0
 17 18  1  0
 17 56  1  1
 18 19  1  1
 18 20  1  0
 19 57  1  0
 19 58  1  0
 19 59  1  0
 20 25  1  6
 20 21  1  0
 21 22  1  0
 21 60  1  0
 21 61  1  0
 22 23  1  0
 22 62  1  0
 22 63  1  0
 23 24  2  0
 23 25  1  0
 26 27  2  3
 26 64  1  0
 27 33  1  0
 27 28  1  0
 28 29  1  0
 28 65  1  0
 28 66  1  0
 29 30  2  0
 29 31  1  0
 31 32  1  0
 31 67  1  0
 31 68  1  0
 33 32  1  6
 32 69  1  0
 32 70  1  0
 33 34  1  0
M  END
>  <i_m_ct_stereo_status>  (65) 
1

>  <s_m_source_file>  (65) 
/var/tmp/pbs.5076255.sched01/tmp5t01l7na/0y8cq_bsf.sdf

>  <i_m_source_file_index>  (65) 
41

>  <i_lp_mmshare_version>  (65) 
48012

>  <i_f3d_flags>  (65) 
0

>  <s_epik_input>  (65) 
W0NIMl0xQyg9TylbQ0gyXVtDSDJdW0NAQF0yKFtDQEhdKFtDSDNdKVtDQEhdKE8yKVtDSDJdMylDLzE9W0NIXVxDKD1bQ0hdW0NIMl00KVtDQEhdM1tDQEBIXShbQ0gyXVtDSDJdNSlbQ0BIXTRbQ0BIXShbQ0gyXTYpW0NAQF03KFtDSDNdKVtDQF01KFtPSF0pW0NAQEhdNltDQEBdNzhbQ0gyXVtDSDJdQyg9TylPOA==

>  <s_epik_cmdline>  (65) 
J2VwaWtfcHl0aG9uJywgJy1waHQnLCAnMi4wJywgJy1waCcsICc3LjAnLCAnLXRuJywgJzgnLCAnLW1hJywgJzIwMCcsICctaW1hZScsICc8aW5maWxlLm1hZT4nLCAnLW9tYWUnLCAnPG91dGZpbGUubWFlPic=

>  <r_lp_tautomer_probability>  (65) 
1

>  <r_epik_Ionization_Penalty>  (65) 
2.06753e-07

>  <r_epik_Ionization_Penalty_Charging>  (65) 
0

>  <r_epik_Ionization_Penalty_Neutral>  (65) 
2.06753e-07

>  <r_epik_State_Penalty>  (65) 
-0

>  <r_epik_Charging_Adjusted_Penalty>  (65) 
0

>  <i_epik_Tot_Q>  (65) 
0

>  <i_epik_Tot_abs_Q>  (65) 
0

>  <s_epik_Chemistry_Notes>  (65) 
This compound has an ester and may undergo hydrolysis at high or low pH.

>  <s_lp_Force_Field>  (65) 
OPLS3e

>  <r_lp_Energy>  (65) 
133.561

>  <b_lp_Chiralities_Consistent>  (65) 
1

>  <s_lp_Variant>  (65) 
19:0-2

>  <s_i_glide_gridfile>  (65) 
pfpi4k_grid

>  <i_i_glide_lignum>  (65) 
41

>  <i_i_glide_rotatable_bonds>  (65) 
1

>  <r_i_docking_score>  (65) 
-2.15577

>  <r_i_glide_ligand_efficiency>  (65) 
-0.0634051

>  <r_i_glide_ligand_efficiency_sa>  (65) 
-0.205408

>  <r_i_glide_ligand_efficiency_ln>  (65) 
-0.476271

>  <r_i_glide_gscore>  (65) 
-2.15577

>  <r_i_glide_lipo>  (65) 
-0.155628

>  <r_i_glide_hbond>  (65) 
0

>  <r_i_glide_metal>  (65) 
-0

>  <r_i_glide_rewards>  (65) 
-0.483403

>  <r_i_glide_evdw>  (65) 
-20.6673

>  <r_i_glide_ecoul>  (65) 
-3.22253

>  <r_i_glide_erotb>  (65) 
0

>  <r_i_glide_esite>  (65) 
0

>  <r_i_glide_emodel>  (65) 
-26.3135

>  <r_i_glide_energy>  (65) 
-23.8898

>  <r_i_glide_einternal>  (65) 
0.632584

>  <r_i_glide_intrahb_reward>  (65) 
-0

>  <i_i_glide_confnum>  (65) 
4

>  <i_i_glide_posenum>  (65) 
15

>  <r_i_glide_eff_state_penalty>  (65) 
0

>  <ligand_id>  (65) 
19

>  <original_smiles>  (65) 
CC1C2CC3C(=CCC4C3CCC3(O)C5CC4C3(C)C53CCC(=O)O3)C=C3CC(=O)CCC31O2

>  <smiles>  (65) 
[H]OC12C([H])([H])C([H])([H])C3([H])C4([H])C(=C([H])C([H])([H])C3([H])C3([H])C([H])([H])C1([H])C1(OC(=O)C([H])([H])C1([H])[H])C32C([H])([H])[H])C([H])=C1C([H])([H])C(=O)C([H])([H])C([H])([H])C12OC([H])(C4([H])[H])C2([H])C([H])([H])[H]

$$$$
20:3:0
     RDKit          3D

 87 94  0  0  1  0  0  0  0  0999 V2000
    0.8994   -1.7587    9.1410 C   0  0  0  0  0  0  0  0  0  0  0  0
    1.5120   -0.3827    8.7880 C   0  0  2  0  0  0  0  0  0  0  0  0
    1.3537   -0.0745    7.2659 C   0  0  1  0  0  0  0  0  0  0  0  0
    2.1546   -1.0791    6.3561 C   0  0  0  0  0  0  0  0  0  0  0  0
    2.2400   -0.9899    4.7915 C   0  0  0  0  0  0  0  0  0  0  0  0
    2.4286    0.3481    3.9822 C   0  0  2  0  0  0  0  0  0  0  0  0
    2.9768   -0.1856    2.6111 C   0  0  0  0  0  0  0  0  0  0  0  0
    3.7188    1.0653    4.5186 C   0  0  0  0  0  0  0  0  0  0  0  0
    3.6620    1.7050    5.8871 C   0  0  0  0  0  0  0  0  0  0  0  0
    4.3796    1.3483    6.9657 C   0  0  0  0  0  0  0  0  0  0  0  0
    4.1623    1.9590    8.2944 C   0  0  2  0  0  0  0  0  0  0  0  0
    4.8870    1.3615    9.3716 O   0  0  0  0  0  0  0  0  0  0  0  0
    3.4578    1.2173    9.4120 C   0  0  2  0  0  0  0  0  0  0  0  0
    2.9671   -0.2239    9.3440 C   0  0  1  0  0  0  0  0  0  0  0  0
    3.0122   -0.7118   10.6738 O   0  0  0  0  0  0  0  0  0  0  0  0
    1.0663    1.2351    3.6892 C   0  0  2  0  0  0  0  0  0  0  0  0
    0.2498    0.5059    2.5671 C   0  0  0  0  0  0  0  0  0  0  0  0
    1.3839    2.5742    2.9813 C   0  0  0  0  0  0  0  0  0  0  0  0
    1.9052    3.6977    3.8544 C   0  0  0  0  0  0  0  0  0  0  0  0
    0.9832    4.0559    5.0212 C   0  0  2  0  0  0  0  0  0  0  0  0
    1.7021    4.8253    6.1685 C   0  0  2  0  0  0  0  0  0  0  0  0
    2.7051    5.8749    5.7084 C   0  0  0  0  0  0  0  0  0  0  0  0
    2.0416    4.1372    7.3811 O   0  0  0  0  0  0  0  0  0  0  0  0
    0.9614    5.0808    7.4330 C   0  0  2  0  0  0  0  0  0  0  0  0
   -0.4397    4.5501    7.4801 C   0  0  2  0  0  0  0  0  0  0  0  0
   -1.1474    4.5932    8.8415 C   0  0  0  0  0  0  0  0  0  0  0  0
   -1.8349    3.2261    9.0200 C   0  0  0  0  0  0  0  0  0  0  0  0
   -1.0306    2.3837   10.0282 C   0  0  0  0  0  0  0  0  0  0  0  0
   -3.2837    3.3637    9.5231 C   0  0  0  0  0  0  0  0  0  0  0  0
   -1.7937    2.6091    7.6059 C   0  0  0  0  0  0  0  0  0  0  0  0
   -0.4825    3.1076    6.9512 C   0  0  1  0  0  0  0  0  0  0  0  0
   -0.1821    2.9987    5.3906 C   0  0  1  0  0  0  0  0  0  0  0  0
   -1.4373    3.5715    4.6273 C   0  0  0  0  0  0  0  0  0  0  0  0
    0.0616    1.4720    4.9040 C   0  0  1  0  0  0  0  0  0  0  0  0
   -1.3609    0.7910    4.9657 C   0  0  0  0  0  0  0  0  0  0  0  0
   -0.2650    0.1190    5.6019 C   0  0  2  0  0  0  0  0  0  0  0  0
   -0.0446    0.0478    6.9885 O   0  0  0  0  0  0  0  0  0  0  0  0
    1.5246   -2.5803    8.7941 H   0  0  0  0  0  0  0  0  0  0  0  0
   -0.0886   -1.8734    8.7010 H   0  0  0  0  0  0  0  0  0  0  0  0
    0.7797   -1.8787   10.2181 H   0  0  0  0  0  0  0  0  0  0  0  0
    0.9073    0.3505    9.3162 H   0  0  0  0  0  0  0  0  0  0  0  0
    1.7272    0.9264    7.1263 H   0  0  0  0  0  0  0  0  0  0  0  0
    3.1868   -1.0796    6.6938 H   0  0  0  0  0  0  0  0  0  0  0  0
    1.8074   -2.0869    6.5777 H   0  0  0  0  0  0  0  0  0  0  0  0
    3.1140   -1.6064    4.5789 H   0  0  0  0  0  0  0  0  0  0  0  0
    1.4669   -1.5929    4.3231 H   0  0  0  0  0  0  0  0  0  0  0  0
    3.1348    0.6030    1.8728 H   0  0  0  0  0  0  0  0  0  0  0  0
    2.3347   -0.9421    2.1564 H   0  0  0  0  0  0  0  0  0  0  0  0
    3.9439   -0.6814    2.7174 H   0  0  0  0  0  0  0  0  0  0  0  0
    4.5442    0.3509    4.5628 H   0  0  0  0  0  0  0  0  0  0  0  0
    4.0628    1.8094    3.8008 H   0  0  0  0  0  0  0  0  0  0  0  0
    2.9398    2.4855    6.0070 H   0  0  0  0  0  0  0  0  0  0  0  0
    5.0946    0.5391    6.9150 H   0  0  0  0  0  0  0  0  0  0  0  0
    4.1591    3.0463    8.3040 H   0  0  0  0  0  0  0  0  0  0  0  0
    2.9535    1.8446   10.1424 H   0  0  0  0  0  0  0  0  0  0  0  0
    3.6812   -0.8128    8.7697 H   0  0  0  0  0  0  0  0  0  0  0  0
    2.4620   -0.1768   11.2245 H   0  0  0  0  0  0  0  0  0  0  0  0
   -0.6972    1.0038    2.3488 H   0  0  0  0  0  0  0  0  0  0  0  0
    0.0310   -0.5315    2.8216 H   0  0  0  0  0  0  0  0  0  0  0  0
    0.7520    0.4979    1.5972 H   0  0  0  0  0  0  0  0  0  0  0  0
    2.0702    2.4408    2.1516 H   0  0  0  0  0  0  0  0  0  0  0  0
    0.4843    2.9476    2.4978 H   0  0  0  0  0  0  0  0  0  0  0  0
    2.9261    3.5443    4.1627 H   0  0  0  0  0  0  0  0  0  0  0  0
    1.9905    4.5734    3.2089 H   0  0  0  0  0  0  0  0  0  0  0  0
    0.4619    4.9033    4.5761 H   0  0  0  0  0  0  0  0  0  0  0  0
    2.2160    6.6004    5.0593 H   0  0  0  0  0  0  0  0  0  0  0  0
    3.5431    5.4313    5.1740 H   0  0  0  0  0  0  0  0  0  0  0  0
    3.1147    6.4107    6.5662 H   0  0  0  0  0  0  0  0  0  0  0  0
    1.1668    5.9991    7.9801 H   0  0  0  0  0  0  0  0  0  0  0  0
   -1.0169    5.1998    6.8270 H   0  0  0  0  0  0  0  0  0  0  0  0
   -0.4720    4.8280    9.6647 H   0  0  0  0  0  0  0  0  0  0  0  0
   -1.8931    5.3913    8.8168 H   0  0  0  0  0  0  0  0  0  0  0  0
   -1.3840    1.3528   10.0698 H   0  0  0  0  0  0  0  0  0  0  0  0
   -1.1172    2.7941   11.0339 H   0  0  0  0  0  0  0  0  0  0  0  0
    0.0294    2.3671    9.7788 H   0  0  0  0  0  0  0  0  0  0  0  0
   -3.7592    2.3901    9.6342 H   0  0  0  0  0  0  0  0  0  0  0  0
   -3.8961    3.9579    8.8445 H   0  0  0  0  0  0  0  0  0  0  0  0
   -3.3142    3.8473   10.4985 H   0  0  0  0  0  0  0  0  0  0  0  0
   -1.8500    1.5266    7.6807 H   0  0  0  0  0  0  0  0  0  0  0  0
   -2.6592    2.9511    7.0371 H   0  0  0  0  0  0  0  0  0  0  0  0
    0.2975    2.5487    7.4599 H   0  0  0  0  0  0  0  0  0  0  0  0
   -2.3829    3.0900    4.8592 H   0  0  0  0  0  0  0  0  0  0  0  0
   -1.3161    3.5083    3.5443 H   0  0  0  0  0  0  0  0  0  0  0  0
   -1.6153    4.6244    4.8466 H   0  0  0  0  0  0  0  0  0  0  0  0
   -2.1435    1.1188    5.6283 H   0  0  0  0  0  0  0  0  0  0  0  0
   -1.7735    0.3034    4.0904 H   0  0  0  0  0  0  0  0  0  0  0  0
   -0.2182   -0.8679    5.1637 H   0  0  0  0  0  0  0  0  0  0  0  0
  1  2  1  0
  1 38  1  0
  1 39  1  0
  1 40  1  0
  2 14  1  0
  2  3  1  0
  2 41  1  1
  3 37  1  0
  3  4  1  0
  3 42  1  1
  4  5  1  0
  4 43  1  0
  4 44  1  0
  5  6  1  0
  5 45  1  0
  5 46  1  0
  6  7  1  6
  6  8  1  0
  6 16  1  0
  7 47  1  0
  7 48  1  0
  7 49  1  0
  8  9  1  0
  8 50  1  0
  8 51  1  0
  9 10  2  3
  9 52  1  0
 10 11  1  0
 10 53  1  0
 11 13  1  0
 11 12  1  0
 11 54  1  6
 12 13  1  0
 13 14  1  0
 13 55  1  1
 14 15  1  0
 14 56  1  6
 15 57  1  0
 16 34  1  0
 16 17  1  6
 16 18  1  0
 17 58  1  0
 17 59  1  0
 17 60  1  0
 18 19  1  0
 18 61  1  0
 18 62  1  0
 19 20  1  0
 19 63  1  0
 19 64  1  0
 20 32  1  0
 20 21  1  0
 20 65  1  6
 21 24  1  0
 21 22  1  6
 21 23  1  0
 22 66  1  0
 22 67  1  0
 22 68  1  0
 23 24  1  0
 24 25  1  0
 24 69  1  1
 25 31  1  0
 25 26  1  0
 25 70  1  6
 26 27  1  0
 26 71  1  0
 26 72  1  0
 27 28  1  0
 27 29  1  0
 27 30  1  0
 28 73  1  0
 28 74  1  0
 28 75  1  0
 29 76  1  0
 29 77  1  0
 29 78  1  0
 30 31  1  0
 30 79  1  0
 30 80  1  0
 31 32  1  0
 31 81  1  1
 32 33  1  6
 32 34  1  0
 33 82  1  0
 33 83  1  0
 33 84  1  0
 34 36  1  0
 34 35  1  6
 35 36  1  0
 35 85  1  0
 35 86  1  0
 36 37  1  0
 36 87  1  6
M  END
>  <i_m_ct_stereo_status>  (66) 
1

>  <s_m_source_file>  (66) 
/var/tmp/pbs.5076255.sched01/tmpx9mnojvb/44r91_cmns.sdf

>  <i_m_source_file_index>  (66) 
1

>  <i_lp_mmshare_version>  (66) 
48012

>  <i_f3d_flags>  (66) 
0

>  <s_epik_input>  (66) 
W0NIMl0xL1tDSF09W0NIXVxbQ0BIXShPMilbQ0BIXTJbQ0BASF0oW09IXSlbQ0BIXShbQ0gzXSlbQ0BIXShPW0NASF0zW0NIMl00KVtDSDJdW0NIMl1bQ0BAXTEoW0NIM10pW0NAXShbQ0BdMzQ1KShbQ0gzXSlbQ0gyXVtDSDJdW0NAQEhdNltDQEBdNyhbQ0gzXSlbQ0BIXShPNylbQ0BIXThbQ0BIXShbQ0BdNTZbQ0gzXSlbQ0gyXUMoW0NIMl04KShbQ0gzXSlbQ0gzXQ==

>  <s_epik_cmdline>  (66) 
J2VwaWtfcHl0aG9uJywgJy1waHQnLCAnMi4wJywgJy1waCcsICc3LjAnLCAnLXRuJywgJzgnLCAnLW1hJywgJzIwMCcsICctaW1hZScsICc8aW5maWxlLm1hZT4nLCAnLW9tYWUnLCAnPG91dGZpbGUubWFlPic=

>  <r_lp_tautomer_probability>  (66) 
1

>  <r_epik_Ionization_Penalty>  (66) 
4.27281e-08

>  <r_epik_Ionization_Penalty_Charging>  (66) 
0

>  <r_epik_Ionization_Penalty_Neutral>  (66) 
4.27281e-08

>  <r_epik_State_Penalty>  (66) 
-0

>  <r_epik_Charging_Adjusted_Penalty>  (66) 
0

>  <i_epik_Tot_Q>  (66) 
0

>  <i_epik_Tot_abs_Q>  (66) 
0

>  <s_lp_Force_Field>  (66) 
OPLS3e

>  <r_lp_Energy>  (66) 
126.721

>  <b_lp_Chiralities_Consistent>  (66) 
1

>  <s_lp_Variant>  (66) 
20:0-4

>  <s_i_glide_gridfile>  (66) 
pfpi4k_grid

>  <i_i_glide_lignum>  (66) 
1

>  <i_i_glide_rotatable_bonds>  (66) 
1

>  <r_i_docking_score>  (66) 
-1.64783

>  <r_i_glide_ligand_efficiency>  (66) 
-0.044536

>  <r_i_glide_ligand_efficiency_sa>  (66) 
-0.148404

>  <r_i_glide_ligand_efficiency_ln>  (66) 
-0.357376

>  <r_i_glide_gscore>  (66) 
-1.64783

>  <r_i_glide_lipo>  (66) 
-0.00692783

>  <r_i_glide_hbond>  (66) 
0

>  <r_i_glide_metal>  (66) 
-0

>  <r_i_glide_rewards>  (66) 
0

>  <r_i_glide_evdw>  (66) 
-27.8627

>  <r_i_glide_ecoul>  (66) 
-1.65178

>  <r_i_glide_erotb>  (66) 
0

>  <r_i_glide_esite>  (66) 
0

>  <r_i_glide_emodel>  (66) 
-32.1496

>  <r_i_glide_energy>  (66) 
-29.5145

>  <r_i_glide_einternal>  (66) 
9.71099e-05

>  <r_i_glide_intrahb_reward>  (66) 
-0

>  <i_i_glide_confnum>  (66) 
2

>  <i_i_glide_posenum>  (66) 
5

>  <r_i_glide_eff_state_penalty>  (66) 
0

>  <ligand_id>  (66) 
20

>  <original_smiles>  (66) 
CC1C2CCC(C)(CC=CC3OC3C1O)C1(C)CCC3C4(C)OC4C4CC(C)(C)CC4C3(C)C13CC3O2

>  <smiles>  (66) 
[H]OC1([H])C2([H])OC2([H])C([H])=C([H])C([H])([H])C2(C([H])([H])[H])C([H])([H])C([H])([H])C([H])(OC3([H])C([H])([H])C34C3(C([H])([H])[H])C5([H])C([H])([H])C(C([H])([H])[H])(C([H])([H])[H])C([H])([H])C5([H])C5([H])OC5(C([H])([H])[H])C3([H])C([H])([H])C([H])([H])C24C([H])([H])[H])C1([H])C([H])([H])[H]

$$$$
20:3:1
     RDKit          3D

 87 94  0  0  1  0  0  0  0  0999 V2000
    0.3911   -2.3405    8.2427 C   0  0  0  0  0  0  0  0  0  0  0  0
    1.2539   -1.0613    8.1506 C   0  0  2  0  0  0  0  0  0  0  0  0
    1.2614   -0.4945    6.6973 C   0  0  1  0  0  0  0  0  0  0  0  0
    1.9367   -1.4755    5.6681 C   0  0  0  0  0  0  0  0  0  0  0  0
    2.1487   -1.1601    4.1457 C   0  0  0  0  0  0  0  0  0  0  0  0
    2.6293    0.2286    3.5816 C   0  0  2  0  0  0  0  0  0  0  0  0
    3.1738   -0.1754    2.1658 C   0  0  0  0  0  0  0  0  0  0  0  0
    3.9830    0.5958    4.2877 C   0  0  0  0  0  0  0  0  0  0  0  0
    3.9412    1.0184    5.7380 C   0  0  0  0  0  0  0  0  0  0  0  0
    4.5060    0.3723    6.7708 C   0  0  0  0  0  0  0  0  0  0  0  0
    4.3066    0.7965    8.1719 C   0  0  2  0  0  0  0  0  0  0  0  0
    4.8231   -0.0932    9.1649 O   0  0  0  0  0  0  0  0  0  0  0  0
    3.3944    0.0361    9.1102 C   0  0  2  0  0  0  0  0  0  0  0  0
    2.6732   -1.2585    8.7769 C   0  0  1  0  0  0  0  0  0  0  0  0
    2.5513   -1.9205   10.0202 O   0  0  0  0  0  0  0  0  0  0  0  0
    1.4685    1.3861    3.3820 C   0  0  2  0  0  0  0  0  0  0  0  0
    0.6203    1.0008    2.1199 C   0  0  0  0  0  0  0  0  0  0  0  0
    2.0692    2.7398    2.9249 C   0  0  0  0  0  0  0  0  0  0  0  0
    2.7160    3.5951    3.9934 C   0  0  0  0  0  0  0  0  0  0  0  0
    1.7866    3.9324    5.1605 C   0  0  2  0  0  0  0  0  0  0  0  0
    2.5443    4.3662    6.4483 C   0  0  2  0  0  0  0  0  0  0  0  0
    3.7475    5.2687    6.2155 C   0  0  0  0  0  0  0  0  0  0  0  0
    2.6651    3.4479    7.5430 O   0  0  0  0  0  0  0  0  0  0  0  0
    1.7676    4.5570    7.7045 C   0  0  2  0  0  0  0  0  0  0  0  0
    0.2941    4.2946    7.6009 C   0  0  2  0  0  0  0  0  0  0  0  0
   -0.4869    4.2528    8.9214 C   0  0  0  0  0  0  0  0  0  0  0  0
   -1.4153    3.0286    8.8373 C   0  0  0  0  0  0  0  0  0  0  0  0
   -0.8456    1.9061    9.7220 C   0  0  0  0  0  0  0  0  0  0  0  0
   -2.8505    3.3548    9.2908 C   0  0  0  0  0  0  0  0  0  0  0  0
   -1.3802    2.6410    7.3437 C   0  0  0  0  0  0  0  0  0  0  0  0
    0.0408    2.9840    6.8397 C   0  0  1  0  0  0  0  0  0  0  0  0
    0.4301    3.0657    5.2976 C   0  0  1  0  0  0  0  0  0  0  0  0
   -0.6442    3.9744    4.5870 C   0  0  0  0  0  0  0  0  0  0  0  0
    0.4373    1.6144    4.5748 C   0  0  1  0  0  0  0  0  0  0  0  0
   -1.0834    1.2082    4.4603 C   0  0  0  0  0  0  0  0  0  0  0  0
   -0.1730    0.2534    5.0232 C   0  0  2  0  0  0  0  0  0  0  0  0
   -0.0691   -0.0737    6.3863 O   0  0  0  0  0  0  0  0  0  0  0  0
    0.8883   -3.1991    7.7936 H   0  0  0  0  0  0  0  0  0  0  0  0
   -0.5642   -2.2051    7.7388 H   0  0  0  0  0  0  0  0  0  0  0  0
    0.1761   -2.6003    9.2803 H   0  0  0  0  0  0  0  0  0  0  0  0
    0.7531   -0.3234    8.7732 H   0  0  0  0  0  0  0  0  0  0  0  0
    1.8147    0.4287    6.7440 H   0  0  0  0  0  0  0  0  0  0  0  0
    2.9262   -1.7199    6.0432 H   0  0  0  0  0  0  0  0  0  0  0  0
    1.4026   -2.4238    5.7031 H   0  0  0  0  0  0  0  0  0  0  0  0
    2.9156   -1.8850    3.8719 H   0  0  0  0  0  0  0  0  0  0  0  0
    1.3187   -1.5289    3.5489 H   0  0  0  0  0  0  0  0  0  0  0  0
    3.5209    0.6760    1.5774 H   0  0  0  0  0  0  0  0  0  0  0  0
    2.4445   -0.7194    1.5624 H   0  0  0  0  0  0  0  0  0  0  0  0
    4.0285   -0.8518    2.2299 H   0  0  0  0  0  0  0  0  0  0  0  0
    4.6629   -0.2595    4.2495 H   0  0  0  0  0  0  0  0  0  0  0  0
    4.5087    1.3592    3.7177 H   0  0  0  0  0  0  0  0  0  0  0  0
    3.3590    1.8905    5.9542 H   0  0  0  0  0  0  0  0  0  0  0  0
    5.0701   -0.5366    6.6170 H   0  0  0  0  0  0  0  0  0  0  0  0
    4.4915    1.8486    8.3676 H   0  0  0  0  0  0  0  0  0  0  0  0
    2.9557    0.6163    9.9172 H   0  0  0  0  0  0  0  0  0  0  0  0
    3.3123   -1.8762    8.1479 H   0  0  0  0  0  0  0  0  0  0  0  0
    3.4224   -2.0510   10.3674 H   0  0  0  0  0  0  0  0  0  0  0  0
   -0.2019    1.6973    1.9427 H   0  0  0  0  0  0  0  0  0  0  0  0
    0.2003   -0.0037    2.1816 H   0  0  0  0  0  0  0  0  0  0  0  0
    1.1855    1.0479    1.1885 H   0  0  0  0  0  0  0  0  0  0  0  0
    2.7797    2.6085    2.1162 H   0  0  0  0  0  0  0  0  0  0  0  0
    1.2905    3.3514    2.4790 H   0  0  0  0  0  0  0  0  0  0  0  0
    3.6689    3.2075    4.3144 H   0  0  0  0  0  0  0  0  0  0  0  0
    3.0024    4.5293    3.5092 H   0  0  0  0  0  0  0  0  0  0  0  0
    1.4570    4.9218    4.8384 H   0  0  0  0  0  0  0  0  0  0  0  0
    3.4425    6.1645    5.6763 H   0  0  0  0  0  0  0  0  0  0  0  0
    4.5307    4.7653    5.6520 H   0  0  0  0  0  0  0  0  0  0  0  0
    4.1802    5.5775    7.1684 H   0  0  0  0  0  0  0  0  0  0  0  0
    2.0918    5.3219    8.4056 H   0  0  0  0  0  0  0  0  0  0  0  0
   -0.1251    5.1323    7.0454 H   0  0  0  0  0  0  0  0  0  0  0  0
    0.1589    4.2236    9.7993 H   0  0  0  0  0  0  0  0  0  0  0  0
   -1.0764    5.1688    9.0005 H   0  0  0  0  0  0  0  0  0  0  0  0
   -1.3753    0.9693    9.5610 H   0  0  0  0  0  0  0  0  0  0  0  0
   -0.9350    2.1574   10.7791 H   0  0  0  0  0  0  0  0  0  0  0  0
    0.2117    1.7335    9.5217 H   0  0  0  0  0  0  0  0  0  0  0  0
   -3.4983    2.4830    9.2093 H   0  0  0  0  0  0  0  0  0  0  0  0
   -3.2945    4.1504    8.6918 H   0  0  0  0  0  0  0  0  0  0  0  0
   -2.8700    3.6760   10.3316 H   0  0  0  0  0  0  0  0  0  0  0  0
   -1.6299    1.5887    7.2314 H   0  0  0  0  0  0  0  0  0  0  0  0
   -2.1280    3.2213    6.8019 H   0  0  0  0  0  0  0  0  0  0  0  0
    0.6711    2.2177    7.2823 H   0  0  0  0  0  0  0  0  0  0  0  0
   -1.6730    3.6441    4.6955 H   0  0  0  0  0  0  0  0  0  0  0  0
   -0.4576    4.0573    3.5148 H   0  0  0  0  0  0  0  0  0  0  0  0
   -0.6489    4.9966    4.9693 H   0  0  0  0  0  0  0  0  0  0  0  0
   -1.8436    1.5651    5.1344 H   0  0  0  0  0  0  0  0  0  0  0  0
   -1.5100    0.9495    3.4989 H   0  0  0  0  0  0  0  0  0  0  0  0
   -0.2697   -0.6438    4.4263 H   0  0  0  0  0  0  0  0  0  0  0  0
  1  2  1  0
  1 38  1  0
  1 39  1  0
  1 40  1  0
  2 14  1  0
  2  3  1  0
  2 41  1  1
  3 37  1  0
  3  4  1  0
  3 42  1  1
  4  5  1  0
  4 43  1  0
  4 44  1  0
  5  6  1  0
  5 45  1  0
  5 46  1  0
  6  7  1  6
  6  8  1  0
  6 16  1  0
  7 47  1  0
  7 48  1  0
  7 49  1  0
  8  9  1  0
  8 50  1  0
  8 51  1  0
  9 10  2  3
  9 52  1  0
 10 11  1  0
 10 53  1  0
 11 13  1  0
 11 12  1  0
 11 54  1  6
 12 13  1  0
 13 14  1  0
 13 55  1  1
 14 15  1  0
 14 56  1  6
 15 57  1  0
 16 34  1  0
 16 17  1  6
 16 18  1  0
 17 58  1  0
 17 59  1  0
 17 60  1  0
 18 19  1  0
 18 61  1  0
 18 62  1  0
 19 20  1  0
 19 63  1  0
 19 64  1  0
 20 32  1  0
 20 21  1  0
 20 65  1  6
 21 24  1  0
 21 22  1  6
 21 23  1  0
 22 66  1  0
 22 67  1  0
 22 68  1  0
 23 24  1  0
 24 25  1  0
 24 69  1  1
 25 31  1  0
 25 26  1  0
 25 70  1  6
 26 27  1  0
 26 71  1  0
 26 72  1  0
 27 28  1  0
 27 29  1  0
 27 30  1  0
 28 73  1  0
 28 74  1  0
 28 75  1  0
 29 76  1  0
 29 77  1  0
 29 78  1  0
 30 31  1  0
 30 79  1  0
 30 80  1  0
 31 32  1  0
 31 81  1  1
 32 33  1  6
 32 34  1  0
 33 82  1  0
 33 83  1  0
 33 84  1  0
 34 36  1  0
 34 35  1  6
 35 36  1  0
 35 85  1  0
 35 86  1  0
 36 37  1  0
 36 87  1  6
M  END
>  <i_m_ct_stereo_status>  (67) 
1

>  <s_m_source_file>  (67) 
/var/tmp/pbs.5076255.sched01/tmpx9mnojvb/44r91_cmns.sdf

>  <i_m_source_file_index>  (67) 
1

>  <i_lp_mmshare_version>  (67) 
48012

>  <i_f3d_flags>  (67) 
0

>  <s_epik_input>  (67) 
W0NIMl0xL1tDSF09W0NIXVxbQ0BIXShPMilbQ0BIXTJbQ0BASF0oW09IXSlbQ0BIXShbQ0gzXSlbQ0BIXShPW0NASF0zW0NIMl00KVtDSDJdW0NIMl1bQ0BAXTEoW0NIM10pW0NAXShbQ0BdMzQ1KShbQ0gzXSlbQ0gyXVtDSDJdW0NAQEhdNltDQEBdNyhbQ0gzXSlbQ0BIXShPNylbQ0BIXThbQ0BIXShbQ0BdNTZbQ0gzXSlbQ0gyXUMoW0NIMl04KShbQ0gzXSlbQ0gzXQ==

>  <s_epik_cmdline>  (67) 
J2VwaWtfcHl0aG9uJywgJy1waHQnLCAnMi4wJywgJy1waCcsICc3LjAnLCAnLXRuJywgJzgnLCAnLW1hJywgJzIwMCcsICctaW1hZScsICc8aW5maWxlLm1hZT4nLCAnLW9tYWUnLCAnPG91dGZpbGUubWFlPic=

>  <r_lp_tautomer_probability>  (67) 
1

>  <r_epik_Ionization_Penalty>  (67) 
4.27281e-08

>  <r_epik_Ionization_Penalty_Charging>  (67) 
0

>  <r_epik_Ionization_Penalty_Neutral>  (67) 
4.27281e-08

>  <r_epik_State_Penalty>  (67) 
-0

>  <r_epik_Charging_Adjusted_Penalty>  (67) 
0

>  <i_epik_Tot_Q>  (67) 
0

>  <i_epik_Tot_abs_Q>  (67) 
0

>  <s_lp_Force_Field>  (67) 
OPLS3e

>  <r_lp_Energy>  (67) 
126.721

>  <b_lp_Chiralities_Consistent>  (67) 
1

>  <s_lp_Variant>  (67) 
20:0-4

>  <s_i_glide_gridfile>  (67) 
pfpi4k_grid

>  <i_i_glide_lignum>  (67) 
1

>  <i_i_glide_rotatable_bonds>  (67) 
1

>  <r_i_docking_score>  (67) 
-1.61203

>  <r_i_glide_ligand_efficiency>  (67) 
-0.0435684

>  <r_i_glide_ligand_efficiency_sa>  (67) 
-0.14518

>  <r_i_glide_ligand_efficiency_ln>  (67) 
-0.349612

>  <r_i_glide_gscore>  (67) 
-1.61203

>  <r_i_glide_lipo>  (67) 
-0.0207141

>  <r_i_glide_hbond>  (67) 
0

>  <r_i_glide_metal>  (67) 
-0

>  <r_i_glide_rewards>  (67) 
0

>  <r_i_glide_evdw>  (67) 
-26.8424

>  <r_i_glide_ecoul>  (67) 
-1.66132

>  <r_i_glide_erotb>  (67) 
0

>  <r_i_glide_esite>  (67) 
0

>  <r_i_glide_emodel>  (67) 
-30.924

>  <r_i_glide_energy>  (67) 
-28.5037

>  <r_i_glide_einternal>  (67) 
0.327819

>  <r_i_glide_intrahb_reward>  (67) 
-0

>  <i_i_glide_confnum>  (67) 
2

>  <i_i_glide_posenum>  (67) 
1

>  <r_i_glide_eff_state_penalty>  (67) 
0

>  <ligand_id>  (67) 
20

>  <original_smiles>  (67) 
CC1C2CCC(C)(CC=CC3OC3C1O)C1(C)CCC3C4(C)OC4C4CC(C)(C)CC4C3(C)C13CC3O2

>  <smiles>  (67) 
[H]OC1([H])C2([H])OC2([H])C([H])=C([H])C([H])([H])C2(C([H])([H])[H])C([H])([H])C([H])([H])C([H])(OC3([H])C([H])([H])C34C3(C([H])([H])[H])C5([H])C([H])([H])C(C([H])([H])[H])(C([H])([H])[H])C([H])([H])C5([H])C5([H])OC5(C([H])([H])[H])C3([H])C([H])([H])C([H])([H])C24C([H])([H])[H])C1([H])C([H])([H])[H]

$$$$
20:3:2
     RDKit          3D

 87 94  0  0  1  0  0  0  0  0999 V2000
    0.9067   -1.7664    9.1336 C   0  0  0  0  0  0  0  0  0  0  0  0
    1.5148   -0.3902    8.7801 C   0  0  2  0  0  0  0  0  0  0  0  0
    1.3525   -0.0796    7.2602 C   0  0  1  0  0  0  0  0  0  0  0  0
    2.1535   -1.0817    6.3467 C   0  0  0  0  0  0  0  0  0  0  0  0
    2.2387   -0.9894    4.7823 C   0  0  0  0  0  0  0  0  0  0  0  0
    2.4252    0.3512    3.9755 C   0  0  2  0  0  0  0  0  0  0  0  0
    2.9709   -0.1789    2.6027 C   0  0  0  0  0  0  0  0  0  0  0  0
    3.7155    1.0677    4.5119 C   0  0  0  0  0  0  0  0  0  0  0  0
    3.6606    1.7032    5.8827 C   0  0  0  0  0  0  0  0  0  0  0  0
    4.3812    1.3452    6.9574 C   0  0  0  0  0  0  0  0  0  0  0  0
    4.1692    1.9521    8.2897 C   0  0  2  0  0  0  0  0  0  0  0  0
    4.8876    1.3455    9.3671 O   0  0  0  0  0  0  0  0  0  0  0  0
    3.4581    1.2095    9.3980 C   0  0  2  0  0  0  0  0  0  0  0  0
    2.9734   -0.2294    9.3227 C   0  0  1  0  0  0  0  0  0  0  0  0
    3.0342   -0.6927   10.6561 O   0  0  0  0  0  0  0  0  0  0  0  0
    1.0614    1.2368    3.6864 C   0  0  2  0  0  0  0  0  0  0  0  0
    0.2434    0.5083    2.5643 C   0  0  0  0  0  0  0  0  0  0  0  0
    1.3765    2.5767    2.9799 C   0  0  0  0  0  0  0  0  0  0  0  0
    1.8999    3.6978    3.8532 C   0  0  0  0  0  0  0  0  0  0  0  0
    0.9788    4.0547    5.0222 C   0  0  2  0  0  0  0  0  0  0  0  0
    1.6978    4.8223    6.1688 C   0  0  2  0  0  0  0  0  0  0  0  0
    2.6981    5.8740    5.7087 C   0  0  0  0  0  0  0  0  0  0  0  0
    2.0404    4.1329    7.3809 O   0  0  0  0  0  0  0  0  0  0  0  0
    0.9593    5.0747    7.4357 C   0  0  2  0  0  0  0  0  0  0  0  0
   -0.4424    4.5447    7.4846 C   0  0  2  0  0  0  0  0  0  0  0  0
   -1.1482    4.5858    8.8461 C   0  0  0  0  0  0  0  0  0  0  0  0
   -1.8339    3.2193    9.0236 C   0  0  0  0  0  0  0  0  0  0  0  0
   -1.0280    2.3738   10.0289 C   0  0  0  0  0  0  0  0  0  0  0  0
   -3.2820    3.3512    9.5302 C   0  0  0  0  0  0  0  0  0  0  0  0
   -1.7945    2.6034    7.6087 C   0  0  0  0  0  0  0  0  0  0  0  0
   -0.4845    3.1033    6.9531 C   0  0  1  0  0  0  0  0  0  0  0  0
   -0.1851    2.9972    5.3917 C   0  0  1  0  0  0  0  0  0  0  0  0
   -1.4424    3.5682    4.6309 C   0  0  0  0  0  0  0  0  0  0  0  0
    0.0599    1.4699    4.9037 C   0  0  1  0  0  0  0  0  0  0  0  0
   -1.3626    0.7878    4.9668 C   0  0  0  0  0  0  0  0  0  0  0  0
   -0.2664    0.1145    5.5981 C   0  0  2  0  0  0  0  0  0  0  0  0
   -0.0454    0.0412    6.9837 O   0  0  0  0  0  0  0  0  0  0  0  0
    1.5306   -2.5889    8.7853 H   0  0  0  0  0  0  0  0  0  0  0  0
   -0.0823   -1.8820    8.6951 H   0  0  0  0  0  0  0  0  0  0  0  0
    0.7915   -1.8822   10.2122 H   0  0  0  0  0  0  0  0  0  0  0  0
    0.9144    0.3401    9.3167 H   0  0  0  0  0  0  0  0  0  0  0  0
    1.7269    0.9217    7.1220 H   0  0  0  0  0  0  0  0  0  0  0  0
    3.1865   -1.0827    6.6823 H   0  0  0  0  0  0  0  0  0  0  0  0
    1.8070   -2.0904    6.5674 H   0  0  0  0  0  0  0  0  0  0  0  0
    3.1127   -1.6047    4.5670 H   0  0  0  0  0  0  0  0  0  0  0  0
    1.4651   -1.5923    4.3124 H   0  0  0  0  0  0  0  0  0  0  0  0
    3.1265    0.6103    1.8653 H   0  0  0  0  0  0  0  0  0  0  0  0
    2.3296   -0.9362    2.1486 H   0  0  0  0  0  0  0  0  0  0  0  0
    3.9391   -0.6727    2.7054 H   0  0  0  0  0  0  0  0  0  0  0  0
    4.5393    0.3521    4.5537 H   0  0  0  0  0  0  0  0  0  0  0  0
    4.0582    1.8124    3.7945 H   0  0  0  0  0  0  0  0  0  0  0  0
    2.9376    2.4838    6.0043 H   0  0  0  0  0  0  0  0  0  0  0  0
    5.0971    0.5366    6.9037 H   0  0  0  0  0  0  0  0  0  0  0  0
    4.1639    3.0387    8.3053 H   0  0  0  0  0  0  0  0  0  0  0  0
    2.9555    1.8291   10.1369 H   0  0  0  0  0  0  0  0  0  0  0  0
    3.6863   -0.8199    8.7503 H   0  0  0  0  0  0  0  0  0  0  0  0
    3.9326   -0.6312   10.9476 H   0  0  0  0  0  0  0  0  0  0  0  0
   -0.7042    1.0062    2.3490 H   0  0  0  0  0  0  0  0  0  0  0  0
    0.0255   -0.5294    2.8186 H   0  0  0  0  0  0  0  0  0  0  0  0
    0.7443    0.5013    1.5942 H   0  0  0  0  0  0  0  0  0  0  0  0
    2.0609    2.4458    2.1481 H   0  0  0  0  0  0  0  0  0  0  0  0
    0.4747    2.9463    2.4993 H   0  0  0  0  0  0  0  0  0  0  0  0
    2.9208    3.5447    4.1607 H   0  0  0  0  0  0  0  0  0  0  0  0
    1.9823    4.5747    3.2090 H   0  0  0  0  0  0  0  0  0  0  0  0
    0.4546    4.9020    4.5799 H   0  0  0  0  0  0  0  0  0  0  0  0
    2.2067    6.6008    5.0635 H   0  0  0  0  0  0  0  0  0  0  0  0
    3.5339    5.4306    5.1722 H   0  0  0  0  0  0  0  0  0  0  0  0
    3.1091    6.4082    6.5670 H   0  0  0  0  0  0  0  0  0  0  0  0
    1.1667    5.9924    7.9837 H   0  0  0  0  0  0  0  0  0  0  0  0
   -1.0208    5.1934    6.8318 H   0  0  0  0  0  0  0  0  0  0  0  0
   -0.4728    4.8196    9.6683 H   0  0  0  0  0  0  0  0  0  0  0  0
   -1.8948    5.3826    8.8233 H   0  0  0  0  0  0  0  0  0  0  0  0
   -1.3819    1.3447   10.0697 H   0  0  0  0  0  0  0  0  0  0  0  0
   -1.1115    2.7845   11.0357 H   0  0  0  0  0  0  0  0  0  0  0  0
    0.0327    2.3572    9.7794 H   0  0  0  0  0  0  0  0  0  0  0  0
   -3.7538    2.3760    9.6413 H   0  0  0  0  0  0  0  0  0  0  0  0
   -3.8987    3.9450    8.8544 H   0  0  0  0  0  0  0  0  0  0  0  0
   -3.3108    3.8315   10.5075 H   0  0  0  0  0  0  0  0  0  0  0  0
   -1.8482    1.5204    7.6833 H   0  0  0  0  0  0  0  0  0  0  0  0
   -2.6614    2.9438    7.0418 H   0  0  0  0  0  0  0  0  0  0  0  0
    0.2950    2.5426    7.4596 H   0  0  0  0  0  0  0  0  0  0  0  0
   -2.3878    3.0862    4.8630 H   0  0  0  0  0  0  0  0  0  0  0  0
   -1.3230    3.5075    3.5479 H   0  0  0  0  0  0  0  0  0  0  0  0
   -1.6217    4.6204    4.8531 H   0  0  0  0  0  0  0  0  0  0  0  0
   -2.1436    1.1150    5.6310 H   0  0  0  0  0  0  0  0  0  0  0  0
   -1.7765    0.3041    4.0902 H   0  0  0  0  0  0  0  0  0  0  0  0
   -0.2208   -0.8709    5.1568 H   0  0  0  0  0  0  0  0  0  0  0  0
  1  2  1  0
  1 38  1  0
  1 39  1  0
  1 40  1  0
  2 14  1  0
  2  3  1  0
  2 41  1  1
  3 37  1  0
  3  4  1  0
  3 42  1  1
  4  5  1  0
  4 43  1  0
  4 44  1  0
  5  6  1  0
  5 45  1  0
  5 46  1  0
  6  7  1  6
  6  8  1  0
  6 16  1  0
  7 47  1  0
  7 48  1  0
  7 49  1  0
  8  9  1  0
  8 50  1  0
  8 51  1  0
  9 10  2  3
  9 52  1  0
 10 11  1  0
 10 53  1  0
 11 13  1  0
 11 12  1  0
 11 54  1  6
 12 13  1  0
 13 14  1  0
 13 55  1  1
 14 15  1  0
 14 56  1  6
 15 57  1  0
 16 34  1  0
 16 17  1  6
 16 18  1  0
 17 58  1  0
 17 59  1  0
 17 60  1  0
 18 19  1  0
 18 61  1  0
 18 62  1  0
 19 20  1  0
 19 63  1  0
 19 64  1  0
 20 32  1  0
 20 21  1  0
 20 65  1  6
 21 24  1  0
 21 22  1  6
 21 23  1  0
 22 66  1  0
 22 67  1  0
 22 68  1  0
 23 24  1  0
 24 25  1  0
 24 69  1  1
 25 31  1  0
 25 26  1  0
 25 70  1  6
 26 27  1  0
 26 71  1  0
 26 72  1  0
 27 28  1  0
 27 29  1  0
 27 30  1  0
 28 73  1  0
 28 74  1  0
 28 75  1  0
 29 76  1  0
 29 77  1  0
 29 78  1  0
 30 31  1  0
 30 79  1  0
 30 80  1  0
 31 32  1  0
 31 81  1  1
 32 33  1  6
 32 34  1  0
 33 82  1  0
 33 83  1  0
 33 84  1  0
 34 36  1  0
 34 35  1  6
 35 36  1  0
 35 85  1  0
 35 86  1  0
 36 37  1  0
 36 87  1  6
M  END
>  <i_m_ct_stereo_status>  (68) 
1

>  <s_m_source_file>  (68) 
/var/tmp/pbs.5076255.sched01/tmpx9mnojvb/44r91_cmns.sdf

>  <i_m_source_file_index>  (68) 
1

>  <i_lp_mmshare_version>  (68) 
48012

>  <i_f3d_flags>  (68) 
0

>  <s_epik_input>  (68) 
W0NIMl0xL1tDSF09W0NIXVxbQ0BIXShPMilbQ0BIXTJbQ0BASF0oW09IXSlbQ0BIXShbQ0gzXSlbQ0BIXShPW0NASF0zW0NIMl00KVtDSDJdW0NIMl1bQ0BAXTEoW0NIM10pW0NAXShbQ0BdMzQ1KShbQ0gzXSlbQ0gyXVtDSDJdW0NAQEhdNltDQEBdNyhbQ0gzXSlbQ0BIXShPNylbQ0BIXThbQ0BIXShbQ0BdNTZbQ0gzXSlbQ0gyXUMoW0NIMl04KShbQ0gzXSlbQ0gzXQ==

>  <s_epik_cmdline>  (68) 
J2VwaWtfcHl0aG9uJywgJy1waHQnLCAnMi4wJywgJy1waCcsICc3LjAnLCAnLXRuJywgJzgnLCAnLW1hJywgJzIwMCcsICctaW1hZScsICc8aW5maWxlLm1hZT4nLCAnLW9tYWUnLCAnPG91dGZpbGUubWFlPic=

>  <r_lp_tautomer_probability>  (68) 
1

>  <r_epik_Ionization_Penalty>  (68) 
4.27281e-08

>  <r_epik_Ionization_Penalty_Charging>  (68) 
0

>  <r_epik_Ionization_Penalty_Neutral>  (68) 
4.27281e-08

>  <r_epik_State_Penalty>  (68) 
-0

>  <r_epik_Charging_Adjusted_Penalty>  (68) 
0

>  <i_epik_Tot_Q>  (68) 
0

>  <i_epik_Tot_abs_Q>  (68) 
0

>  <s_lp_Force_Field>  (68) 
OPLS3e

>  <r_lp_Energy>  (68) 
126.721

>  <b_lp_Chiralities_Consistent>  (68) 
1

>  <s_lp_Variant>  (68) 
20:0-4

>  <s_i_glide_gridfile>  (68) 
pfpi4k_grid

>  <i_i_glide_lignum>  (68) 
1

>  <i_i_glide_rotatable_bonds>  (68) 
1

>  <r_i_docking_score>  (68) 
-1.6057

>  <r_i_glide_ligand_efficiency>  (68) 
-0.0433973

>  <r_i_glide_ligand_efficiency_sa>  (68) 
-0.144609

>  <r_i_glide_ligand_efficiency_ln>  (68) 
-0.348238

>  <r_i_glide_gscore>  (68) 
-1.6057

>  <r_i_glide_lipo>  (68) 
-0.00576134

>  <r_i_glide_hbond>  (68) 
0

>  <r_i_glide_metal>  (68) 
-0

>  <r_i_glide_rewards>  (68) 
0

>  <r_i_glide_evdw>  (68) 
-27.8819

>  <r_i_glide_ecoul>  (68) 
-1.37228

>  <r_i_glide_erotb>  (68) 
0

>  <r_i_glide_esite>  (68) 
0

>  <r_i_glide_emodel>  (68) 
-31.6651

>  <r_i_glide_energy>  (68) 
-29.2542

>  <r_i_glide_einternal>  (68) 
0.323635

>  <r_i_glide_intrahb_reward>  (68) 
-0

>  <i_i_glide_confnum>  (68) 
1

>  <i_i_glide_posenum>  (68) 
6

>  <r_i_glide_eff_state_penalty>  (68) 
0

>  <ligand_id>  (68) 
20

>  <original_smiles>  (68) 
CC1C2CCC(C)(CC=CC3OC3C1O)C1(C)CCC3C4(C)OC4C4CC(C)(C)CC4C3(C)C13CC3O2

>  <smiles>  (68) 
[H]OC1([H])C2([H])OC2([H])C([H])=C([H])C([H])([H])C2(C([H])([H])[H])C([H])([H])C([H])([H])C([H])(OC3([H])C([H])([H])C34C3(C([H])([H])[H])C5([H])C([H])([H])C(C([H])([H])[H])(C([H])([H])[H])C([H])([H])C5([H])C5([H])OC5(C([H])([H])[H])C3([H])C([H])([H])C([H])([H])C24C([H])([H])[H])C1([H])C([H])([H])[H]

$$$$
21:0:0
     RDKit          3D

 28 30  0  0  1  0  0  0  0  0999 V2000
    2.4928   -9.9969    2.2275 C   0  0  0  0  0  0  0  0  0  0  0  0
    1.3123   -9.9792    3.2209 C   0  0  0  0  0  0  0  0  0  0  0  0
    0.6703  -11.3854    3.3271 C   0  0  0  0  0  0  0  0  0  0  0  0
    0.3389   -8.9232    2.8950 N   0  0  0  0  0  0  0  0  0  0  0  0
   -0.9605   -9.2430    2.6984 N   0  0  0  0  0  0  0  0  0  0  0  0
   -1.5278   -8.0684    2.4782 C   0  0  0  0  0  0  0  0  0  0  0  0
   -0.6917   -6.9920    2.4879 N   0  0  0  0  0  0  0  0  0  0  0  0
    0.4698   -7.5840    2.7751 C   0  0  0  0  0  0  0  0  0  0  0  0
    1.7122   -6.8220    2.8917 C   0  0  0  0  0  0  0  0  0  0  0  0
    2.4719   -6.8240    4.0411 C   0  0  0  0  0  0  0  0  0  0  0  0
    3.6354   -6.1129    4.2140 N   0  0  0  0  0  0  0  0  0  0  0  0
    4.0745   -5.3858    3.2275 C   0  0  0  0  0  0  0  0  0  0  0  0
    3.3805   -5.3085    1.9888 C   0  0  0  0  0  0  0  0  0  0  0  0
    3.5839   -4.6593    0.8516 N   0  0  0  0  0  0  0  0  0  0  0  0
    2.5241   -5.0271    0.0852 C   0  0  0  0  0  0  0  0  0  0  0  0
    1.6475   -5.8567    0.6358 N   0  0  0  0  0  0  0  0  0  0  0  0
    2.1969   -6.0558    1.8728 N   0  0  0  0  0  0  0  0  0  0  0  0
    3.2534  -10.7222    2.5245 H   0  0  0  0  0  0  0  0  0  0  0  0
    2.9908   -9.0326    2.1605 H   0  0  0  0  0  0  0  0  0  0  0  0
    2.1626  -10.2529    1.2215 H   0  0  0  0  0  0  0  0  0  0  0  0
    1.7083   -9.7444    4.2089 H   0  0  0  0  0  0  0  0  0  0  0  0
    1.3813  -12.1510    3.6442 H   0  0  0  0  0  0  0  0  0  0  0  0
    0.2389  -11.7037    2.3750 H   0  0  0  0  0  0  0  0  0  0  0  0
   -0.1338  -11.3908    4.0638 H   0  0  0  0  0  0  0  0  0  0  0  0
   -2.5877   -7.9978    2.2927 H   0  0  0  0  0  0  0  0  0  0  0  0
    2.1551   -7.3981    4.9034 H   0  0  0  0  0  0  0  0  0  0  0  0
    4.9862   -4.8140    3.3423 H   0  0  0  0  0  0  0  0  0  0  0  0
    2.3881   -4.6543   -0.9149 H   0  0  0  0  0  0  0  0  0  0  0  0
  1  2  1  0
  1 18  1  0
  1 19  1  0
  1 20  1  0
  2  3  1  0
  2  4  1  0
  2 21  1  0
  3 22  1  0
  3 23  1  0
  3 24  1  0
  4  8  1  0
  4  5  1  0
  5  6  2  0
  6  7  1  0
  6 25  1  0
  7  8  2  0
  8  9  1  0
  9 17  1  0
  9 10  2  0
 10 11  1  0
 10 26  1  0
 11 12  2  0
 12 13  1  0
 12 27  1  0
 13 17  1  0
 13 14  2  0
 14 15  1  0
 15 16  2  0
 15 28  1  0
 16 17  1  0
M  END
>  <i_m_ct_stereo_status>  (69) 
1

>  <s_m_source_file>  (69) 
/var/tmp/pbs.5076255.sched01/tmpx9mnojvb/44r91_cmns.sdf

>  <i_m_source_file_index>  (69) 
2

>  <i_lp_mmshare_version>  (69) 
48012

>  <i_f3d_flags>  (69) 
0

>  <s_epik_input>  (69) 
W0NIM11bQ0hdKFtDSDNdKW4xbltjSF1uYzEtYyhbY0hdbltjSF0yKW4oYzIzKW5bY0hdbjM=

>  <s_epik_cmdline>  (69) 
J2VwaWtfcHl0aG9uJywgJy1waHQnLCAnMi4wJywgJy1waCcsICc3LjAnLCAnLXRuJywgJzgnLCAnLW1hJywgJzIwMCcsICctaW1hZScsICc8aW5maWxlLm1hZT4nLCAnLW9tYWUnLCAnPG91dGZpbGUubWFlPic=

>  <r_lp_tautomer_probability>  (69) 
1

>  <r_epik_Ionization_Penalty>  (69) 
3.2773e-05

>  <r_epik_Ionization_Penalty_Charging>  (69) 
0

>  <r_epik_Ionization_Penalty_Neutral>  (69) 
3.2773e-05

>  <r_epik_State_Penalty>  (69) 
-0

>  <r_epik_Charging_Adjusted_Penalty>  (69) 
0

>  <i_epik_Tot_Q>  (69) 
0

>  <i_epik_Tot_abs_Q>  (69) 
0

>  <s_lp_Force_Field>  (69) 
OPLS3e

>  <r_lp_Energy>  (69) 
19.3182

>  <b_lp_Chiralities_Consistent>  (69) 
1

>  <s_lp_Variant>  (69) 
21:0-1

>  <s_i_glide_gridfile>  (69) 
pfpi4k_grid

>  <i_i_glide_lignum>  (69) 
2

>  <i_i_glide_rotatable_bonds>  (69) 
2

>  <r_i_docking_score>  (69) 
-3.96047

>  <r_i_glide_ligand_efficiency>  (69) 
-0.232969

>  <r_i_glide_ligand_efficiency_sa>  (69) 
-0.599028

>  <r_i_glide_ligand_efficiency_ln>  (69) 
-1.0332

>  <r_i_glide_gscore>  (69) 
-3.96047

>  <r_i_glide_lipo>  (69) 
-0.198386

>  <r_i_glide_hbond>  (69) 
-0.279614

>  <r_i_glide_metal>  (69) 
-0

>  <r_i_glide_rewards>  (69) 
-1.85069

>  <r_i_glide_evdw>  (69) 
-19.5133

>  <r_i_glide_ecoul>  (69) 
-5.47217

>  <r_i_glide_erotb>  (69) 
0.324608

>  <r_i_glide_esite>  (69) 
-0.159894

>  <r_i_glide_emodel>  (69) 
-30.318

>  <r_i_glide_energy>  (69) 
-24.9855

>  <r_i_glide_einternal>  (69) 
3.22428

>  <r_i_glide_intrahb_reward>  (69) 
-0

>  <i_i_glide_confnum>  (69) 
4

>  <i_i_glide_posenum>  (69) 
1

>  <r_i_glide_eff_state_penalty>  (69) 
0

>  <ligand_id>  (69) 
21

>  <original_smiles>  (69) 
CC(C)n1ncnc1-c1cncc2ncnn12

>  <smiles>  (69) 
[H]c1nc(-c2c([H])nc([H])c3nc([H])nn23)n(C([H])(C([H])([H])[H])C([H])([H])[H])n1

$$$$
21:0:1
     RDKit          3D

 28 30  0  0  1  0  0  0  0  0999 V2000
    6.1507   -6.8378    2.0565 C   0  0  0  0  0  0  0  0  0  0  0  0
    4.8339   -7.6519    1.9576 C   0  0  0  0  0  0  0  0  0  0  0  0
    5.0432   -8.8840    1.0336 C   0  0  0  0  0  0  0  0  0  0  0  0
    3.6984   -6.8306    1.4994 N   0  0  0  0  0  0  0  0  0  0  0  0
    3.9542   -5.6568    0.8554 N   0  0  0  0  0  0  0  0  0  0  0  0
    2.7534   -5.2238    0.5319 C   0  0  0  0  0  0  0  0  0  0  0  0
    1.7227   -6.0182    0.9216 N   0  0  0  0  0  0  0  0  0  0  0  0
    2.3591   -7.0276    1.5455 C   0  0  0  0  0  0  0  0  0  0  0  0
    1.6497   -8.1922    2.1583 C   0  0  0  0  0  0  0  0  0  0  0  0
    2.2422   -9.3510    2.5874 C   0  0  0  0  0  0  0  0  0  0  0  0
    1.5845  -10.4587    3.0762 N   0  0  0  0  0  0  0  0  0  0  0  0
    0.3169  -10.4099    3.2458 C   0  0  0  0  0  0  0  0  0  0  0  0
   -0.4395   -9.2218    2.9334 C   0  0  0  0  0  0  0  0  0  0  0  0
   -1.7085   -8.8993    3.0651 N   0  0  0  0  0  0  0  0  0  0  0  0
   -1.7277   -7.6328    2.6142 C   0  0  0  0  0  0  0  0  0  0  0  0
   -0.5859   -7.1022    2.2028 N   0  0  0  0  0  0  0  0  0  0  0  0
    0.2826   -8.1418    2.3836 N   0  0  0  0  0  0  0  0  0  0  0  0
    6.9594   -7.4340    2.4862 H   0  0  0  0  0  0  0  0  0  0  0  0
    6.0418   -5.9366    2.6706 H   0  0  0  0  0  0  0  0  0  0  0  0
    6.4754   -6.5201    1.0644 H   0  0  0  0  0  0  0  0  0  0  0  0
    4.6117   -7.9286    2.9963 H   0  0  0  0  0  0  0  0  0  0  0  0
    5.7690   -9.5618    1.4838 H   0  0  0  0  0  0  0  0  0  0  0  0
    5.3889   -8.5650    0.0581 H   0  0  0  0  0  0  0  0  0  0  0  0
    4.1465   -9.4622    0.8184 H   0  0  0  0  0  0  0  0  0  0  0  0
    2.6042   -4.2972   -0.0092 H   0  0  0  0  0  0  0  0  0  0  0  0
    3.3009   -9.5186    2.6242 H   0  0  0  0  0  0  0  0  0  0  0  0
   -0.1916  -11.2708    3.7021 H   0  0  0  0  0  0  0  0  0  0  0  0
   -2.6172   -7.0651    2.5563 H   0  0  0  0  0  0  0  0  0  0  0  0
  1  2  1  0
  1 18  1  0
  1 19  1  0
  1 20  1  0
  2  3  1  0
  2  4  1  0
  2 21  1  0
  3 22  1  0
  3 23  1  0
  3 24  1  0
  4  8  1  0
  4  5  1  0
  5  6  2  0
  6  7  1  0
  6 25  1  0
  7  8  2  0
  8  9  1  0
  9 17  1  0
  9 10  2  0
 10 11  1  0
 10 26  1  0
 11 12  2  0
 12 13  1  0
 12 27  1  0
 13 17  1  0
 13 14  2  0
 14 15  1  0
 15 16  2  0
 15 28  1  0
 16 17  1  0
M  END
>  <i_m_ct_stereo_status>  (70) 
1

>  <s_m_source_file>  (70) 
/var/tmp/pbs.5076255.sched01/tmpx9mnojvb/44r91_cmns.sdf

>  <i_m_source_file_index>  (70) 
2

>  <i_lp_mmshare_version>  (70) 
48012

>  <i_f3d_flags>  (70) 
0

>  <s_epik_input>  (70) 
W0NIM11bQ0hdKFtDSDNdKW4xbltjSF1uYzEtYyhbY0hdbltjSF0yKW4oYzIzKW5bY0hdbjM=

>  <s_epik_cmdline>  (70) 
J2VwaWtfcHl0aG9uJywgJy1waHQnLCAnMi4wJywgJy1waCcsICc3LjAnLCAnLXRuJywgJzgnLCAnLW1hJywgJzIwMCcsICctaW1hZScsICc8aW5maWxlLm1hZT4nLCAnLW9tYWUnLCAnPG91dGZpbGUubWFlPic=

>  <r_lp_tautomer_probability>  (70) 
1

>  <r_epik_Ionization_Penalty>  (70) 
3.2773e-05

>  <r_epik_Ionization_Penalty_Charging>  (70) 
0

>  <r_epik_Ionization_Penalty_Neutral>  (70) 
3.2773e-05

>  <r_epik_State_Penalty>  (70) 
-0

>  <r_epik_Charging_Adjusted_Penalty>  (70) 
0

>  <i_epik_Tot_Q>  (70) 
0

>  <i_epik_Tot_abs_Q>  (70) 
0

>  <s_lp_Force_Field>  (70) 
OPLS3e

>  <r_lp_Energy>  (70) 
19.3182

>  <b_lp_Chiralities_Consistent>  (70) 
1

>  <s_lp_Variant>  (70) 
21:0-1

>  <s_i_glide_gridfile>  (70) 
pfpi4k_grid

>  <i_i_glide_lignum>  (70) 
2

>  <i_i_glide_rotatable_bonds>  (70) 
2

>  <r_i_docking_score>  (70) 
-3.7

>  <r_i_glide_ligand_efficiency>  (70) 
-0.217647

>  <r_i_glide_ligand_efficiency_sa>  (70) 
-0.559632

>  <r_i_glide_ligand_efficiency_ln>  (70) 
-0.965247

>  <r_i_glide_gscore>  (70) 
-3.7

>  <r_i_glide_lipo>  (70) 
-0.110648

>  <r_i_glide_hbond>  (70) 
-0.188375

>  <r_i_glide_metal>  (70) 
-0

>  <r_i_glide_rewards>  (70) 
-1.93071

>  <r_i_glide_evdw>  (70) 
-21.8482

>  <r_i_glide_ecoul>  (70) 
-3.55029

>  <r_i_glide_erotb>  (70) 
0.324608

>  <r_i_glide_esite>  (70) 
-0.169918

>  <r_i_glide_emodel>  (70) 
-30.1983

>  <r_i_glide_energy>  (70) 
-25.3985

>  <r_i_glide_einternal>  (70) 
2.10993

>  <r_i_glide_intrahb_reward>  (70) 
-0

>  <i_i_glide_confnum>  (70) 
3

>  <i_i_glide_posenum>  (70) 
2

>  <r_i_glide_eff_state_penalty>  (70) 
0

>  <ligand_id>  (70) 
21

>  <original_smiles>  (70) 
CC(C)n1ncnc1-c1cncc2ncnn12

>  <smiles>  (70) 
[H]c1nc(-c2c([H])nc([H])c3nc([H])nn23)n(C([H])(C([H])([H])[H])C([H])([H])[H])n1

$$$$
21:0:2
     RDKit          3D

 28 30  0  0  1  0  0  0  0  0999 V2000
    0.8224  -11.4582    3.7290 C   0  0  0  0  0  0  0  0  0  0  0  0
    1.2893  -10.0111    4.0091 C   0  0  0  0  0  0  0  0  0  0  0  0
    1.2559   -9.6664    5.5053 C   0  0  0  0  0  0  0  0  0  0  0  0
    0.5170   -9.0413    3.2191 N   0  0  0  0  0  0  0  0  0  0  0  0
   -0.8260   -8.9544    3.4241 N   0  0  0  0  0  0  0  0  0  0  0  0
   -1.1947   -7.9795    2.6092 C   0  0  0  0  0  0  0  0  0  0  0  0
   -0.1934   -7.4142    1.8868 N   0  0  0  0  0  0  0  0  0  0  0  0
    0.8729   -8.1248    2.2853 C   0  0  0  0  0  0  0  0  0  0  0  0
    2.2394   -7.8424    1.7886 C   0  0  0  0  0  0  0  0  0  0  0  0
    3.2278   -8.8064    1.6729 C   0  0  0  0  0  0  0  0  0  0  0  0
    4.5134   -8.5715    1.2537 N   0  0  0  0  0  0  0  0  0  0  0  0
    4.8465   -7.3619    0.8863 C   0  0  0  0  0  0  0  0  0  0  0  0
    3.9146   -6.2990    0.8954 C   0  0  0  0  0  0  0  0  0  0  0  0
    3.9734   -5.0148    0.5401 N   0  0  0  0  0  0  0  0  0  0  0  0
    2.7201   -4.5681    0.8031 C   0  0  0  0  0  0  0  0  0  0  0  0
    1.8642   -5.4541    1.3022 N   0  0  0  0  0  0  0  0  0  0  0  0
    2.6213   -6.5873    1.3658 N   0  0  0  0  0  0  0  0  0  0  0  0
    1.4798  -12.1832    4.2146 H   0  0  0  0  0  0  0  0  0  0  0  0
    0.8282  -11.6733    2.6569 H   0  0  0  0  0  0  0  0  0  0  0  0
   -0.1814  -11.6353    4.0916 H   0  0  0  0  0  0  0  0  0  0  0  0
    2.3465   -9.9582    3.7722 H   0  0  0  0  0  0  0  0  0  0  0  0
    1.9287  -10.3333    6.0462 H   0  0  0  0  0  0  0  0  0  0  0  0
    0.2556   -9.7499    5.9389 H   0  0  0  0  0  0  0  0  0  0  0  0
    1.6228   -8.6490    5.6444 H   0  0  0  0  0  0  0  0  0  0  0  0
   -2.2212   -7.6426    2.5701 H   0  0  0  0  0  0  0  0  0  0  0  0
    3.0360   -9.8566    1.8839 H   0  0  0  0  0  0  0  0  0  0  0  0
    5.8547   -7.1709    0.5437 H   0  0  0  0  0  0  0  0  0  0  0  0
    2.4331   -3.5385    0.6295 H   0  0  0  0  0  0  0  0  0  0  0  0
  1  2  1  0
  1 18  1  0
  1 19  1  0
  1 20  1  0
  2  3  1  0
  2  4  1  0
  2 21  1  0
  3 22  1  0
  3 23  1  0
  3 24  1  0
  4  8  1  0
  4  5  1  0
  5  6  2  0
  6  7  1  0
  6 25  1  0
  7  8  2  0
  8  9  1  0
  9 17  1  0
  9 10  2  0
 10 11  1  0
 10 26  1  0
 11 12  2  0
 12 13  1  0
 12 27  1  0
 13 17  1  0
 13 14  2  0
 14 15  1  0
 15 16  2  0
 15 28  1  0
 16 17  1  0
M  END
>  <i_m_ct_stereo_status>  (71) 
1

>  <s_m_source_file>  (71) 
/var/tmp/pbs.5076255.sched01/tmpx9mnojvb/44r91_cmns.sdf

>  <i_m_source_file_index>  (71) 
2

>  <i_lp_mmshare_version>  (71) 
48012

>  <i_f3d_flags>  (71) 
0

>  <s_epik_input>  (71) 
W0NIM11bQ0hdKFtDSDNdKW4xbltjSF1uYzEtYyhbY0hdbltjSF0yKW4oYzIzKW5bY0hdbjM=

>  <s_epik_cmdline>  (71) 
J2VwaWtfcHl0aG9uJywgJy1waHQnLCAnMi4wJywgJy1waCcsICc3LjAnLCAnLXRuJywgJzgnLCAnLW1hJywgJzIwMCcsICctaW1hZScsICc8aW5maWxlLm1hZT4nLCAnLW9tYWUnLCAnPG91dGZpbGUubWFlPic=

>  <r_lp_tautomer_probability>  (71) 
1

>  <r_epik_Ionization_Penalty>  (71) 
3.2773e-05

>  <r_epik_Ionization_Penalty_Charging>  (71) 
0

>  <r_epik_Ionization_Penalty_Neutral>  (71) 
3.2773e-05

>  <r_epik_State_Penalty>  (71) 
-0

>  <r_epik_Charging_Adjusted_Penalty>  (71) 
0

>  <i_epik_Tot_Q>  (71) 
0

>  <i_epik_Tot_abs_Q>  (71) 
0

>  <s_lp_Force_Field>  (71) 
OPLS3e

>  <r_lp_Energy>  (71) 
19.3182

>  <b_lp_Chiralities_Consistent>  (71) 
1

>  <s_lp_Variant>  (71) 
21:0-1

>  <s_i_glide_gridfile>  (71) 
pfpi4k_grid

>  <i_i_glide_lignum>  (71) 
2

>  <i_i_glide_rotatable_bonds>  (71) 
2

>  <r_i_docking_score>  (71) 
-3.43932

>  <r_i_glide_ligand_efficiency>  (71) 
-0.202313

>  <r_i_glide_ligand_efficiency_sa>  (71) 
-0.520204

>  <r_i_glide_ligand_efficiency_ln>  (71) 
-0.897242

>  <r_i_glide_gscore>  (71) 
-3.43932

>  <r_i_glide_lipo>  (71) 
-0.178504

>  <r_i_glide_hbond>  (71) 
-0.0643555

>  <r_i_glide_metal>  (71) 
-0

>  <r_i_glide_rewards>  (71) 
-1.95642

>  <r_i_glide_evdw>  (71) 
-23.2375

>  <r_i_glide_ecoul>  (71) 
-1.78035

>  <r_i_glide_erotb>  (71) 
0.324608

>  <r_i_glide_esite>  (71) 
-0.135723

>  <r_i_glide_emodel>  (71) 
-30.6403

>  <r_i_glide_energy>  (71) 
-25.0179

>  <r_i_glide_einternal>  (71) 
0.104394

>  <r_i_glide_intrahb_reward>  (71) 
-0

>  <i_i_glide_confnum>  (71) 
4

>  <i_i_glide_posenum>  (71) 
12

>  <r_i_glide_eff_state_penalty>  (71) 
0

>  <ligand_id>  (71) 
21

>  <original_smiles>  (71) 
CC(C)n1ncnc1-c1cncc2ncnn12

>  <smiles>  (71) 
[H]c1nc(-c2c([H])nc([H])c3nc([H])nn23)n(C([H])(C([H])([H])[H])C([H])([H])[H])n1

$$$$
22:0:0
     RDKit          3D

 85 89  0  0  1  0  0  0  0  0999 V2000
    6.9781   -7.4895    4.6372 C   0  0  0  0  0  0  0  0  0  0  0  0
    5.5754   -7.6723    5.2705 C   0  0  2  0  0  0  0  0  0  0  0  0
    5.4046   -9.2234    5.3588 C   0  0  0  0  0  0  0  0  0  0  0  0
    4.0458   -9.8600    5.7287 C   0  0  0  0  0  0  0  0  0  0  0  0
    3.0192  -10.0143    4.5774 C   0  0  1  0  0  0  0  0  0  0  0  0
    3.6148  -10.8859    3.4369 C   0  0  0  0  0  0  0  0  0  0  0  0
    1.8048  -10.7656    5.1548 C   0  0  0  0  0  0  0  0  0  0  0  0
    0.6188  -10.8659    4.1940 C   0  0  0  0  0  0  0  0  0  0  0  0
    0.1329   -9.4870    3.6706 C   0  0  0  0  0  0  0  0  0  0  0  0
   -0.9016   -9.6879    2.5494 C   0  0  0  0  0  0  0  0  0  0  0  0
   -0.5370   -8.6310    4.7771 C   0  0  0  0  0  0  0  0  0  0  0  0
    1.3536   -8.7520    3.0783 C   0  0  0  0  0  0  0  0  0  0  0  0
    2.5123   -8.6308    4.0961 C   0  0  2  0  0  0  0  0  0  0  0  0
    3.6408   -7.7031    3.6236 C   0  0  0  0  0  0  0  0  0  0  0  0
    4.0112   -7.7195    2.3322 C   0  0  0  0  0  0  0  0  0  0  0  0
    5.1288   -6.8951    1.8852 C   0  0  0  0  0  0  0  0  0  0  0  0
    5.8470   -7.2500    0.9583 O   0  0  0  0  0  0  0  0  0  0  0  0
    5.4313   -5.5550    2.5666 C   0  0  1  0  0  0  0  0  0  0  0  0
    5.2857   -4.3542    1.5201 C   0  0  2  0  0  0  0  0  0  0  0  0
    4.1517   -4.6192    0.4756 C   0  0  0  0  0  0  0  0  0  0  0  0
    6.6394   -4.2181    0.7641 C   0  0  0  0  0  0  0  0  0  0  0  0
    6.7545   -2.9938   -0.1478 C   0  0  1  0  0  0  0  0  0  0  0  0
    6.0094   -3.0434   -1.4159 C   0  0  0  0  0  0  0  0  0  0  0  0
    5.4337   -3.0803   -2.4170 N   0  0  0  0  0  0  0  0  0  0  0  0
    6.4320   -1.7285    0.6274 C   0  0  0  0  0  0  0  0  0  0  0  0
    7.1484   -0.7488    0.4850 O   0  0  0  0  0  0  0  0  0  0  0  0
    5.1906   -1.6551    1.5276 C   0  0  0  0  0  0  0  0  0  0  0  0
    5.3921   -0.5434    2.5941 C   0  0  0  0  0  0  0  0  0  0  0  0
    4.0137   -1.1795    0.6353 C   0  0  0  0  0  0  0  0  0  0  0  0
    5.0267   -3.0216    2.2816 C   0  0  1  0  0  0  0  0  0  0  0  0
    3.7607   -3.1179    3.1585 C   0  0  0  0  0  0  0  0  0  0  0  0
    3.4790   -4.5241    3.7365 C   0  0  0  0  0  0  0  0  0  0  0  0
    4.7474   -5.4034    3.9918 C   0  0  2  0  0  0  0  0  0  0  0  0
    5.6417   -4.6095    4.9905 C   0  0  0  0  0  0  0  0  0  0  0  0
    4.3671   -6.8207    4.6655 C   0  0  2  0  0  0  0  0  0  0  0  0
    3.4525   -6.4743    5.8890 C   0  0  0  0  0  0  0  0  0  0  0  0
    7.0209   -7.8653    3.6154 H   0  0  0  0  0  0  0  0  0  0  0  0
    7.7237   -8.0567    5.1963 H   0  0  0  0  0  0  0  0  0  0  0  0
    7.3446   -6.4687    4.6340 H   0  0  0  0  0  0  0  0  0  0  0  0
    5.6955   -7.3410    6.3048 H   0  0  0  0  0  0  0  0  0  0  0  0
    5.7780   -9.6914    4.4482 H   0  0  0  0  0  0  0  0  0  0  0  0
    6.1019   -9.5649    6.1245 H   0  0  0  0  0  0  0  0  0  0  0  0
    4.2580  -10.8655    6.0974 H   0  0  0  0  0  0  0  0  0  0  0  0
    3.6026   -9.3632    6.5880 H   0  0  0  0  0  0  0  0  0  0  0  0
    2.8822  -11.1412    2.6748 H   0  0  0  0  0  0  0  0  0  0  0  0
    3.9936  -11.8387    3.8162 H   0  0  0  0  0  0  0  0  0  0  0  0
    4.4264  -10.3944    2.9004 H   0  0  0  0  0  0  0  0  0  0  0  0
    2.1041  -11.7708    5.4445 H   0  0  0  0  0  0  0  0  0  0  0  0
    1.4783  -10.2845    6.0743 H   0  0  0  0  0  0  0  0  0  0  0  0
    0.8783  -11.5069    3.3517 H   0  0  0  0  0  0  0  0  0  0  0  0
   -0.1504  -11.3934    4.7446 H   0  0  0  0  0  0  0  0  0  0  0  0
   -1.2512   -8.7474    2.1166 H   0  0  0  0  0  0  0  0  0  0  0  0
   -1.7766  -10.2130    2.9220 H   0  0  0  0  0  0  0  0  0  0  0  0
   -0.5054  -10.3117    1.7529 H   0  0  0  0  0  0  0  0  0  0  0  0
   -0.7528   -7.6147    4.4419 H   0  0  0  0  0  0  0  0  0  0  0  0
    0.0591   -8.5527    5.6832 H   0  0  0  0  0  0  0  0  0  0  0  0
   -1.4926   -9.0583    5.1012 H   0  0  0  0  0  0  0  0  0  0  0  0
    1.6762   -9.3005    2.1960 H   0  0  0  0  0  0  0  0  0  0  0  0
    1.0532   -7.7650    2.7201 H   0  0  0  0  0  0  0  0  0  0  0  0
    2.0491   -8.1770    4.9564 H   0  0  0  0  0  0  0  0  0  0  0  0
    3.5608   -8.3816    1.6072 H   0  0  0  0  0  0  0  0  0  0  0  0
    6.5004   -5.6262    2.7669 H   0  0  0  0  0  0  0  0  0  0  0  0
    3.8503   -3.7406   -0.0779 H   0  0  0  0  0  0  0  0  0  0  0  0
    3.2424   -5.0063    0.9266 H   0  0  0  0  0  0  0  0  0  0  0  0
    4.4619   -5.3404   -0.2833 H   0  0  0  0  0  0  0  0  0  0  0  0
    7.4490   -4.1358    1.4966 H   0  0  0  0  0  0  0  0  0  0  0  0
    6.8656   -5.1028    0.1663 H   0  0  0  0  0  0  0  0  0  0  0  0
    7.7957   -2.9071   -0.4571 H   0  0  0  0  0  0  0  0  0  0  0  0
    4.5038   -0.3879    3.2091 H   0  0  0  0  0  0  0  0  0  0  0  0
    5.6203    0.4171    2.1417 H   0  0  0  0  0  0  0  0  0  0  0  0
    6.2202   -0.7609    3.2634 H   0  0  0  0  0  0  0  0  0  0  0  0
    3.0380   -1.2876    1.1061 H   0  0  0  0  0  0  0  0  0  0  0  0
    3.9707   -1.6757   -0.3288 H   0  0  0  0  0  0  0  0  0  0  0  0
    4.1148   -0.1188    0.3892 H   0  0  0  0  0  0  0  0  0  0  0  0
    5.8563   -2.9703    2.9854 H   0  0  0  0  0  0  0  0  0  0  0  0
    3.9052   -2.4440    3.9959 H   0  0  0  0  0  0  0  0  0  0  0  0
    2.8681   -2.7541    2.6451 H   0  0  0  0  0  0  0  0  0  0  0  0
    2.8899   -4.3515    4.6382 H   0  0  0  0  0  0  0  0  0  0  0  0
    2.8250   -5.0475    3.0488 H   0  0  0  0  0  0  0  0  0  0  0  0
    5.1525   -3.7191    5.3848 H   0  0  0  0  0  0  0  0  0  0  0  0
    6.5810   -4.3077    4.5354 H   0  0  0  0  0  0  0  0  0  0  0  0
    5.9498   -5.1743    5.8635 H   0  0  0  0  0  0  0  0  0  0  0  0
    3.8432   -5.6599    6.4978 H   0  0  0  0  0  0  0  0  0  0  0  0
    3.3199   -7.2997    6.5835 H   0  0  0  0  0  0  0  0  0  0  0  0
    2.4489   -6.1756    5.5917 H   0  0  0  0  0  0  0  0  0  0  0  0
  1  2  1  0
  1 37  1  0
  1 38  1  0
  1 39  1  0
  2 35  1  0
  2  3  1  0
  2 40  1  1
  3  4  1  0
  3 41  1  0
  3 42  1  0
  4  5  1  0
  4 43  1  0
  4 44  1  0
  5 13  1  0
  5  6  1  6
  5  7  1  0
  6 45  1  0
  6 46  1  0
  6 47  1  0
  7  8  1  0
  7 48  1  0
  7 49  1  0
  8  9  1  0
  8 50  1  0
  8 51  1  0
  9 10  1  0
  9 11  1  0
  9 12  1  0
 10 52  1  0
 10 53  1  0
 10 54  1  0
 11 55  1  0
 11 56  1  0
 11 57  1  0
 12 13  1  0
 12 58  1  0
 12 59  1  0
 13 14  1  0
 13 60  1  1
 14 35  1  0
 14 15  2  0
 15 16  1  0
 15 61  1  0
 16 17  2  0
 16 18  1  0
 18 33  1  0
 18 19  1  0
 18 62  1  1
 19 30  1  0
 19 20  1  6
 19 21  1  0
 20 63  1  0
 20 64  1  0
 20 65  1  0
 21 22  1  0
 21 66  1  0
 21 67  1  0
 22 23  1  0
 22 25  1  0
 22 68  1  6
 23 24  3  0
 25 26  2  0
 25 27  1  0
 27 28  1  0
 27 29  1  0
 27 30  1  0
 28 69  1  0
 28 70  1  0
 28 71  1  0
 29 72  1  0
 29 73  1  0
 29 74  1  0
 30 31  1  0
 30 75  1  1
 31 32  1  0
 31 76  1  0
 31 77  1  0
 32 33  1  0
 32 78  1  0
 32 79  1  0
 33 34  1  1
 33 35  1  0
 34 80  1  0
 34 81  1  0
 34 82  1  0
 35 36  1  1
 36 83  1  0
 36 84  1  0
 36 85  1  0
M  END
>  <i_m_ct_stereo_status>  (72) 
1

>  <s_m_source_file>  (72) 
/var/tmp/pbs.5076255.sched01/tmpx9mnojvb/44r91_cmns.sdf

>  <i_m_source_file_index>  (72) 
3

>  <i_lp_mmshare_version>  (72) 
48012

>  <i_f3d_flags>  (72) 
0

>  <s_epik_input>  (72) 
W0NIMl0xW0NIMl1DKFtDSDNdKShbQ0gzXSlbQ0gyXVtDQEBIXShbQ0BdMTJbQ0gzXSlDPTNbQ0BAXShbQ0gzXSkoW0NASF0oW0NIM10pW0NIMl1bQ0gyXTIpW0NAQF00KFtDSDNdKVtDQEBIXShDKD1PKVtDSF0zKVtDQEBdNShbQ0gzXSlbQ0BIXShbQ0gyXVtDSDJdNClDKFtDSDNdKShbQ0gzXSlDKD1PKVtDQEBIXShbQ0gyXTUpQyNO

>  <s_epik_cmdline>  (72) 
J2VwaWtfcHl0aG9uJywgJy1waHQnLCAnMi4wJywgJy1waCcsICc3LjAnLCAnLXRuJywgJzgnLCAnLW1hJywgJzIwMCcsICctaW1hZScsICc8aW5maWxlLm1hZT4nLCAnLW9tYWUnLCAnPG91dGZpbGUubWFlPic=

>  <r_lp_tautomer_probability>  (72) 
1

>  <r_epik_Ionization_Penalty>  (72) 
7.20141e-11

>  <r_epik_Ionization_Penalty_Charging>  (72) 
0

>  <r_epik_Ionization_Penalty_Neutral>  (72) 
7.20141e-11

>  <r_epik_State_Penalty>  (72) 
-0

>  <r_epik_Charging_Adjusted_Penalty>  (72) 
0

>  <i_epik_Tot_Q>  (72) 
0

>  <i_epik_Tot_abs_Q>  (72) 
0

>  <s_lp_Force_Field>  (72) 
OPLS3e

>  <r_lp_Energy>  (72) 
109.935

>  <b_lp_Chiralities_Consistent>  (72) 
1

>  <s_lp_Variant>  (72) 
22:0-1

>  <s_i_glide_gridfile>  (72) 
pfpi4k_grid

>  <i_i_glide_lignum>  (72) 
3

>  <i_i_glide_rotatable_bonds>  (72) 
1

>  <r_i_docking_score>  (72) 
-2.1946

>  <r_i_glide_ligand_efficiency>  (72) 
-0.060961

>  <r_i_glide_ligand_efficiency_sa>  (72) 
-0.201289

>  <r_i_glide_ligand_efficiency_ln>  (72) 
-0.478802

>  <r_i_glide_gscore>  (72) 
-2.1946

>  <r_i_glide_lipo>  (72) 
-0.605891

>  <r_i_glide_hbond>  (72) 
-0.0178274

>  <r_i_glide_metal>  (72) 
-0

>  <r_i_glide_rewards>  (72) 
-0.286015

>  <r_i_glide_evdw>  (72) 
-26.2722

>  <r_i_glide_ecoul>  (72) 
0.191644

>  <r_i_glide_erotb>  (72) 
0

>  <r_i_glide_esite>  (72) 
0

>  <r_i_glide_emodel>  (72) 
-29.5212

>  <r_i_glide_energy>  (72) 
-26.0806

>  <r_i_glide_einternal>  (72) 
-0.188386

>  <r_i_glide_intrahb_reward>  (72) 
-0

>  <i_i_glide_confnum>  (72) 
1

>  <i_i_glide_posenum>  (72) 
20

>  <r_i_glide_eff_state_penalty>  (72) 
0

>  <ligand_id>  (72) 
22

>  <original_smiles>  (72) 
CC1CCC2(C)CCC(C)(C)CC2C2=CC(=O)C3C4(C)CC(C#N)C(=O)C(C)(C)C4CCC3(C)C21C

>  <smiles>  (72) 
[H]C1=C2C3([H])C([H])([H])C(C([H])([H])[H])(C([H])([H])[H])C([H])([H])C([H])([H])C3(C([H])([H])[H])C([H])([H])C([H])([H])C([H])(C([H])([H])[H])C2(C([H])([H])[H])C2(C([H])([H])[H])C([H])([H])C([H])([H])C3([H])C(C([H])([H])[H])(C([H])([H])[H])C(=O)C([H])(C#N)C([H])([H])C3(C([H])([H])[H])C2([H])C1=O

$$$$
22:0:1
     RDKit          3D

 85 89  0  0  1  0  0  0  0  0999 V2000
    4.8400   -2.2824    2.7919 C   0  0  0  0  0  0  0  0  0  0  0  0
    4.8295   -3.7720    3.2283 C   0  0  2  0  0  0  0  0  0  0  0  0
    4.6981   -4.5646    1.8857 C   0  0  0  0  0  0  0  0  0  0  0  0
    4.4374   -6.0899    1.8700 C   0  0  0  0  0  0  0  0  0  0  0  0
    2.9649   -6.5527    2.0447 C   0  0  1  0  0  0  0  0  0  0  0  0
    2.0805   -5.9299    0.9289 C   0  0  0  0  0  0  0  0  0  0  0  0
    2.9468   -8.0994    1.8945 C   0  0  0  0  0  0  0  0  0  0  0  0
    1.5906   -8.7548    2.2183 C   0  0  0  0  0  0  0  0  0  0  0  0
    1.0387   -8.3690    3.6094 C   0  0  0  0  0  0  0  0  0  0  0  0
   -0.4180   -8.8607    3.7241 C   0  0  0  0  0  0  0  0  0  0  0  0
    1.8596   -9.0453    4.7362 C   0  0  0  0  0  0  0  0  0  0  0  0
    1.0567   -6.8261    3.7387 C   0  0  0  0  0  0  0  0  0  0  0  0
    2.4531   -6.2180    3.4738 C   0  0  2  0  0  0  0  0  0  0  0  0
    2.5593   -4.7254    3.8472 C   0  0  0  0  0  0  0  0  0  0  0  0
    1.5392   -3.8863    3.5880 C   0  0  0  0  0  0  0  0  0  0  0  0
    1.6464   -2.4517    3.8392 C   0  0  0  0  0  0  0  0  0  0  0  0
    1.0465   -1.6325    3.1463 O   0  0  0  0  0  0  0  0  0  0  0  0
    2.5087   -1.9542    5.0124 C   0  0  1  0  0  0  0  0  0  0  0  0
    1.6167   -1.1866    6.1002 C   0  0  2  0  0  0  0  0  0  0  0  0
    0.1919   -1.8186    6.2210 C   0  0  0  0  0  0  0  0  0  0  0  0
    1.4859    0.2964    5.6450 C   0  0  0  0  0  0  0  0  0  0  0  0
    0.8286    1.2541    6.6568 C   0  0  1  0  0  0  0  0  0  0  0  0
   -0.6275    1.0838    6.7834 C   0  0  0  0  0  0  0  0  0  0  0  0
   -1.7748    0.9440    6.8774 N   0  0  0  0  0  0  0  0  0  0  0  0
    1.5272    1.1933    8.0135 C   0  0  0  0  0  0  0  0  0  0  0  0
    1.7891    2.2353    8.6111 O   0  0  0  0  0  0  0  0  0  0  0  0
    1.8528   -0.1935    8.6212 C   0  0  0  0  0  0  0  0  0  0  0  0
    3.0120   -0.0296    9.6412 C   0  0  0  0  0  0  0  0  0  0  0  0
    0.6127   -0.6428    9.4348 C   0  0  0  0  0  0  0  0  0  0  0  0
    2.3384   -1.1826    7.4846 C   0  0  1  0  0  0  0  0  0  0  0  0
    2.6321   -2.6245    7.9583 C   0  0  0  0  0  0  0  0  0  0  0  0
    2.9034   -3.6395    6.8217 C   0  0  0  0  0  0  0  0  0  0  0  0
    3.5568   -3.0352    5.5327 C   0  0  2  0  0  0  0  0  0  0  0  0
    4.8983   -2.3581    5.9830 C   0  0  0  0  0  0  0  0  0  0  0  0
    3.8860   -4.1916    4.4459 C   0  0  2  0  0  0  0  0  0  0  0  0
    4.6726   -5.3039    5.2202 C   0  0  0  0  0  0  0  0  0  0  0  0
    3.8904   -1.9820    2.3525 H   0  0  0  0  0  0  0  0  0  0  0  0
    5.5976   -2.1192    2.0244 H   0  0  0  0  0  0  0  0  0  0  0  0
    5.0828   -1.5806    3.5827 H   0  0  0  0  0  0  0  0  0  0  0  0
    5.8436   -3.9658    3.5697 H   0  0  0  0  0  0  0  0  0  0  0  0
    3.9773   -4.0672    1.2372 H   0  0  0  0  0  0  0  0  0  0  0  0
    5.6465   -4.4256    1.3633 H   0  0  0  0  0  0  0  0  0  0  0  0
    4.7673   -6.4497    0.8926 H   0  0  0  0  0  0  0  0  0  0  0  0
    5.0939   -6.6001    2.5689 H   0  0  0  0  0  0  0  0  0  0  0  0
    1.0695   -6.3369    0.9239 H   0  0  0  0  0  0  0  0  0  0  0  0
    2.4990   -6.1214   -0.0614 H   0  0  0  0  0  0  0  0  0  0  0  0
    1.9774   -4.8504    1.0287 H   0  0  0  0  0  0  0  0  0  0  0  0
    3.2373   -8.3840    0.8816 H   0  0  0  0  0  0  0  0  0  0  0  0
    3.7103   -8.5408    2.5336 H   0  0  0  0  0  0  0  0  0  0  0  0
    0.8669   -8.4741    1.4558 H   0  0  0  0  0  0  0  0  0  0  0  0
    1.6830   -9.8398    2.1420 H   0  0  0  0  0  0  0  0  0  0  0  0
   -0.8483   -8.6033    4.6931 H   0  0  0  0  0  0  0  0  0  0  0  0
   -0.4765   -9.9466    3.6233 H   0  0  0  0  0  0  0  0  0  0  0  0
   -1.0509   -8.4263    2.9501 H   0  0  0  0  0  0  0  0  0  0  0  0
    1.5526   -8.6844    5.7198 H   0  0  0  0  0  0  0  0  0  0  0  0
    2.9308   -8.8624    4.6434 H   0  0  0  0  0  0  0  0  0  0  0  0
    1.7298  -10.1301    4.7263 H   0  0  0  0  0  0  0  0  0  0  0  0
    0.3317   -6.4119    3.0445 H   0  0  0  0  0  0  0  0  0  0  0  0
    0.7134   -6.5407    4.7327 H   0  0  0  0  0  0  0  0  0  0  0  0
    3.0969   -6.7661    4.1426 H   0  0  0  0  0  0  0  0  0  0  0  0
    0.6341   -4.2312    3.1165 H   0  0  0  0  0  0  0  0  0  0  0  0
    3.1181   -1.1868    4.5449 H   0  0  0  0  0  0  0  0  0  0  0  0
   -0.3478   -1.5057    7.1025 H   0  0  0  0  0  0  0  0  0  0  0  0
    0.2094   -2.9049    6.2575 H   0  0  0  0  0  0  0  0  0  0  0  0
   -0.4401   -1.5443    5.3764 H   0  0  0  0  0  0  0  0  0  0  0  0
    2.4833    0.6924    5.4405 H   0  0  0  0  0  0  0  0  0  0  0  0
    0.9439    0.3729    4.7028 H   0  0  0  0  0  0  0  0  0  0  0  0
    0.9560    2.2701    6.2854 H   0  0  0  0  0  0  0  0  0  0  0  0
    3.2275   -0.9627   10.1652 H   0  0  0  0  0  0  0  0  0  0  0  0
    2.7819    0.7100   10.4102 H   0  0  0  0  0  0  0  0  0  0  0  0
    3.9336    0.2974    9.1523 H   0  0  0  0  0  0  0  0  0  0  0  0
    0.6522   -1.6835    9.7495 H   0  0  0  0  0  0  0  0  0  0  0  0
   -0.3239   -0.4798    8.9126 H   0  0  0  0  0  0  0  0  0  0  0  0
    0.5249   -0.0555   10.3498 H   0  0  0  0  0  0  0  0  0  0  0  0
    3.3122   -0.7602    7.2448 H   0  0  0  0  0  0  0  0  0  0  0  0
    3.5160   -2.5875    8.5939 H   0  0  0  0  0  0  0  0  0  0  0  0
    1.8391   -3.0191    8.5856 H   0  0  0  0  0  0  0  0  0  0  0  0
    3.5105   -4.4167    7.2812 H   0  0  0  0  0  0  0  0  0  0  0  0
    1.9692   -4.1282    6.5457 H   0  0  0  0  0  0  0  0  0  0  0  0
    5.1508   -2.5777    7.0202 H   0  0  0  0  0  0  0  0  0  0  0  0
    4.8755   -1.2731    5.8795 H   0  0  0  0  0  0  0  0  0  0  0  0
    5.7665   -2.6891    5.4173 H   0  0  0  0  0  0  0  0  0  0  0  0
    5.4599   -4.8994    5.8534 H   0  0  0  0  0  0  0  0  0  0  0  0
    5.1742   -6.0120    4.5692 H   0  0  0  0  0  0  0  0  0  0  0  0
    4.0270   -5.8974    5.8662 H   0  0  0  0  0  0  0  0  0  0  0  0
  1  2  1  0
  1 37  1  0
  1 38  1  0
  1 39  1  0
  2 35  1  0
  2  3  1  0
  2 40  1  1
  3  4  1  0
  3 41  1  0
  3 42  1  0
  4  5  1  0
  4 43  1  0
  4 44  1  0
  5 13  1  0
  5  6  1  6
  5  7  1  0
  6 45  1  0
  6 46  1  0
  6 47  1  0
  7  8  1  0
  7 48  1  0
  7 49  1  0
  8  9  1  0
  8 50  1  0
  8 51  1  0
  9 10  1  0
  9 11  1  0
  9 12  1  0
 10 52  1  0
 10 53  1  0
 10 54  1  0
 11 55  1  0
 11 56  1  0
 11 57  1  0
 12 13  1  0
 12 58  1  0
 12 59  1  0
 13 14  1  0
 13 60  1  1
 14 35  1  0
 14 15  2  0
 15 16  1  0
 15 61  1  0
 16 17  2  0
 16 18  1  0
 18 33  1  0
 18 19  1  0
 18 62  1  6
 19 30  1  0
 19 20  1  1
 19 21  1  0
 20 63  1  0
 20 64  1  0
 20 65  1  0
 21 22  1  0
 21 66  1  0
 21 67  1  0
 22 23  1  0
 22 25  1  0
 22 68  1  6
 23 24  3  0
 25 26  2  0
 25 27  1  0
 27 28  1  0
 27 29  1  0
 27 30  1  0
 28 69  1  0
 28 70  1  0
 28 71  1  0
 29 72  1  0
 29 73  1  0
 29 74  1  0
 30 31  1  0
 30 75  1  6
 31 32  1  0
 31 76  1  0
 31 77  1  0
 32 33  1  0
 32 78  1  0
 32 79  1  0
 33 34  1  1
 33 35  1  0
 34 80  1  0
 34 81  1  0
 34 82  1  0
 35 36  1  1
 36 83  1  0
 36 84  1  0
 36 85  1  0
M  END
>  <i_m_ct_stereo_status>  (73) 
1

>  <s_m_source_file>  (73) 
/var/tmp/pbs.5076255.sched01/tmpx9mnojvb/44r91_cmns.sdf

>  <i_m_source_file_index>  (73) 
3

>  <i_lp_mmshare_version>  (73) 
48012

>  <i_f3d_flags>  (73) 
0

>  <s_epik_input>  (73) 
W0NIMl0xW0NIMl1DKFtDSDNdKShbQ0gzXSlbQ0gyXVtDQEBIXShbQ0BdMTJbQ0gzXSlDPTNbQ0BAXShbQ0gzXSkoW0NASF0oW0NIM10pW0NIMl1bQ0gyXTIpW0NAQF00KFtDSDNdKVtDQEBIXShDKD1PKVtDSF0zKVtDQEBdNShbQ0gzXSlbQ0BIXShbQ0gyXVtDSDJdNClDKFtDSDNdKShbQ0gzXSlDKD1PKVtDQEBIXShbQ0gyXTUpQyNO

>  <s_epik_cmdline>  (73) 
J2VwaWtfcHl0aG9uJywgJy1waHQnLCAnMi4wJywgJy1waCcsICc3LjAnLCAnLXRuJywgJzgnLCAnLW1hJywgJzIwMCcsICctaW1hZScsICc8aW5maWxlLm1hZT4nLCAnLW9tYWUnLCAnPG91dGZpbGUubWFlPic=

>  <r_lp_tautomer_probability>  (73) 
1

>  <r_epik_Ionization_Penalty>  (73) 
7.20141e-11

>  <r_epik_Ionization_Penalty_Charging>  (73) 
0

>  <r_epik_Ionization_Penalty_Neutral>  (73) 
7.20141e-11

>  <r_epik_State_Penalty>  (73) 
-0

>  <r_epik_Charging_Adjusted_Penalty>  (73) 
0

>  <i_epik_Tot_Q>  (73) 
0

>  <i_epik_Tot_abs_Q>  (73) 
0

>  <s_lp_Force_Field>  (73) 
OPLS3e

>  <r_lp_Energy>  (73) 
109.935

>  <b_lp_Chiralities_Consistent>  (73) 
1

>  <s_lp_Variant>  (73) 
22:0-1

>  <s_i_glide_gridfile>  (73) 
pfpi4k_grid

>  <i_i_glide_lignum>  (73) 
3

>  <i_i_glide_rotatable_bonds>  (73) 
1

>  <r_i_docking_score>  (73) 
-1.87499

>  <r_i_glide_ligand_efficiency>  (73) 
-0.0520831

>  <r_i_glide_ligand_efficiency_sa>  (73) 
-0.171975

>  <r_i_glide_ligand_efficiency_ln>  (73) 
-0.409073

>  <r_i_glide_gscore>  (73) 
-1.87499

>  <r_i_glide_lipo>  (73) 
-0.146801

>  <r_i_glide_hbond>  (73) 
-0.16

>  <r_i_glide_metal>  (73) 
-0

>  <r_i_glide_rewards>  (73) 
-0.0822484

>  <r_i_glide_evdw>  (73) 
-24.6114

>  <r_i_glide_ecoul>  (73) 
-1.50098

>  <r_i_glide_erotb>  (73) 
0

>  <r_i_glide_esite>  (73) 
-0.0302253

>  <r_i_glide_emodel>  (73) 
-29.1599

>  <r_i_glide_energy>  (73) 
-26.1124

>  <r_i_glide_einternal>  (73) 
-0.185659

>  <r_i_glide_intrahb_reward>  (73) 
-0

>  <i_i_glide_confnum>  (73) 
1

>  <i_i_glide_posenum>  (73) 
18

>  <r_i_glide_eff_state_penalty>  (73) 
0

>  <ligand_id>  (73) 
22

>  <original_smiles>  (73) 
CC1CCC2(C)CCC(C)(C)CC2C2=CC(=O)C3C4(C)CC(C#N)C(=O)C(C)(C)C4CCC3(C)C21C

>  <smiles>  (73) 
[H]C1=C2C3([H])C([H])([H])C(C([H])([H])[H])(C([H])([H])[H])C([H])([H])C([H])([H])C3(C([H])([H])[H])C([H])([H])C([H])([H])C([H])(C([H])([H])[H])C2(C([H])([H])[H])C2(C([H])([H])[H])C([H])([H])C([H])([H])C3([H])C(C([H])([H])[H])(C([H])([H])[H])C(=O)C([H])(C#N)C([H])([H])C3(C([H])([H])[H])C2([H])C1=O

$$$$
22:0:2
     RDKit          3D

 85 89  0  0  1  0  0  0  0  0999 V2000
    7.0832   -6.2916    3.2541 C   0  0  0  0  0  0  0  0  0  0  0  0
    6.1331   -7.2486    4.0098 C   0  0  2  0  0  0  0  0  0  0  0  0
    6.0006   -8.4736    3.0505 C   0  0  0  0  0  0  0  0  0  0  0  0
    4.9696   -9.5954    3.3162 C   0  0  0  0  0  0  0  0  0  0  0  0
    3.5143   -9.3364    2.8416 C   0  0  1  0  0  0  0  0  0  0  0  0
    3.5008   -9.0616    1.3109 C   0  0  0  0  0  0  0  0  0  0  0  0
    2.7004  -10.6327    3.1178 C   0  0  0  0  0  0  0  0  0  0  0  0
    1.1797  -10.4850    2.8819 C   0  0  0  0  0  0  0  0  0  0  0  0
    0.5466   -9.2987    3.6368 C   0  0  0  0  0  0  0  0  0  0  0  0
   -0.8886   -9.0847    3.1167 C   0  0  0  0  0  0  0  0  0  0  0  0
    0.4982   -9.5773    5.1581 C   0  0  0  0  0  0  0  0  0  0  0  0
    1.3653   -8.0254    3.3359 C   0  0  0  0  0  0  0  0  0  0  0  0
    2.8667   -8.1885    3.6598 C   0  0  2  0  0  0  0  0  0  0  0  0
    3.6498   -6.8613    3.6158 C   0  0  0  0  0  0  0  0  0  0  0  0
    3.3868   -5.9529    2.6606 C   0  0  0  0  0  0  0  0  0  0  0  0
    4.1828   -4.7304    2.5353 C   0  0  0  0  0  0  0  0  0  0  0  0
    4.3819   -4.1931    1.4453 O   0  0  0  0  0  0  0  0  0  0  0  0
    4.7662   -4.0827    3.8076 C   0  0  1  0  0  0  0  0  0  0  0  0
    4.1586   -2.6166    4.0403 C   0  0  2  0  0  0  0  0  0  0  0  0
    2.6646   -2.5356    3.5909 C   0  0  0  0  0  0  0  0  0  0  0  0
    4.9920   -1.6114    3.1919 C   0  0  0  0  0  0  0  0  0  0  0  0
    4.7000   -0.1216    3.4476 C   0  0  1  0  0  0  0  0  0  0  0  0
    3.4378    0.3551    2.8629 C   0  0  0  0  0  0  0  0  0  0  0  0
    2.4461    0.7252    2.3982 N   0  0  0  0  0  0  0  0  0  0  0  0
    4.8003    0.2315    4.9305 C   0  0  0  0  0  0  0  0  0  0  0  0
    5.4064    1.2433    5.2805 O   0  0  0  0  0  0  0  0  0  0  0  0
    4.1183   -0.6938    5.9608 C   0  0  0  0  0  0  0  0  0  0  0  0
    4.8050   -0.4894    7.3412 C   0  0  0  0  0  0  0  0  0  0  0  0
    2.6594   -0.1993    6.1191 C   0  0  0  0  0  0  0  0  0  0  0  0
    4.3067   -2.2054    5.5392 C   0  0  1  0  0  0  0  0  0  0  0  0
    3.6030   -3.2271    6.4613 C   0  0  0  0  0  0  0  0  0  0  0  0
    3.6067   -4.6840    5.9388 C   0  0  0  0  0  0  0  0  0  0  0  0
    4.8392   -5.0703    5.0536 C   0  0  2  0  0  0  0  0  0  0  0  0
    6.1157   -4.8017    5.9232 C   0  0  0  0  0  0  0  0  0  0  0  0
    4.7975   -6.6333    4.6346 C   0  0  2  0  0  0  0  0  0  0  0  0
    4.5671   -7.4264    5.9666 C   0  0  0  0  0  0  0  0  0  0  0  0
    6.6341   -5.9013    2.3397 H   0  0  0  0  0  0  0  0  0  0  0  0
    7.9966   -6.8132    2.9531 H   0  0  0  0  0  0  0  0  0  0  0  0
    7.4257   -5.4618    3.8610 H   0  0  0  0  0  0  0  0  0  0  0  0
    6.7256   -7.6024    4.8551 H   0  0  0  0  0  0  0  0  0  0  0  0
    5.9016   -8.1241    2.0227 H   0  0  0  0  0  0  0  0  0  0  0  0
    6.9762   -8.9614    3.0599 H   0  0  0  0  0  0  0  0  0  0  0  0
    5.3230  -10.4739    2.7726 H   0  0  0  0  0  0  0  0  0  0  0  0
    4.9910   -9.9021    4.3604 H   0  0  0  0  0  0  0  0  0  0  0  0
    2.4903   -9.0214    0.9015 H   0  0  0  0  0  0  0  0  0  0  0  0
    4.0171   -9.8557    0.7638 H   0  0  0  0  0  0  0  0  0  0  0  0
    3.9787   -8.1188    1.0433 H   0  0  0  0  0  0  0  0  0  0  0  0
    3.0740  -11.4484    2.4936 H   0  0  0  0  0  0  0  0  0  0  0  0
    2.8699  -10.9590    4.1465 H   0  0  0  0  0  0  0  0  0  0  0  0
    0.9926  -10.3477    1.8170 H   0  0  0  0  0  0  0  0  0  0  0  0
    0.6869  -11.4179    3.1599 H   0  0  0  0  0  0  0  0  0  0  0  0
   -1.3848   -8.2586    3.6283 H   0  0  0  0  0  0  0  0  0  0  0  0
   -1.4928   -9.9762    3.2667 H   0  0  0  0  0  0  0  0  0  0  0  0
   -0.9042   -8.8873    2.0445 H   0  0  0  0  0  0  0  0  0  0  0  0
    0.1430   -8.7088    5.7161 H   0  0  0  0  0  0  0  0  0  0  0  0
    1.4558   -9.8872    5.5715 H   0  0  0  0  0  0  0  0  0  0  0  0
   -0.1694  -10.4112    5.3777 H   0  0  0  0  0  0  0  0  0  0  0  0
    1.2354   -7.7730    2.2871 H   0  0  0  0  0  0  0  0  0  0  0  0
    0.9539   -7.1902    3.8994 H   0  0  0  0  0  0  0  0  0  0  0  0
    2.8697   -8.5339    4.6812 H   0  0  0  0  0  0  0  0  0  0  0  0
    2.6401   -6.1287    1.9007 H   0  0  0  0  0  0  0  0  0  0  0  0
    5.8002   -3.9195    3.5241 H   0  0  0  0  0  0  0  0  0  0  0  0
    2.1436   -1.6581    3.9506 H   0  0  0  0  0  0  0  0  0  0  0  0
    2.0708   -3.3865    3.9191 H   0  0  0  0  0  0  0  0  0  0  0  0
    2.5751   -2.4944    2.5052 H   0  0  0  0  0  0  0  0  0  0  0  0
    6.0502   -1.7572    3.3989 H   0  0  0  0  0  0  0  0  0  0  0  0
    4.8809   -1.8058    2.1229 H   0  0  0  0  0  0  0  0  0  0  0  0
    5.4725    0.4534    2.9406 H   0  0  0  0  0  0  0  0  0  0  0  0
    4.3039   -1.0535    8.1306 H   0  0  0  0  0  0  0  0  0  0  0  0
    4.7907    0.5586    7.6516 H   0  0  0  0  0  0  0  0  0  0  0  0
    5.8519   -0.8001    7.3168 H   0  0  0  0  0  0  0  0  0  0  0  0
    2.0248   -0.8832    6.6751 H   0  0  0  0  0  0  0  0  0  0  0  0
    2.1696    0.0177    5.1752 H   0  0  0  0  0  0  0  0  0  0  0  0
    2.6371    0.7461    6.6648 H   0  0  0  0  0  0  0  0  0  0  0  0
    5.3696   -2.3406    5.7242 H   0  0  0  0  0  0  0  0  0  0  0  0
    4.1212   -3.2060    7.4189 H   0  0  0  0  0  0  0  0  0  0  0  0
    2.5752   -2.9385    6.6752 H   0  0  0  0  0  0  0  0  0  0  0  0
    3.5204   -5.2987    6.8355 H   0  0  0  0  0  0  0  0  0  0  0  0
    2.6938   -4.8642    5.3712 H   0  0  0  0  0  0  0  0  0  0  0  0
    5.8735   -4.5689    6.9597 H   0  0  0  0  0  0  0  0  0  0  0  0
    6.7162   -3.9785    5.5430 H   0  0  0  0  0  0  0  0  0  0  0  0
    6.7834   -5.6576    5.9821 H   0  0  0  0  0  0  0  0  0  0  0  0
    5.2125   -7.0848    6.7771 H   0  0  0  0  0  0  0  0  0  0  0  0
    4.7702   -8.4900    5.8770 H   0  0  0  0  0  0  0  0  0  0  0  0
    3.5409   -7.3468    6.3285 H   0  0  0  0  0  0  0  0  0  0  0  0
  1  2  1  0
  1 37  1  0
  1 38  1  0
  1 39  1  0
  2 35  1  0
  2  3  1  0
  2 40  1  1
  3  4  1  0
  3 41  1  0
  3 42  1  0
  4  5  1  0
  4 43  1  0
  4 44  1  0
  5 13  1  0
  5  6  1  6
  5  7  1  0
  6 45  1  0
  6 46  1  0
  6 47  1  0
  7  8  1  0
  7 48  1  0
  7 49  1  0
  8  9  1  0
  8 50  1  0
  8 51  1  0
  9 10  1  0
  9 11  1  0
  9 12  1  0
 10 52  1  0
 10 53  1  0
 10 54  1  0
 11 55  1  0
 11 56  1  0
 11 57  1  0
 12 13  1  0
 12 58  1  0
 12 59  1  0
 13 14  1  0
 13 60  1  1
 14 35  1  0
 14 15  2  0
 15 16  1  0
 15 61  1  0
 16 17  2  0
 16 18  1  0
 18 33  1  0
 18 19  1  0
 18 62  1  6
 19 30  1  0
 19 20  1  6
 19 21  1  0
 20 63  1  0
 20 64  1  0
 20 65  1  0
 21 22  1  0
 21 66  1  0
 21 67  1  0
 22 23  1  0
 22 25  1  0
 22 68  1  6
 23 24  3  0
 25 26  2  0
 25 27  1  0
 27 28  1  0
 27 29  1  0
 27 30  1  0
 28 69  1  0
 28 70  1  0
 28 71  1  0
 29 72  1  0
 29 73  1  0
 29 74  1  0
 30 31  1  0
 30 75  1  1
 31 32  1  0
 31 76  1  0
 31 77  1  0
 32 33  1  0
 32 78  1  0
 32 79  1  0
 33 34  1  1
 33 35  1  0
 34 80  1  0
 34 81  1  0
 34 82  1  0
 35 36  1  1
 36 83  1  0
 36 84  1  0
 36 85  1  0
M  END
>  <i_m_ct_stereo_status>  (74) 
1

>  <s_m_source_file>  (74) 
/var/tmp/pbs.5076255.sched01/tmpx9mnojvb/44r91_cmns.sdf

>  <i_m_source_file_index>  (74) 
3

>  <i_lp_mmshare_version>  (74) 
48012

>  <i_f3d_flags>  (74) 
0

>  <s_epik_input>  (74) 
W0NIMl0xW0NIMl1DKFtDSDNdKShbQ0gzXSlbQ0gyXVtDQEBIXShbQ0BdMTJbQ0gzXSlDPTNbQ0BAXShbQ0gzXSkoW0NASF0oW0NIM10pW0NIMl1bQ0gyXTIpW0NAQF00KFtDSDNdKVtDQEBIXShDKD1PKVtDSF0zKVtDQEBdNShbQ0gzXSlbQ0BIXShbQ0gyXVtDSDJdNClDKFtDSDNdKShbQ0gzXSlDKD1PKVtDQEBIXShbQ0gyXTUpQyNO

>  <s_epik_cmdline>  (74) 
J2VwaWtfcHl0aG9uJywgJy1waHQnLCAnMi4wJywgJy1waCcsICc3LjAnLCAnLXRuJywgJzgnLCAnLW1hJywgJzIwMCcsICctaW1hZScsICc8aW5maWxlLm1hZT4nLCAnLW9tYWUnLCAnPG91dGZpbGUubWFlPic=

>  <r_lp_tautomer_probability>  (74) 
1

>  <r_epik_Ionization_Penalty>  (74) 
7.20141e-11

>  <r_epik_Ionization_Penalty_Charging>  (74) 
0

>  <r_epik_Ionization_Penalty_Neutral>  (74) 
7.20141e-11

>  <r_epik_State_Penalty>  (74) 
-0

>  <r_epik_Charging_Adjusted_Penalty>  (74) 
0

>  <i_epik_Tot_Q>  (74) 
0

>  <i_epik_Tot_abs_Q>  (74) 
0

>  <s_lp_Force_Field>  (74) 
OPLS3e

>  <r_lp_Energy>  (74) 
109.935

>  <b_lp_Chiralities_Consistent>  (74) 
1

>  <s_lp_Variant>  (74) 
22:0-1

>  <s_i_glide_gridfile>  (74) 
pfpi4k_grid

>  <i_i_glide_lignum>  (74) 
3

>  <i_i_glide_rotatable_bonds>  (74) 
1

>  <r_i_docking_score>  (74) 
-1.7971

>  <r_i_glide_ligand_efficiency>  (74) 
-0.0499196

>  <r_i_glide_ligand_efficiency_sa>  (74) 
-0.164831

>  <r_i_glide_ligand_efficiency_ln>  (74) 
-0.39208

>  <r_i_glide_gscore>  (74) 
-1.7971

>  <r_i_glide_lipo>  (74) 
-0.344567

>  <r_i_glide_hbond>  (74) 
0

>  <r_i_glide_metal>  (74) 
-0

>  <r_i_glide_rewards>  (74) 
-0.142379

>  <r_i_glide_evdw>  (74) 
-27.2479

>  <r_i_glide_ecoul>  (74) 
0.34825

>  <r_i_glide_erotb>  (74) 
0

>  <r_i_glide_esite>  (74) 
0

>  <r_i_glide_emodel>  (74) 
-29.7731

>  <r_i_glide_energy>  (74) 
-26.8997

>  <r_i_glide_einternal>  (74) 
-0.169157

>  <r_i_glide_intrahb_reward>  (74) 
-0

>  <i_i_glide_confnum>  (74) 
2

>  <i_i_glide_posenum>  (74) 
12

>  <r_i_glide_eff_state_penalty>  (74) 
0

>  <ligand_id>  (74) 
22

>  <original_smiles>  (74) 
CC1CCC2(C)CCC(C)(C)CC2C2=CC(=O)C3C4(C)CC(C#N)C(=O)C(C)(C)C4CCC3(C)C21C

>  <smiles>  (74) 
[H]C1=C2C3([H])C([H])([H])C(C([H])([H])[H])(C([H])([H])[H])C([H])([H])C([H])([H])C3(C([H])([H])[H])C([H])([H])C([H])([H])C([H])(C([H])([H])[H])C2(C([H])([H])[H])C2(C([H])([H])[H])C([H])([H])C([H])([H])C3([H])C(C([H])([H])[H])(C([H])([H])[H])C(=O)C([H])(C#N)C([H])([H])C3(C([H])([H])[H])C2([H])C1=O

$$$$
23:0:0
     RDKit          3D

 73 81  0  0  1  0  0  0  0  0999 V2000
    4.9809   -2.3261    3.7840 C   0  0  0  0  0  0  0  0  0  0  0  0
    4.2980   -3.4407    3.4969 C   0  0  0  0  0  0  0  0  0  0  0  0
    4.2256   -4.5327    4.5543 C   0  0  0  0  0  0  0  0  0  0  0  0
    3.6194   -5.3908    3.9016 C   0  0  0  0  0  0  0  0  0  0  0  0
    2.0883   -4.7758    4.1941 C   0  0  0  0  0  0  0  0  0  0  0  0
    0.9842   -4.9469    3.6529 O   0  0  0  0  0  0  0  0  0  0  0  0
    2.1240   -3.9524    5.4604 C   0  0  1  0  0  0  0  0  0  0  0  0
    0.8988   -3.9894    6.3830 C   0  0  0  0  0  0  0  0  0  0  0  0
   -0.2048   -4.9132    6.4159 C   0  0  0  0  0  0  0  0  0  0  0  0
   -1.0300   -4.5304    7.4254 C   0  0  0  0  0  0  0  0  0  0  0  0
   -0.5788   -3.3912    8.0180 O   0  0  0  0  0  0  0  0  0  0  0  0
    0.5841   -3.0795    7.3671 C   0  0  0  0  0  0  0  0  0  0  0  0
    3.3202   -4.7804    5.8281 C   0  0  2  0  0  0  0  0  0  0  0  0
    4.0228   -4.2694    7.0929 C   0  0  0  0  0  0  0  0  0  0  0  0
    2.8312   -6.4178    6.0104 C   0  0  0  0  0  0  0  0  0  0  0  0
    1.9140   -7.3225    4.8536 C   0  0  0  0  0  0  0  0  0  0  0  0
    2.0849   -7.4894    3.1616 C   0  0  1  0  0  0  0  0  0  0  0  0
    2.3241   -6.3603    1.7238 C   0  0  2  0  0  0  0  0  0  0  0  0
    1.2064   -6.6122    0.8814 O   0  0  0  0  0  0  0  0  0  0  0  0
    3.6217   -6.7272    0.9064 C   0  0  0  0  0  0  0  0  0  0  0  0
    4.8030   -6.2775    1.7347 C   0  0  0  0  0  0  0  0  0  0  0  0
    5.9295   -5.7470    1.2401 C   0  0  0  0  0  0  0  0  0  0  0  0
    4.5373   -6.5745    3.1935 C   0  0  2  0  0  0  0  0  0  0  0  0
    4.3612   -8.1768    3.1655 C   0  0  1  0  0  0  0  0  0  0  0  0
    4.9923   -9.0998    4.2212 C   0  0  1  0  0  0  0  0  0  0  0  0
    4.0626   -9.4919    5.3407 C   0  0  0  0  0  0  0  0  0  0  0  0
    3.2519   -9.9709    4.1012 C   0  0  2  0  0  0  0  0  0  0  0  0
    2.3778  -11.2195    4.4113 C   0  0  1  0  0  0  0  0  0  0  0  0
    1.7558  -11.8427    3.3112 O   0  0  0  0  0  0  0  0  0  0  0  0
    3.4073  -12.2594    4.9632 C   0  0  0  0  0  0  0  0  0  0  0  0
    4.8067  -11.9177    4.3992 C   0  0  0  0  0  0  0  0  0  0  0  0
    4.6367  -10.5376    3.7457 C   0  0  2  0  0  0  0  0  0  0  0  0
    2.9532   -8.7989    3.0202 C   0  0  1  0  0  0  0  0  0  0  0  0
    2.4909   -9.5088    1.7110 C   0  0  0  0  0  0  0  0  0  0  0  0
    2.6454   -4.7081    1.3924 C   0  0  1  0  0  0  0  0  0  0  0  0
    2.2150   -3.4528    1.9615 O   0  0  0  0  0  0  0  0  0  0  0  0
    3.6631   -3.6097    2.0378 C   0  0  1  0  0  0  0  0  0  0  0  0
    5.0742   -1.5384    3.0516 H   0  0  0  0  0  0  0  0  0  0  0  0
    5.4401   -2.1802    4.7546 H   0  0  0  0  0  0  0  0  0  0  0  0
    2.3809   -2.9101    5.2290 H   0  0  0  0  0  0  0  0  0  0  0  0
   -0.4029   -5.7719    5.7905 H   0  0  0  0  0  0  0  0  0  0  0  0
   -1.9562   -4.9468    7.8077 H   0  0  0  0  0  0  0  0  0  0  0  0
    1.0665   -2.1769    7.7269 H   0  0  0  0  0  0  0  0  0  0  0  0
    3.4000   -4.4011    7.9792 H   0  0  0  0  0  0  0  0  0  0  0  0
    4.2749   -3.2085    7.0145 H   0  0  0  0  0  0  0  0  0  0  0  0
    4.9486   -4.8200    7.2523 H   0  0  0  0  0  0  0  0  0  0  0  0
    3.7721   -6.8780    6.2947 H   0  0  0  0  0  0  0  0  0  0  0  0
    2.2343   -6.4381    6.9188 H   0  0  0  0  0  0  0  0  0  0  0  0
    1.7371   -8.2977    5.2849 H   0  0  0  0  0  0  0  0  0  0  0  0
    0.8849   -7.0100    4.9299 H   0  0  0  0  0  0  0  0  0  0  0  0
    1.0754   -7.8455    2.9646 H   0  0  0  0  0  0  0  0  0  0  0  0
    1.0899   -7.5506    0.8115 H   0  0  0  0  0  0  0  0  0  0  0  0
    3.8155   -7.7509    0.6243 H   0  0  0  0  0  0  0  0  0  0  0  0
    3.6770   -6.2529   -0.0714 H   0  0  0  0  0  0  0  0  0  0  0  0
    6.0394   -5.5834    0.1796 H   0  0  0  0  0  0  0  0  0  0  0  0
    6.7548   -5.4631    1.8811 H   0  0  0  0  0  0  0  0  0  0  0  0
    5.5037   -6.4430    3.6816 H   0  0  0  0  0  0  0  0  0  0  0  0
    4.9138   -8.4959    2.2786 H   0  0  0  0  0  0  0  0  0  0  0  0
    6.0401   -8.9437    4.4723 H   0  0  0  0  0  0  0  0  0  0  0  0
    4.4802  -10.2128    6.0494 H   0  0  0  0  0  0  0  0  0  0  0  0
    3.6133   -8.7422    5.9334 H   0  0  0  0  0  0  0  0  0  0  0  0
    1.6221  -11.0016    5.1682 H   0  0  0  0  0  0  0  0  0  0  0  0
    1.8050  -12.8045    3.4158 H   0  0  0  0  0  0  0  0  0  0  0  0
    3.4500  -12.1840    6.0484 H   0  0  0  0  0  0  0  0  0  0  0  0
    3.1275  -13.2932    4.7830 H   0  0  0  0  0  0  0  0  0  0  0  0
    5.5949  -11.9543    5.1564 H   0  0  0  0  0  0  0  0  0  0  0  0
    5.0693  -12.6495    3.6395 H   0  0  0  0  0  0  0  0  0  0  0  0
    4.8035  -10.6304    2.6755 H   0  0  0  0  0  0  0  0  0  0  0  0
    3.1901  -10.2539    1.3368 H   0  0  0  0  0  0  0  0  0  0  0  0
    2.2150   -8.8829    0.8800 H   0  0  0  0  0  0  0  0  0  0  0  0
    1.5322   -9.9953    1.8767 H   0  0  0  0  0  0  0  0  0  0  0  0
    2.5416   -4.5794    0.3160 H   0  0  0  0  0  0  0  0  0  0  0  0
    4.2050   -3.0034    1.3220 H   0  0  0  0  0  0  0  0  0  0  0  0
  1  2  2  0
  1 38  1  0
  1 39  1  0
  2 37  1  0
  2  3  1  0
  3 13  1  0
  3  4  2  0
  4 23  1  0
  4  5  1  0
  5  6  2  0
  5  7  1  0
  7  8  1  0
  7 13  1  0
  7 40  1  6
  8 12  2  0
  8  9  1  0
  9 10  2  0
  9 41  1  0
 10 11  1  0
 10 42  1  0
 11 12  1  0
 12 43  1  0
 13 14  1  1
 13 15  1  0
 14 44  1  0
 14 45  1  0
 14 46  1  0
 15 16  1  0
 15 47  1  0
 15 48  1  0
 16 17  1  0
 16 49  1  0
 16 50  1  0
 17 33  1  0
 17 18  1  0
 17 51  1  6
 18 19  1  6
 18 20  1  0
 18 35  1  0
 19 52  1  0
 20 21  1  0
 20 53  1  0
 20 54  1  0
 21 22  2  0
 21 23  1  0
 22 55  1  0
 22 56  1  0
 23 24  1  0
 23 57  1  1
 24 33  1  0
 24 25  1  0
 24 58  1  6
 25 32  1  0
 25 26  1  0
 25 59  1  1
 27 26  1  1
 26 60  1  0
 26 61  1  0
 27 32  1  0
 27 28  1  0
 27 33  1  0
 28 29  1  0
 28 30  1  0
 28 62  1  1
 29 63  1  0
 30 31  1  0
 30 64  1  0
 30 65  1  0
 31 32  1  0
 31 66  1  0
 31 67  1  0
 32 68  1  6
 33 34  1  6
 34 69  1  0
 34 70  1  0
 34 71  1  0
 35 37  1  0
 35 36  1  0
 35 72  1  6
 36 37  1  0
 37 73  1  6
M  END
>  <i_m_ct_stereo_status>  (75) 
1

>  <s_m_source_file>  (75) 
/var/tmp/pbs.5076255.sched01/tmpx9mnojvb/44r91_cmns.sdf

>  <i_m_source_file_index>  (75) 
4

>  <i_lp_mmshare_version>  (75) 
48012

>  <i_f3d_flags>  (75) 
0

>  <s_epik_input>  (75) 
W0NIMl09QzFbQ0hdKE8yKVtDSF0yW0NAQF0oW09IXSkoW0NIMl1DMz1bQ0gyXSlbQ0BASF0oW0NAQF00NVtDSDNdKVtDSDJdW0NIMl1bQ0BdKFtDSDNdKShbQ0BASF0oQzY9TyljN1tjSF1bY0hdb1tjSF03KUMxPUM2W0NASF0zW0NASF00W0NAQEhdKFtDSDJdOClbQ0BIXShbQ0BdNTg5KVtDSDJdW0NIMl1bQ0BASF05W09IXQ==

>  <s_epik_cmdline>  (75) 
J2VwaWtfcHl0aG9uJywgJy1waHQnLCAnMi4wJywgJy1waCcsICc3LjAnLCAnLXRuJywgJzgnLCAnLW1hJywgJzIwMCcsICctaW1hZScsICc8aW5maWxlLm1hZT4nLCAnLW9tYWUnLCAnPG91dGZpbGUubWFlPic=

>  <r_lp_tautomer_probability>  (75) 
1

>  <r_epik_Ionization_Penalty>  (75) 
2.04057e-06

>  <r_epik_Ionization_Penalty_Charging>  (75) 
0

>  <r_epik_Ionization_Penalty_Neutral>  (75) 
2.04057e-06

>  <r_epik_State_Penalty>  (75) 
-0

>  <r_epik_Charging_Adjusted_Penalty>  (75) 
0

>  <i_epik_Tot_Q>  (75) 
0

>  <i_epik_Tot_abs_Q>  (75) 
0

>  <s_lp_Force_Field>  (75) 
OPLS3e

>  <r_lp_Energy>  (75) 
569.302

>  <b_lp_Chiralities_Consistent>  (75) 
1

>  <s_lp_Variant>  (75) 
23:0-1

>  <s_i_glide_gridfile>  (75) 
pfpi4k_grid

>  <i_i_glide_lignum>  (75) 
4

>  <i_i_glide_rotatable_bonds>  (75) 
3

>  <r_i_docking_score>  (75) 
-2.82899

>  <r_i_glide_ligand_efficiency>  (75) 
-0.0764591

>  <r_i_glide_ligand_efficiency_sa>  (75) 
-0.254779

>  <r_i_glide_ligand_efficiency_ln>  (75) 
-0.613541

>  <r_i_glide_gscore>  (75) 
-2.82899

>  <r_i_glide_lipo>  (75) 
-0.265363

>  <r_i_glide_hbond>  (75) 
-0.384249

>  <r_i_glide_metal>  (75) 
-0

>  <r_i_glide_rewards>  (75) 
0

>  <r_i_glide_evdw>  (75) 
-27.7675

>  <r_i_glide_ecoul>  (75) 
-5.81578

>  <r_i_glide_erotb>  (75) 
0.0814798

>  <r_i_glide_esite>  (75) 
-0.000114148

>  <r_i_glide_emodel>  (75) 
-39.0118

>  <r_i_glide_energy>  (75) 
-33.5833

>  <r_i_glide_einternal>  (75) 
1.67026

>  <r_i_glide_intrahb_reward>  (75) 
-0

>  <i_i_glide_confnum>  (75) 
2

>  <i_i_glide_posenum>  (75) 
19

>  <r_i_glide_eff_state_penalty>  (75) 
0

>  <ligand_id>  (75) 
23

>  <original_smiles>  (75) 
C=C1C2=C3C(=O)C(c4ccoc4)C2(C)CCC2C(O)(CC(=C)C3C3C4CC5(C(O)CCC45)C32C)C2OC12

>  <smiles>  (75) 
[H]OC1([H])C([H])([H])C([H])([H])C2([H])C3([H])C([H])([H])C12C1(C([H])([H])[H])C3([H])C2([H])C3=C4C(=C([H])[H])C5([H])OC5([H])C(O[H])(C([H])([H])C2=C([H])[H])C1([H])C([H])([H])C([H])([H])C4(C([H])([H])[H])C([H])(c1c([H])oc([H])c1[H])C3=O

$$$$
23:0:1
     RDKit          3D

 73 81  0  0  1  0  0  0  0  0999 V2000
    2.5103    0.0913    1.6927 C   0  0  0  0  0  0  0  0  0  0  0  0
    2.8945   -1.0545    2.2786 C   0  0  0  0  0  0  0  0  0  0  0  0
    2.8076   -2.3426    1.4722 C   0  0  0  0  0  0  0  0  0  0  0  0
    3.1312   -3.1322    2.3857 C   0  0  0  0  0  0  0  0  0  0  0  0
    4.7773   -2.9168    2.2071 C   0  0  0  0  0  0  0  0  0  0  0  0
    5.7377   -3.1763    2.9350 O   0  0  0  0  0  0  0  0  0  0  0  0
    5.0846   -2.4076    0.8319 C   0  0  1  0  0  0  0  0  0  0  0  0
    6.3459   -2.8767    0.1228 C   0  0  0  0  0  0  0  0  0  0  0  0
    6.7322   -2.4722   -1.1835 C   0  0  0  0  0  0  0  0  0  0  0  0
    7.9368   -3.0535   -1.4516 C   0  0  0  0  0  0  0  0  0  0  0  0
    8.3458   -3.8007   -0.3954 O   0  0  0  0  0  0  0  0  0  0  0  0
    7.3781   -3.6816    0.5508 C   0  0  0  0  0  0  0  0  0  0  0  0
    3.7838   -3.0315    0.4330 C   0  0  2  0  0  0  0  0  0  0  0  0
    3.3600   -2.6876   -0.9994 C   0  0  0  0  0  0  0  0  0  0  0  0
    3.9219   -4.7286    0.6308 C   0  0  0  0  0  0  0  0  0  0  0  0
    4.4933   -5.5242    2.0572 C   0  0  0  0  0  0  0  0  0  0  0  0
    4.0820   -5.2876    3.7138 C   0  0  1  0  0  0  0  0  0  0  0  0
    3.9282   -3.8482    4.8638 C   0  0  2  0  0  0  0  0  0  0  0  0
    4.8339   -4.1230    5.9156 O   0  0  0  0  0  0  0  0  0  0  0  0
    2.4989   -3.7630    5.5227 C   0  0  0  0  0  0  0  0  0  0  0  0
    1.5538   -3.2789    4.4497 C   0  0  0  0  0  0  0  0  0  0  0  0
    0.5246   -2.4380    4.6560 C   0  0  0  0  0  0  0  0  0  0  0  0
    1.9047   -3.9342    3.1353 C   0  0  2  0  0  0  0  0  0  0  0  0
    1.7161   -5.4954    3.4970 C   0  0  1  0  0  0  0  0  0  0  0  0
    1.0085   -6.4804    2.5498 C   0  0  1  0  0  0  0  0  0  0  0  0
    1.9399   -7.2801    1.6824 C   0  0  0  0  0  0  0  0  0  0  0  0
    2.4807   -7.6255    3.0979 C   0  0  2  0  0  0  0  0  0  0  0  0
    3.0793   -9.0543    3.1680 C   0  0  1  0  0  0  0  0  0  0  0  0
    3.4082   -9.5328    4.4524 O   0  0  0  0  0  0  0  0  0  0  0  0
    1.9177   -9.9851    2.6857 C   0  0  0  0  0  0  0  0  0  0  0  0
    0.5732   -9.2567    2.9436 C   0  0  0  0  0  0  0  0  0  0  0  0
    0.9739   -7.8231    3.3352 C   0  0  2  0  0  0  0  0  0  0  0  0
    2.9235   -6.3333    3.9746 C   0  0  1  0  0  0  0  0  0  0  0  0
    3.0545   -6.8176    5.4594 C   0  0  0  0  0  0  0  0  0  0  0  0
    3.9639   -2.1289    4.8240 C   0  0  1  0  0  0  0  0  0  0  0  0
    4.7347   -1.1358    4.1174 O   0  0  0  0  0  0  0  0  0  0  0  0
    3.3114   -1.0174    3.8332 C   0  0  1  0  0  0  0  0  0  0  0  0
    2.4962    1.0317    2.2319 H   0  0  0  0  0  0  0  0  0  0  0  0
    2.1901    0.1126    0.6566 H   0  0  0  0  0  0  0  0  0  0  0  0
    5.0452   -1.3159    0.8118 H   0  0  0  0  0  0  0  0  0  0  0  0
    6.1852   -1.8202   -1.8502 H   0  0  0  0  0  0  0  0  0  0  0  0
    8.6032   -3.0505   -2.3025 H   0  0  0  0  0  0  0  0  0  0  0  0
    7.5873   -4.2159    1.4631 H   0  0  0  0  0  0  0  0  0  0  0  0
    4.0216   -3.1331   -1.7435 H   0  0  0  0  0  0  0  0  0  0  0  0
    3.3405   -1.6079   -1.1540 H   0  0  0  0  0  0  0  0  0  0  0  0
    2.3548   -3.0605   -1.1900 H   0  0  0  0  0  0  0  0  0  0  0  0
    2.9432   -5.0574    0.3107 H   0  0  0  0  0  0  0  0  0  0  0  0
    4.5856   -5.0766   -0.1621 H   0  0  0  0  0  0  0  0  0  0  0  0
    4.5156   -6.5899    1.8650 H   0  0  0  0  0  0  0  0  0  0  0  0
    5.5779   -5.4040    2.0235 H   0  0  0  0  0  0  0  0  0  0  0  0
    4.9561   -5.7836    4.1376 H   0  0  0  0  0  0  0  0  0  0  0  0
    4.6946   -5.0080    6.2151 H   0  0  0  0  0  0  0  0  0  0  0  0
    2.0555   -4.6415    5.9647 H   0  0  0  0  0  0  0  0  0  0  0  0
    2.4470   -3.0842    6.3728 H   0  0  0  0  0  0  0  0  0  0  0  0
    0.3373   -2.0235    5.6354 H   0  0  0  0  0  0  0  0  0  0  0  0
   -0.1350   -2.1443    3.8500 H   0  0  0  0  0  0  0  0  0  0  0  0
    1.0506   -3.7167    2.4988 H   0  0  0  0  0  0  0  0  0  0  0  0
    1.0014   -5.5004    4.3226 H   0  0  0  0  0  0  0  0  0  0  0  0
    0.0574   -6.1940    2.1091 H   0  0  0  0  0  0  0  0  0  0  0  0
    1.4656   -8.0465    1.0600 H   0  0  0  0  0  0  0  0  0  0  0  0
    2.6285   -6.7886    1.0511 H   0  0  0  0  0  0  0  0  0  0  0  0
    3.9456   -9.1638    2.5149 H   0  0  0  0  0  0  0  0  0  0  0  0
    3.5447  -10.4686    4.4011 H   0  0  0  0  0  0  0  0  0  0  0  0
    2.0046  -10.1428    1.6123 H   0  0  0  0  0  0  0  0  0  0  0  0
    1.9368  -10.9857    3.1198 H   0  0  0  0  0  0  0  0  0  0  0  0
   -0.1102   -9.2980    2.0915 H   0  0  0  0  0  0  0  0  0  0  0  0
    0.0574   -9.7439    3.7725 H   0  0  0  0  0  0  0  0  0  0  0  0
    0.6725   -7.6514    4.3634 H   0  0  0  0  0  0  0  0  0  0  0  0
    2.1695   -7.3187    5.8448 H   0  0  0  0  0  0  0  0  0  0  0  0
    3.3569   -6.0988    6.2059 H   0  0  0  0  0  0  0  0  0  0  0  0
    3.8904   -7.5059    5.5385 H   0  0  0  0  0  0  0  0  0  0  0  0
    3.9645   -1.7947    5.8598 H   0  0  0  0  0  0  0  0  0  0  0  0
    2.8335   -0.1798    4.3377 H   0  0  0  0  0  0  0  0  0  0  0  0
  1  2  2  0
  1 38  1  0
  1 39  1  0
  2 37  1  0
  2  3  1  0
  3 13  1  0
  3  4  2  0
  4 23  1  0
  4  5  1  0
  5  6  2  0
  5  7  1  0
  7  8  1  0
  7 13  1  0
  7 40  1  1
  8 12  2  0
  8  9  1  0
  9 10  2  0
  9 41  1  0
 10 11  1  0
 10 42  1  0
 11 12  1  0
 12 43  1  0
 13 14  1  6
 13 15  1  0
 14 44  1  0
 14 45  1  0
 14 46  1  0
 15 16  1  0
 15 47  1  0
 15 48  1  0
 16 17  1  0
 16 49  1  0
 16 50  1  0
 17 33  1  0
 17 18  1  0
 17 51  1  1
 18 19  1  1
 18 20  1  0
 18 35  1  0
 19 52  1  0
 20 21  1  0
 20 53  1  0
 20 54  1  0
 21 22  2  0
 21 23  1  0
 22 55  1  0
 22 56  1  0
 23 24  1  0
 23 57  1  6
 24 33  1  0
 24 25  1  0
 24 58  1  1
 25 32  1  0
 25 26  1  0
 25 59  1  6
 27 26  1  6
 26 60  1  0
 26 61  1  0
 27 32  1  0
 27 28  1  0
 27 33  1  0
 28 29  1  0
 28 30  1  0
 28 62  1  6
 29 63  1  0
 30 31  1  0
 30 64  1  0
 30 65  1  0
 31 32  1  0
 31 66  1  0
 31 67  1  0
 32 68  1  1
 33 34  1  1
 34 69  1  0
 34 70  1  0
 34 71  1  0
 35 37  1  0
 35 36  1  0
 35 72  1  1
 36 37  1  0
 37 73  1  1
M  END
>  <i_m_ct_stereo_status>  (76) 
1

>  <s_m_source_file>  (76) 
/var/tmp/pbs.5076255.sched01/tmpx9mnojvb/44r91_cmns.sdf

>  <i_m_source_file_index>  (76) 
4

>  <i_lp_mmshare_version>  (76) 
48012

>  <i_f3d_flags>  (76) 
0

>  <s_epik_input>  (76) 
W0NIMl09QzFbQ0hdKE8yKVtDSF0yW0NAQF0oW09IXSkoW0NIMl1DMz1bQ0gyXSlbQ0BASF0oW0NAQF00NVtDSDNdKVtDSDJdW0NIMl1bQ0BdKFtDSDNdKShbQ0BASF0oQzY9TyljN1tjSF1bY0hdb1tjSF03KUMxPUM2W0NASF0zW0NASF00W0NAQEhdKFtDSDJdOClbQ0BIXShbQ0BdNTg5KVtDSDJdW0NIMl1bQ0BASF05W09IXQ==

>  <s_epik_cmdline>  (76) 
J2VwaWtfcHl0aG9uJywgJy1waHQnLCAnMi4wJywgJy1waCcsICc3LjAnLCAnLXRuJywgJzgnLCAnLW1hJywgJzIwMCcsICctaW1hZScsICc8aW5maWxlLm1hZT4nLCAnLW9tYWUnLCAnPG91dGZpbGUubWFlPic=

>  <r_lp_tautomer_probability>  (76) 
1

>  <r_epik_Ionization_Penalty>  (76) 
2.04057e-06

>  <r_epik_Ionization_Penalty_Charging>  (76) 
0

>  <r_epik_Ionization_Penalty_Neutral>  (76) 
2.04057e-06

>  <r_epik_State_Penalty>  (76) 
-0

>  <r_epik_Charging_Adjusted_Penalty>  (76) 
0

>  <i_epik_Tot_Q>  (76) 
0

>  <i_epik_Tot_abs_Q>  (76) 
0

>  <s_lp_Force_Field>  (76) 
OPLS3e

>  <r_lp_Energy>  (76) 
569.302

>  <b_lp_Chiralities_Consistent>  (76) 
1

>  <s_lp_Variant>  (76) 
23:0-1

>  <s_i_glide_gridfile>  (76) 
pfpi4k_grid

>  <i_i_glide_lignum>  (76) 
4

>  <i_i_glide_rotatable_bonds>  (76) 
3

>  <r_i_docking_score>  (76) 
-2.54704

>  <r_i_glide_ligand_efficiency>  (76) 
-0.068839

>  <r_i_glide_ligand_efficiency_sa>  (76) 
-0.229387

>  <r_i_glide_ligand_efficiency_ln>  (76) 
-0.552394

>  <r_i_glide_gscore>  (76) 
-2.54704

>  <r_i_glide_lipo>  (76) 
-0.385879

>  <r_i_glide_hbond>  (76) 
0

>  <r_i_glide_metal>  (76) 
-0

>  <r_i_glide_rewards>  (76) 
-0.0486646

>  <r_i_glide_evdw>  (76) 
-31.5452

>  <r_i_glide_ecoul>  (76) 
-4.11145

>  <r_i_glide_erotb>  (76) 
0.0814798

>  <r_i_glide_esite>  (76) 
0

>  <r_i_glide_emodel>  (76) 
-41.2611

>  <r_i_glide_energy>  (76) 
-35.6567

>  <r_i_glide_einternal>  (76) 
0.571183

>  <r_i_glide_intrahb_reward>  (76) 
-0

>  <i_i_glide_confnum>  (76) 
3

>  <i_i_glide_posenum>  (76) 
40

>  <r_i_glide_eff_state_penalty>  (76) 
0

>  <ligand_id>  (76) 
23

>  <original_smiles>  (76) 
C=C1C2=C3C(=O)C(c4ccoc4)C2(C)CCC2C(O)(CC(=C)C3C3C4CC5(C(O)CCC45)C32C)C2OC12

>  <smiles>  (76) 
[H]OC1([H])C([H])([H])C([H])([H])C2([H])C3([H])C([H])([H])C12C1(C([H])([H])[H])C3([H])C2([H])C3=C4C(=C([H])[H])C5([H])OC5([H])C(O[H])(C([H])([H])C2=C([H])[H])C1([H])C([H])([H])C([H])([H])C4(C([H])([H])[H])C([H])(c1c([H])oc([H])c1[H])C3=O

$$$$
23:0:2
     RDKit          3D

 73 81  0  0  1  0  0  0  0  0999 V2000
    2.4742    0.0433    1.6936 C   0  0  0  0  0  0  0  0  0  0  0  0
    2.8667   -1.1006    2.2796 C   0  0  0  0  0  0  0  0  0  0  0  0
    2.7925   -2.3887    1.4725 C   0  0  0  0  0  0  0  0  0  0  0  0
    3.1234   -3.1760    2.3866 C   0  0  0  0  0  0  0  0  0  0  0  0
    4.7673   -2.9435    2.2089 C   0  0  0  0  0  0  0  0  0  0  0  0
    5.7287   -3.1934    2.9397 O   0  0  0  0  0  0  0  0  0  0  0  0
    5.0711   -2.4320    0.8341 C   0  0  1  0  0  0  0  0  0  0  0  0
    6.3384   -2.8883    0.1279 C   0  0  0  0  0  0  0  0  0  0  0  0
    6.7132   -2.4903   -1.1841 C   0  0  0  0  0  0  0  0  0  0  0  0
    7.9313   -3.0548   -1.4467 C   0  0  0  0  0  0  0  0  0  0  0  0
    8.3526   -3.7829   -0.3845 O   0  0  0  0  0  0  0  0  0  0  0  0
    7.3843   -3.6711    0.5623 C   0  0  0  0  0  0  0  0  0  0  0  0
    3.7764   -3.0692    0.4345 C   0  0  2  0  0  0  0  0  0  0  0  0
    3.3504   -2.7297   -0.9986 C   0  0  0  0  0  0  0  0  0  0  0  0
    3.9316   -4.7646    0.6330 C   0  0  0  0  0  0  0  0  0  0  0  0
    4.5094   -5.5541    2.0601 C   0  0  0  0  0  0  0  0  0  0  0  0
    4.0936   -5.3217    3.7162 C   0  0  1  0  0  0  0  0  0  0  0  0
    3.9248   -3.8833    4.8658 C   0  0  2  0  0  0  0  0  0  0  0  0
    4.8320   -4.1486    5.9190 O   0  0  0  0  0  0  0  0  0  0  0  0
    2.4941   -3.8119    5.5233 C   0  0  0  0  0  0  0  0  0  0  0  0
    1.5456   -3.3371    4.4495 C   0  0  0  0  0  0  0  0  0  0  0  0
    0.5083   -2.5061    4.6545 C   0  0  0  0  0  0  0  0  0  0  0  0
    1.9034   -3.9891    3.1354 C   0  0  2  0  0  0  0  0  0  0  0  0
    1.7299   -5.5519    3.4975 C   0  0  1  0  0  0  0  0  0  0  0  0
    1.0320   -6.5434    2.5499 C   0  0  1  0  0  0  0  0  0  0  0  0
    1.9722   -7.3348    1.6843 C   0  0  0  0  0  0  0  0  0  0  0  0
    2.5135   -7.6750    3.1005 C   0  0  2  0  0  0  0  0  0  0  0  0
    3.1276   -9.0969    3.1691 C   0  0  1  0  0  0  0  0  0  0  0  0
    3.4558   -9.5838    4.4504 O   0  0  0  0  0  0  0  0  0  0  0  0
    1.9772  -10.0404    2.6855 C   0  0  0  0  0  0  0  0  0  0  0  0
    0.6244   -9.3254    2.9430 C   0  0  0  0  0  0  0  0  0  0  0  0
    1.0089   -7.8871    3.3357 C   0  0  2  0  0  0  0  0  0  0  0  0
    2.9447   -6.3787    3.9763 C   0  0  1  0  0  0  0  0  0  0  0  0
    3.0799   -6.8630    5.4605 C   0  0  0  0  0  0  0  0  0  0  0  0
    3.9438   -2.1638    4.8258 C   0  0  1  0  0  0  0  0  0  0  0  0
    4.7054   -1.1631    4.1198 O   0  0  0  0  0  0  0  0  0  0  0  0
    3.2810   -1.0592    3.8341 C   0  0  1  0  0  0  0  0  0  0  0  0
    2.4495    0.9823    2.2335 H   0  0  0  0  0  0  0  0  0  0  0  0
    2.1591    0.0639    0.6570 H   0  0  0  0  0  0  0  0  0  0  0  0
    5.0208   -1.3410    0.8145 H   0  0  0  0  0  0  0  0  0  0  0  0
    6.1556   -1.8582   -1.8579 H   0  0  0  0  0  0  0  0  0  0  0  0
    8.5948   -3.0491   -2.3012 H   0  0  0  0  0  0  0  0  0  0  0  0
    7.6028   -4.1916    1.4800 H   0  0  0  0  0  0  0  0  0  0  0  0
    4.0167   -3.1692   -1.7419 H   0  0  0  0  0  0  0  0  0  0  0  0
    3.3210   -1.6504   -1.1535 H   0  0  0  0  0  0  0  0  0  0  0  0
    2.3492   -3.1123   -1.1902 H   0  0  0  0  0  0  0  0  0  0  0  0
    2.9569   -5.1035    0.3117 H   0  0  0  0  0  0  0  0  0  0  0  0
    4.5994   -5.1057   -0.1590 H   0  0  0  0  0  0  0  0  0  0  0  0
    4.5424   -6.6196    1.8679 H   0  0  0  0  0  0  0  0  0  0  0  0
    5.5929   -5.4230    2.0269 H   0  0  0  0  0  0  0  0  0  0  0  0
    4.9723   -5.8086    4.1407 H   0  0  0  0  0  0  0  0  0  0  0  0
    4.6977   -5.0328    6.2228 H   0  0  0  0  0  0  0  0  0  0  0  0
    2.0590   -4.6947    5.9649 H   0  0  0  0  0  0  0  0  0  0  0  0
    2.4350   -3.1337    6.3728 H   0  0  0  0  0  0  0  0  0  0  0  0
    0.3156   -2.0933    5.6333 H   0  0  0  0  0  0  0  0  0  0  0  0
   -0.1532   -2.2194    3.8474 H   0  0  0  0  0  0  0  0  0  0  0  0
    1.0480   -3.7797    2.4972 H   0  0  0  0  0  0  0  0  0  0  0  0
    1.0145   -5.5629    4.3224 H   0  0  0  0  0  0  0  0  0  0  0  0
    0.0795   -6.2620    2.1072 H   0  0  0  0  0  0  0  0  0  0  0  0
    1.5066   -8.1061    1.0613 H   0  0  0  0  0  0  0  0  0  0  0  0
    2.6570   -6.8373    1.0542 H   0  0  0  0  0  0  0  0  0  0  0  0
    3.9995   -9.1923    2.5205 H   0  0  0  0  0  0  0  0  0  0  0  0
    2.6522   -9.6979    4.9379 H   0  0  0  0  0  0  0  0  0  0  0  0
    2.0686  -10.1979    1.6127 H   0  0  0  0  0  0  0  0  0  0  0  0
    2.0100  -11.0409    3.1200 H   0  0  0  0  0  0  0  0  0  0  0  0
   -0.0569   -9.3732    2.0895 H   0  0  0  0  0  0  0  0  0  0  0  0
    0.1107   -9.8180    3.7700 H   0  0  0  0  0  0  0  0  0  0  0  0
    0.7034   -7.7164    4.3625 H   0  0  0  0  0  0  0  0  0  0  0  0
    2.1979   -7.3683    5.8471 H   0  0  0  0  0  0  0  0  0  0  0  0
    3.3746   -6.1399    6.2065 H   0  0  0  0  0  0  0  0  0  0  0  0
    3.9223   -7.5444    5.5390 H   0  0  0  0  0  0  0  0  0  0  0  0
    3.9401   -1.8292    5.8613 H   0  0  0  0  0  0  0  0  0  0  0  0
    2.7949   -0.2260    4.3373 H   0  0  0  0  0  0  0  0  0  0  0  0
  1  2  2  0
  1 38  1  0
  1 39  1  0
  2 37  1  0
  2  3  1  0
  3 13  1  0
  3  4  2  0
  4 23  1  0
  4  5  1  0
  5  6  2  0
  5  7  1  0
  7  8  1  0
  7 13  1  0
  7 40  1  1
  8 12  2  0
  8  9  1  0
  9 10  2  0
  9 41  1  0
 10 11  1  0
 10 42  1  0
 11 12  1  0
 12 43  1  0
 13 14  1  6
 13 15  1  0
 14 44  1  0
 14 45  1  0
 14 46  1  0
 15 16  1  0
 15 47  1  0
 15 48  1  0
 16 17  1  0
 16 49  1  0
 16 50  1  0
 17 33  1  0
 17 18  1  0
 17 51  1  1
 18 19  1  1
 18 20  1  0
 18 35  1  0
 19 52  1  0
 20 21  1  0
 20 53  1  0
 20 54  1  0
 21 22  2  0
 21 23  1  0
 22 55  1  0
 22 56  1  0
 23 24  1  0
 23 57  1  6
 24 33  1  0
 24 25  1  0
 24 58  1  1
 25 32  1  0
 25 26  1  0
 25 59  1  6
 27 26  1  6
 26 60  1  0
 26 61  1  0
 27 32  1  0
 27 28  1  0
 27 33  1  0
 28 29  1  0
 28 30  1  0
 28 62  1  6
 29 63  1  0
 30 31  1  0
 30 64  1  0
 30 65  1  0
 31 32  1  0
 31 66  1  0
 31 67  1  0
 32 68  1  1
 33 34  1  1
 34 69  1  0
 34 70  1  0
 34 71  1  0
 35 37  1  0
 35 36  1  0
 35 72  1  1
 36 37  1  0
 37 73  1  1
M  END
>  <i_m_ct_stereo_status>  (77) 
1

>  <s_m_source_file>  (77) 
/var/tmp/pbs.5076255.sched01/tmpx9mnojvb/44r91_cmns.sdf

>  <i_m_source_file_index>  (77) 
4

>  <i_lp_mmshare_version>  (77) 
48012

>  <i_f3d_flags>  (77) 
0

>  <s_epik_input>  (77) 
W0NIMl09QzFbQ0hdKE8yKVtDSF0yW0NAQF0oW09IXSkoW0NIMl1DMz1bQ0gyXSlbQ0BASF0oW0NAQF00NVtDSDNdKVtDSDJdW0NIMl1bQ0BdKFtDSDNdKShbQ0BASF0oQzY9TyljN1tjSF1bY0hdb1tjSF03KUMxPUM2W0NASF0zW0NASF00W0NAQEhdKFtDSDJdOClbQ0BIXShbQ0BdNTg5KVtDSDJdW0NIMl1bQ0BASF05W09IXQ==

>  <s_epik_cmdline>  (77) 
J2VwaWtfcHl0aG9uJywgJy1waHQnLCAnMi4wJywgJy1waCcsICc3LjAnLCAnLXRuJywgJzgnLCAnLW1hJywgJzIwMCcsICctaW1hZScsICc8aW5maWxlLm1hZT4nLCAnLW9tYWUnLCAnPG91dGZpbGUubWFlPic=

>  <r_lp_tautomer_probability>  (77) 
1

>  <r_epik_Ionization_Penalty>  (77) 
2.04057e-06

>  <r_epik_Ionization_Penalty_Charging>  (77) 
0

>  <r_epik_Ionization_Penalty_Neutral>  (77) 
2.04057e-06

>  <r_epik_State_Penalty>  (77) 
-0

>  <r_epik_Charging_Adjusted_Penalty>  (77) 
0

>  <i_epik_Tot_Q>  (77) 
0

>  <i_epik_Tot_abs_Q>  (77) 
0

>  <s_lp_Force_Field>  (77) 
OPLS3e

>  <r_lp_Energy>  (77) 
569.302

>  <b_lp_Chiralities_Consistent>  (77) 
1

>  <s_lp_Variant>  (77) 
23:0-1

>  <s_i_glide_gridfile>  (77) 
pfpi4k_grid

>  <i_i_glide_lignum>  (77) 
4

>  <i_i_glide_rotatable_bonds>  (77) 
3

>  <r_i_docking_score>  (77) 
-2.53727

>  <r_i_glide_ligand_efficiency>  (77) 
-0.0685749

>  <r_i_glide_ligand_efficiency_sa>  (77) 
-0.228507

>  <r_i_glide_ligand_efficiency_ln>  (77) 
-0.550274

>  <r_i_glide_gscore>  (77) 
-2.53727

>  <r_i_glide_lipo>  (77) 
-0.384789

>  <r_i_glide_hbond>  (77) 
0

>  <r_i_glide_metal>  (77) 
-0

>  <r_i_glide_rewards>  (77) 
-0.0477001

>  <r_i_glide_evdw>  (77) 
-31.4189

>  <r_i_glide_ecoul>  (77) 
-4.10211

>  <r_i_glide_erotb>  (77) 
0.0814798

>  <r_i_glide_esite>  (77) 
0

>  <r_i_glide_emodel>  (77) 
-41.202

>  <r_i_glide_energy>  (77) 
-35.521

>  <r_i_glide_einternal>  (77) 
0.328735

>  <r_i_glide_intrahb_reward>  (77) 
-0

>  <i_i_glide_confnum>  (77) 
3

>  <i_i_glide_posenum>  (77) 
26

>  <r_i_glide_eff_state_penalty>  (77) 
0

>  <ligand_id>  (77) 
23

>  <original_smiles>  (77) 
C=C1C2=C3C(=O)C(c4ccoc4)C2(C)CCC2C(O)(CC(=C)C3C3C4CC5(C(O)CCC45)C32C)C2OC12

>  <smiles>  (77) 
[H]OC1([H])C([H])([H])C([H])([H])C2([H])C3([H])C([H])([H])C12C1(C([H])([H])[H])C3([H])C2([H])C3=C4C(=C([H])[H])C5([H])OC5([H])C(O[H])(C([H])([H])C2=C([H])[H])C1([H])C([H])([H])C([H])([H])C4(C([H])([H])[H])C([H])(c1c([H])oc([H])c1[H])C3=O

$$$$
24:0:0
     RDKit          3D

 41 44  0  0  1  0  0  0  0  0999 V2000
    5.2932   -3.6647   -2.7604 C   0  0  0  0  0  0  0  0  0  0  0  0
    4.4023   -2.8823   -1.7709 C   0  0  1  0  0  0  0  0  0  0  0  0
    4.7647   -1.3707   -1.8216 C   0  0  0  0  0  0  0  0  0  0  0  0
    4.3914   -0.6749   -3.1344 C   0  0  0  0  0  0  0  0  0  0  0  0
    2.9344   -0.8800   -3.4794 C   0  0  1  0  0  0  0  0  0  0  0  0
    2.6813   -0.2740   -4.7271 O   0  0  0  0  0  0  0  0  0  0  0  0
    2.5592   -2.3697   -3.5115 C   0  0  0  0  0  0  0  0  0  0  0  0
    2.9342   -3.0493   -2.2024 C   0  0  0  0  0  0  0  0  0  0  0  0
    2.0221   -3.7225   -1.4723 C   0  0  0  0  0  0  0  0  0  0  0  0
    2.3323   -4.4792   -0.1920 C   0  0  0  0  0  0  0  0  0  0  0  0
    3.8377   -4.7181   -0.0203 C   0  0  2  0  0  0  0  0  0  0  0  0
    4.1998   -5.2852    1.3300 C   0  0  0  0  0  0  0  0  0  0  0  0
    5.3001   -4.8387    2.1057 C   0  0  0  0  0  0  0  0  0  0  0  0
    5.4761   -5.5027    3.2463 N   0  0  0  0  0  0  0  0  0  0  0  0
    4.4893   -6.4237    3.2317 N   0  0  0  0  0  0  0  0  0  0  0  0
    3.7220   -6.3047    2.0948 C   0  0  0  0  0  0  0  0  0  0  0  0
    2.4010   -7.3612    1.7797 Cl  0  0  0  0  0  0  0  0  0  0  0  0
    6.2044   -3.7233    1.6792 C   0  0  0  0  0  0  0  0  0  0  0  0
    6.0866   -3.4852    0.1658 C   0  0  0  0  0  0  0  0  0  0  0  0
    4.6070   -3.3988   -0.3052 C   0  0  1  0  0  0  0  0  0  0  0  0
    4.3675   -7.1045    3.9708 H   0  0  0  0  0  0  0  0  0  0  0  0
    6.3545   -3.5419   -2.5440 H   0  0  0  0  0  0  0  0  0  0  0  0
    5.1533   -3.3572   -3.7962 H   0  0  0  0  0  0  0  0  0  0  0  0
    5.0584   -4.7294   -2.7222 H   0  0  0  0  0  0  0  0  0  0  0  0
    4.2573   -0.8442   -1.0127 H   0  0  0  0  0  0  0  0  0  0  0  0
    5.8293   -1.2274   -1.6586 H   0  0  0  0  0  0  0  0  0  0  0  0
    4.5873    0.3951   -3.0550 H   0  0  0  0  0  0  0  0  0  0  0  0
    4.9985   -1.0544   -3.9548 H   0  0  0  0  0  0  0  0  0  0  0  0
    2.3253   -0.3770   -2.7230 H   0  0  0  0  0  0  0  0  0  0  0  0
    2.2138   -0.8919   -5.2817 H   0  0  0  0  0  0  0  0  0  0  0  0
    1.4869   -2.4870   -3.6828 H   0  0  0  0  0  0  0  0  0  0  0  0
    3.0484   -2.8786   -4.3412 H   0  0  0  0  0  0  0  0  0  0  0  0
    0.9993   -3.7771   -1.8245 H   0  0  0  0  0  0  0  0  0  0  0  0
    1.9433   -3.9008    0.6457 H   0  0  0  0  0  0  0  0  0  0  0  0
    1.7989   -5.4294   -0.2161 H   0  0  0  0  0  0  0  0  0  0  0  0
    4.1479   -5.4550   -0.7549 H   0  0  0  0  0  0  0  0  0  0  0  0
    5.9132   -2.8100    2.2086 H   0  0  0  0  0  0  0  0  0  0  0  0
    7.2388   -3.9481    1.9403 H   0  0  0  0  0  0  0  0  0  0  0  0
    6.6505   -2.5922   -0.1032 H   0  0  0  0  0  0  0  0  0  0  0  0
    6.5717   -4.3203   -0.3456 H   0  0  0  0  0  0  0  0  0  0  0  0
    4.1472   -2.6518    0.3442 H   0  0  0  0  0  0  0  0  0  0  0  0
  2  1  1  6
  1 22  1  0
  1 23  1  0
  1 24  1  0
  2  8  1  0
  2 20  1  0
  2  3  1  0
  3  4  1  0
  3 25  1  0
  3 26  1  0
  4  5  1  0
  4 27  1  0
  4 28  1  0
  5  6  1  0
  5  7  1  0
  5 29  1  1
  6 30  1  0
  7  8  1  0
  7 31  1  0
  7 32  1  0
  8  9  2  0
  9 10  1  0
  9 33  1  0
 10 11  1  0
 10 34  1  0
 10 35  1  0
 11 20  1  0
 11 12  1  0
 11 36  1  6
 12 16  2  0
 12 13  1  0
 13 14  2  0
 13 18  1  0
 14 15  1  0
 15 21  1  0
 15 16  1  0
 16 17  1  0
 18 19  1  0
 18 37  1  0
 18 38  1  0
 19 20  1  0
 19 39  1  0
 19 40  1  0
 20 41  1  1
M  END
>  <i_m_ct_stereo_status>  (78) 
1

>  <s_m_source_file>  (78) 
/var/tmp/pbs.5076255.sched01/tmpx9mnojvb/44r91_cmns.sdf

>  <i_m_source_file_index>  (78) 
5

>  <i_lp_mmshare_version>  (78) 
48012

>  <i_f3d_flags>  (78) 
0

>  <s_epik_input>  (78) 
W0NIMl0xW0NIMl1bQ0BASF0oW09IXSlbQ0gyXUMoW0NAQF0xMltDSDNdKT1bQ0hdW0NIMl1bQ0BASF0zYzRjKG5bbkhdYzRDbClbQ0gyXVtDSDJdW0NAQEhdMjM=

>  <s_epik_cmdline>  (78) 
J2VwaWtfcHl0aG9uJywgJy1waHQnLCAnMi4wJywgJy1waCcsICc3LjAnLCAnLXRuJywgJzgnLCAnLW1hJywgJzIwMCcsICctaW1hZScsICc8aW5maWxlLm1hZT4nLCAnLW9tYWUnLCAnPG91dGZpbGUubWFlPic=

>  <r_lp_tautomer_probability>  (78) 
0.5

>  <r_epik_Ionization_Penalty>  (78) 
9.37108e-05

>  <r_epik_Ionization_Penalty_Charging>  (78) 
0

>  <r_epik_Ionization_Penalty_Neutral>  (78) 
9.37108e-05

>  <r_epik_State_Penalty>  (78) 
0.41068

>  <r_epik_Charging_Adjusted_Penalty>  (78) 
0.41068

>  <i_epik_Tot_Q>  (78) 
0

>  <i_epik_Tot_abs_Q>  (78) 
0

>  <s_lp_Force_Field>  (78) 
OPLS3e

>  <r_lp_Energy>  (78) 
17.1377

>  <b_lp_Chiralities_Consistent>  (78) 
1

>  <s_lp_Variant>  (78) 
24:0-1

>  <s_i_glide_gridfile>  (78) 
pfpi4k_grid

>  <i_i_glide_lignum>  (78) 
5

>  <i_i_glide_rotatable_bonds>  (78) 
1

>  <r_i_docking_score>  (78) 
-4.13393

>  <r_i_glide_ligand_efficiency>  (78) 
-0.206697

>  <r_i_glide_ligand_efficiency_sa>  (78) 
-0.561061

>  <r_i_glide_ligand_efficiency_ln>  (78) 
-1.03459

>  <r_i_glide_gscore>  (78) 
-4.13393

>  <r_i_glide_lipo>  (78) 
-0.865626

>  <r_i_glide_hbond>  (78) 
-0.32

>  <r_i_glide_metal>  (78) 
-0

>  <r_i_glide_rewards>  (78) 
-1.4127

>  <r_i_glide_evdw>  (78) 
-22.3569

>  <r_i_glide_ecoul>  (78) 
-2.78507

>  <r_i_glide_erotb>  (78) 
0

>  <r_i_glide_esite>  (78) 
0

>  <r_i_glide_emodel>  (78) 
-31.3085

>  <r_i_glide_energy>  (78) 
-25.1419

>  <r_i_glide_einternal>  (78) 
1.45275

>  <r_i_glide_intrahb_reward>  (78) 
-0

>  <i_i_glide_confnum>  (78) 
2

>  <i_i_glide_posenum>  (78) 
17

>  <r_i_glide_eff_state_penalty>  (78) 
0

>  <ligand_id>  (78) 
24

>  <original_smiles>  (78) 
CC12CCC(O)CC1=CCC1c3c(n[nH]c3Cl)CCC12

>  <smiles>  (78) 
[H]OC1([H])C([H])([H])C2=C([H])C([H])([H])C3([H])c4c(nn([H])c4Cl)C([H])([H])C([H])([H])C3([H])C2(C([H])([H])[H])C([H])([H])C1([H])[H]

$$$$
24:0:1
     RDKit          3D

 41 44  0  0  1  0  0  0  0  0999 V2000
    6.4892   -1.8585   -0.3529 C   0  0  0  0  0  0  0  0  0  0  0  0
    5.0576   -2.4007   -0.1506 C   0  0  1  0  0  0  0  0  0  0  0  0
    4.0185   -1.3479   -0.6404 C   0  0  0  0  0  0  0  0  0  0  0  0
    3.9828   -1.1337   -2.1673 C   0  0  0  0  0  0  0  0  0  0  0  0
    3.7800   -2.4589   -2.9123 C   0  0  1  0  0  0  0  0  0  0  0  0
    3.8120   -2.2269   -4.3078 O   0  0  0  0  0  0  0  0  0  0  0  0
    4.8561   -3.4770   -2.5097 C   0  0  0  0  0  0  0  0  0  0  0  0
    4.8930   -3.6786   -0.9948 C   0  0  0  0  0  0  0  0  0  0  0  0
    4.7617   -4.9062   -0.4516 C   0  0  0  0  0  0  0  0  0  0  0  0
    4.8097   -5.2129    1.0316 C   0  0  0  0  0  0  0  0  0  0  0  0
    5.4390   -4.0544    1.8176 C   0  0  2  0  0  0  0  0  0  0  0  0
    5.3338   -4.2273    3.3150 C   0  0  0  0  0  0  0  0  0  0  0  0
    4.9725   -3.1845    4.2128 C   0  0  0  0  0  0  0  0  0  0  0  0
    4.9940   -3.5357    5.4981 N   0  0  0  0  0  0  0  0  0  0  0  0
    5.3827   -4.8302    5.4699 N   0  0  0  0  0  0  0  0  0  0  0  0
    5.5861   -5.2498    4.1790 C   0  0  0  0  0  0  0  0  0  0  0  0
    6.1312   -6.8425    3.8300 Cl  0  0  0  0  0  0  0  0  0  0  0  0
    4.6131   -1.8012    3.7703 C   0  0  0  0  0  0  0  0  0  0  0  0
    5.1455   -1.5449    2.3452 C   0  0  0  0  0  0  0  0  0  0  0  0
    4.8032   -2.7074    1.3663 C   0  0  1  0  0  0  0  0  0  0  0  0
    5.5041   -5.3813    6.3086 H   0  0  0  0  0  0  0  0  0  0  0  0
    6.6429   -0.9095    0.1670 H   0  0  0  0  0  0  0  0  0  0  0  0
    6.6886   -1.6806   -1.4069 H   0  0  0  0  0  0  0  0  0  0  0  0
    7.2444   -2.5597   -0.0020 H   0  0  0  0  0  0  0  0  0  0  0  0
    3.0183   -1.6565   -0.3315 H   0  0  0  0  0  0  0  0  0  0  0  0
    4.1913   -0.3846   -0.1622 H   0  0  0  0  0  0  0  0  0  0  0  0
    3.1645   -0.4584   -2.4170 H   0  0  0  0  0  0  0  0  0  0  0  0
    4.8960   -0.6421   -2.4991 H   0  0  0  0  0  0  0  0  0  0  0  0
    2.7983   -2.8672   -2.6661 H   0  0  0  0  0  0  0  0  0  0  0  0
    3.0059   -1.7847   -4.5478 H   0  0  0  0  0  0  0  0  0  0  0  0
    4.6598   -4.4279   -3.0050 H   0  0  0  0  0  0  0  0  0  0  0  0
    5.8391   -3.1556   -2.8534 H   0  0  0  0  0  0  0  0  0  0  0  0
    4.6191   -5.7615   -1.0989 H   0  0  0  0  0  0  0  0  0  0  0  0
    3.7915   -5.4095    1.3707 H   0  0  0  0  0  0  0  0  0  0  0  0
    5.3781   -6.1307    1.1776 H   0  0  0  0  0  0  0  0  0  0  0  0
    6.4972   -4.0333    1.5581 H   0  0  0  0  0  0  0  0  0  0  0  0
    3.5260   -1.7005    3.7627 H   0  0  0  0  0  0  0  0  0  0  0  0
    5.0008   -1.0547    4.4637 H   0  0  0  0  0  0  0  0  0  0  0  0
    4.7676   -0.5876    1.9871 H   0  0  0  0  0  0  0  0  0  0  0  0
    6.2314   -1.4444    2.4042 H   0  0  0  0  0  0  0  0  0  0  0  0
    3.7258   -2.8479    1.4711 H   0  0  0  0  0  0  0  0  0  0  0  0
  2  1  1  1
  1 22  1  0
  1 23  1  0
  1 24  1  0
  2  8  1  0
  2 20  1  0
  2  3  1  0
  3  4  1  0
  3 25  1  0
  3 26  1  0
  4  5  1  0
  4 27  1  0
  4 28  1  0
  5  6  1  0
  5  7  1  0
  5 29  1  1
  6 30  1  0
  7  8  1  0
  7 31  1  0
  7 32  1  0
  8  9  2  0
  9 10  1  0
  9 33  1  0
 10 11  1  0
 10 34  1  0
 10 35  1  0
 11 20  1  0
 11 12  1  0
 11 36  1  1
 12 16  2  0
 12 13  1  0
 13 14  2  0
 13 18  1  0
 14 15  1  0
 15 21  1  0
 15 16  1  0
 16 17  1  0
 18 19  1  0
 18 37  1  0
 18 38  1  0
 19 20  1  0
 19 39  1  0
 19 40  1  0
 20 41  1  6
M  END
>  <i_m_ct_stereo_status>  (79) 
1

>  <s_m_source_file>  (79) 
/var/tmp/pbs.5076255.sched01/tmpx9mnojvb/44r91_cmns.sdf

>  <i_m_source_file_index>  (79) 
5

>  <i_lp_mmshare_version>  (79) 
48012

>  <i_f3d_flags>  (79) 
0

>  <s_epik_input>  (79) 
W0NIMl0xW0NIMl1bQ0BASF0oW09IXSlbQ0gyXUMoW0NAQF0xMltDSDNdKT1bQ0hdW0NIMl1bQ0BASF0zYzRjKG5bbkhdYzRDbClbQ0gyXVtDSDJdW0NAQEhdMjM=

>  <s_epik_cmdline>  (79) 
J2VwaWtfcHl0aG9uJywgJy1waHQnLCAnMi4wJywgJy1waCcsICc3LjAnLCAnLXRuJywgJzgnLCAnLW1hJywgJzIwMCcsICctaW1hZScsICc8aW5maWxlLm1hZT4nLCAnLW9tYWUnLCAnPG91dGZpbGUubWFlPic=

>  <r_lp_tautomer_probability>  (79) 
0.5

>  <r_epik_Ionization_Penalty>  (79) 
9.37108e-05

>  <r_epik_Ionization_Penalty_Charging>  (79) 
0

>  <r_epik_Ionization_Penalty_Neutral>  (79) 
9.37108e-05

>  <r_epik_State_Penalty>  (79) 
0.41068

>  <r_epik_Charging_Adjusted_Penalty>  (79) 
0.41068

>  <i_epik_Tot_Q>  (79) 
0

>  <i_epik_Tot_abs_Q>  (79) 
0

>  <s_lp_Force_Field>  (79) 
OPLS3e

>  <r_lp_Energy>  (79) 
17.1377

>  <b_lp_Chiralities_Consistent>  (79) 
1

>  <s_lp_Variant>  (79) 
24:0-1

>  <s_i_glide_gridfile>  (79) 
pfpi4k_grid

>  <i_i_glide_lignum>  (79) 
5

>  <i_i_glide_rotatable_bonds>  (79) 
1

>  <r_i_docking_score>  (79) 
-4.09664

>  <r_i_glide_ligand_efficiency>  (79) 
-0.204832

>  <r_i_glide_ligand_efficiency_sa>  (79) 
-0.556

>  <r_i_glide_ligand_efficiency_ln>  (79) 
-1.02525

>  <r_i_glide_gscore>  (79) 
-4.09664

>  <r_i_glide_lipo>  (79) 
-0.481875

>  <r_i_glide_hbond>  (79) 
-0.32

>  <r_i_glide_metal>  (79) 
-0

>  <r_i_glide_rewards>  (79) 
-1.4127

>  <r_i_glide_evdw>  (79) 
-22.5563

>  <r_i_glide_ecoul>  (79) 
-5.02831

>  <r_i_glide_erotb>  (79) 
0

>  <r_i_glide_esite>  (79) 
0

>  <r_i_glide_emodel>  (79) 
-34.1805

>  <r_i_glide_energy>  (79) 
-27.5846

>  <r_i_glide_einternal>  (79) 
0.418194

>  <r_i_glide_intrahb_reward>  (79) 
-0

>  <i_i_glide_confnum>  (79) 
2

>  <i_i_glide_posenum>  (79) 
14

>  <r_i_glide_eff_state_penalty>  (79) 
0

>  <ligand_id>  (79) 
24

>  <original_smiles>  (79) 
CC12CCC(O)CC1=CCC1c3c(n[nH]c3Cl)CCC12

>  <smiles>  (79) 
[H]OC1([H])C([H])([H])C2=C([H])C([H])([H])C3([H])c4c(nn([H])c4Cl)C([H])([H])C([H])([H])C3([H])C2(C([H])([H])[H])C([H])([H])C1([H])[H]

$$$$
24:0:2
     RDKit          3D

 41 44  0  0  1  0  0  0  0  0999 V2000
    5.3958   -3.5071   -2.9131 C   0  0  0  0  0  0  0  0  0  0  0  0
    4.5349   -2.7631   -1.8720 C   0  0  1  0  0  0  0  0  0  0  0  0
    4.8662   -1.2475   -1.8979 C   0  0  0  0  0  0  0  0  0  0  0  0
    4.4205   -0.5325   -3.1731 C   0  0  0  0  0  0  0  0  0  0  0  0
    2.9612   -0.7448   -3.4717 C   0  0  1  0  0  0  0  0  0  0  0  0
    2.6587   -0.0858   -4.6838 O   0  0  0  0  0  0  0  0  0  0  0  0
    2.6125   -2.2399   -3.5241 C   0  0  0  0  0  0  0  0  0  0  0  0
    3.0530   -2.9383   -2.2427 C   0  0  0  0  0  0  0  0  0  0  0  0
    2.1827   -3.6284   -1.4809 C   0  0  0  0  0  0  0  0  0  0  0  0
    2.5639   -4.4138   -0.2382 C   0  0  0  0  0  0  0  0  0  0  0  0
    4.0769   -4.6487   -0.1588 C   0  0  2  0  0  0  0  0  0  0  0  0
    4.5154   -5.2508    1.1594 C   0  0  0  0  0  0  0  0  0  0  0  0
    5.6427   -4.8012    1.8933 C   0  0  0  0  0  0  0  0  0  0  0  0
    5.8811   -5.4827    3.0132 N   0  0  0  0  0  0  0  0  0  0  0  0
    4.9104   -6.4218    3.0247 N   0  0  0  0  0  0  0  0  0  0  0  0
    4.0918   -6.2908    1.9313 C   0  0  0  0  0  0  0  0  0  0  0  0
    2.7682   -7.3565    1.6782 Cl  0  0  0  0  0  0  0  0  0  0  0  0
    6.5085   -3.6629    1.4606 C   0  0  0  0  0  0  0  0  0  0  0  0
    6.3151   -3.3828   -0.0399 C   0  0  0  0  0  0  0  0  0  0  0  0
    4.8142   -3.3116   -0.4362 C   0  0  1  0  0  0  0  0  0  0  0  0
    4.8312   -7.1208    3.7515 H   0  0  0  0  0  0  0  0  0  0  0  0
    6.4634   -3.3701   -2.7505 H   0  0  0  0  0  0  0  0  0  0  0  0
    5.1901   -3.1706   -3.9229 H   0  0  0  0  0  0  0  0  0  0  0  0
    5.1859   -4.5775   -2.8991 H   0  0  0  0  0  0  0  0  0  0  0  0
    4.3903   -0.7483   -1.0517 H   0  0  0  0  0  0  0  0  0  0  0  0
    5.9325   -1.0902   -1.7891 H   0  0  0  0  0  0  0  0  0  0  0  0
    4.6030    0.5393   -3.0782 H   0  0  0  0  0  0  0  0  0  0  0  0
    4.9953   -0.8808   -4.0296 H   0  0  0  0  0  0  0  0  0  0  0  0
    2.3604   -0.2766   -2.6880 H   0  0  0  0  0  0  0  0  0  0  0  0
    2.3776    0.7945   -4.4655 H   0  0  0  0  0  0  0  0  0  0  0  0
    1.5390   -2.3701   -3.6500 H   0  0  0  0  0  0  0  0  0  0  0  0
    3.0694   -2.7181   -4.3873 H   0  0  0  0  0  0  0  0  0  0  0  0
    1.1478   -3.6969   -1.7876 H   0  0  0  0  0  0  0  0  0  0  0  0
    2.2142   -3.8686    0.6364 H   0  0  0  0  0  0  0  0  0  0  0  0
    2.0421   -5.3693   -0.2672 H   0  0  0  0  0  0  0  0  0  0  0  0
    4.3493   -5.3557   -0.9403 H   0  0  0  0  0  0  0  0  0  0  0  0
    6.2281   -2.7704    2.0248 H   0  0  0  0  0  0  0  0  0  0  0  0
    7.5580   -3.8714    1.6696 H   0  0  0  0  0  0  0  0  0  0  0  0
    6.8529   -2.4730   -0.3099 H   0  0  0  0  0  0  0  0  0  0  0  0
    6.7863   -4.1989   -0.5929 H   0  0  0  0  0  0  0  0  0  0  0  0
    4.3734   -2.5914    0.2545 H   0  0  0  0  0  0  0  0  0  0  0  0
  2  1  1  6
  1 22  1  0
  1 23  1  0
  1 24  1  0
  2  8  1  0
  2 20  1  0
  2  3  1  0
  3  4  1  0
  3 25  1  0
  3 26  1  0
  4  5  1  0
  4 27  1  0
  4 28  1  0
  5  6  1  0
  5  7  1  0
  5 29  1  1
  6 30  1  0
  7  8  1  0
  7 31  1  0
  7 32  1  0
  8  9  2  0
  9 10  1  0
  9 33  1  0
 10 11  1  0
 10 34  1  0
 10 35  1  0
 11 20  1  0
 11 12  1  0
 11 36  1  6
 12 16  2  0
 12 13  1  0
 13 14  2  0
 13 18  1  0
 14 15  1  0
 15 21  1  0
 15 16  1  0
 16 17  1  0
 18 19  1  0
 18 37  1  0
 18 38  1  0
 19 20  1  0
 19 39  1  0
 19 40  1  0
 20 41  1  1
M  END
>  <i_m_ct_stereo_status>  (80) 
1

>  <s_m_source_file>  (80) 
/var/tmp/pbs.5076255.sched01/tmpx9mnojvb/44r91_cmns.sdf

>  <i_m_source_file_index>  (80) 
5

>  <i_lp_mmshare_version>  (80) 
48012

>  <i_f3d_flags>  (80) 
0

>  <s_epik_input>  (80) 
W0NIMl0xW0NIMl1bQ0BASF0oW09IXSlbQ0gyXUMoW0NAQF0xMltDSDNdKT1bQ0hdW0NIMl1bQ0BASF0zYzRjKG5bbkhdYzRDbClbQ0gyXVtDSDJdW0NAQEhdMjM=

>  <s_epik_cmdline>  (80) 
J2VwaWtfcHl0aG9uJywgJy1waHQnLCAnMi4wJywgJy1waCcsICc3LjAnLCAnLXRuJywgJzgnLCAnLW1hJywgJzIwMCcsICctaW1hZScsICc8aW5maWxlLm1hZT4nLCAnLW9tYWUnLCAnPG91dGZpbGUubWFlPic=

>  <r_lp_tautomer_probability>  (80) 
0.5

>  <r_epik_Ionization_Penalty>  (80) 
9.37108e-05

>  <r_epik_Ionization_Penalty_Charging>  (80) 
0

>  <r_epik_Ionization_Penalty_Neutral>  (80) 
9.37108e-05

>  <r_epik_State_Penalty>  (80) 
0.41068

>  <r_epik_Charging_Adjusted_Penalty>  (80) 
0.41068

>  <i_epik_Tot_Q>  (80) 
0

>  <i_epik_Tot_abs_Q>  (80) 
0

>  <s_lp_Force_Field>  (80) 
OPLS3e

>  <r_lp_Energy>  (80) 
17.1377

>  <b_lp_Chiralities_Consistent>  (80) 
1

>  <s_lp_Variant>  (80) 
24:0-1

>  <s_i_glide_gridfile>  (80) 
pfpi4k_grid

>  <i_i_glide_lignum>  (80) 
5

>  <i_i_glide_rotatable_bonds>  (80) 
1

>  <r_i_docking_score>  (80) 
-3.87535

>  <r_i_glide_ligand_efficiency>  (80) 
-0.193767

>  <r_i_glide_ligand_efficiency_sa>  (80) 
-0.525965

>  <r_i_glide_ligand_efficiency_ln>  (80) 
-0.969871

>  <r_i_glide_gscore>  (80) 
-3.87535

>  <r_i_glide_lipo>  (80) 
-1.04876

>  <r_i_glide_hbond>  (80) 
-0.0381599

>  <r_i_glide_metal>  (80) 
-0

>  <r_i_glide_rewards>  (80) 
-1.4127

>  <r_i_glide_evdw>  (80) 
-23.1757

>  <r_i_glide_ecoul>  (80) 
-1.44627

>  <r_i_glide_erotb>  (80) 
0

>  <r_i_glide_esite>  (80) 
0

>  <r_i_glide_emodel>  (80) 
-30.4205

>  <r_i_glide_energy>  (80) 
-24.622

>  <r_i_glide_einternal>  (80) 
0.733258

>  <r_i_glide_intrahb_reward>  (80) 
-0

>  <i_i_glide_confnum>  (80) 
2

>  <i_i_glide_posenum>  (80) 
38

>  <r_i_glide_eff_state_penalty>  (80) 
0

>  <ligand_id>  (80) 
24

>  <original_smiles>  (80) 
CC12CCC(O)CC1=CCC1c3c(n[nH]c3Cl)CCC12

>  <smiles>  (80) 
[H]OC1([H])C([H])([H])C2=C([H])C([H])([H])C3([H])c4c(nn([H])c4Cl)C([H])([H])C([H])([H])C3([H])C2(C([H])([H])[H])C([H])([H])C1([H])[H]

$$$$
24:1:0
     RDKit          3D

 41 44  0  0  1  0  0  0  0  0999 V2000
    5.3466   -3.4287   -2.8117 C   0  0  0  0  0  0  0  0  0  0  0  0
    4.3810   -2.6060   -1.9251 C   0  0  1  0  0  0  0  0  0  0  0  0
    4.6749   -1.0879   -2.0660 C   0  0  0  0  0  0  0  0  0  0  0  0
    4.3002   -0.4986   -3.4321 C   0  0  0  0  0  0  0  0  0  0  0  0
    2.8764   -0.7729   -3.8201 C   0  0  1  0  0  0  0  0  0  0  0  0
    2.6699   -0.2447   -5.1121 O   0  0  0  0  0  0  0  0  0  0  0  0
    2.5837   -2.2765   -3.7646 C   0  0  0  0  0  0  0  0  0  0  0  0
    2.9402   -2.8532   -2.4016 C   0  0  0  0  0  0  0  0  0  0  0  0
    2.0280   -3.5036   -1.6591 C   0  0  0  0  0  0  0  0  0  0  0  0
    2.3084   -4.1712   -0.3248 C   0  0  0  0  0  0  0  0  0  0  0  0
    3.8128   -4.3361   -0.0727 C   0  0  2  0  0  0  0  0  0  0  0  0
    4.1399   -4.7735    1.3361 C   0  0  0  0  0  0  0  0  0  0  0  0
    5.1426   -4.2313    2.0824 C   0  0  0  0  0  0  0  0  0  0  0  0
    5.1910   -4.9024    3.2835 N   0  0  0  0  0  0  0  0  0  0  0  0
    4.2670   -5.8823    3.3641 N   0  0  0  0  0  0  0  0  0  0  0  0
    3.6525   -5.8063    2.1907 C   0  0  0  0  0  0  0  0  0  0  0  0
    2.3889   -6.9103    1.7728 Cl  0  0  0  0  0  0  0  0  0  0  0  0
    6.0377   -3.1352    1.6497 C   0  0  0  0  0  0  0  0  0  0  0  0
    5.9956   -2.9784    0.1196 C   0  0  0  0  0  0  0  0  0  0  0  0
    4.5374   -3.0029   -0.4211 C   0  0  1  0  0  0  0  0  0  0  0  0
    5.8501   -4.7283    4.0339 H   0  0  0  0  0  0  0  0  0  0  0  0
    6.3913   -3.2420   -2.5642 H   0  0  0  0  0  0  0  0  0  0  0  0
    5.2360   -3.1999   -3.8708 H   0  0  0  0  0  0  0  0  0  0  0  0
    5.1624   -4.4978   -2.7053 H   0  0  0  0  0  0  0  0  0  0  0  0
    4.1273   -0.5330   -1.3031 H   0  0  0  0  0  0  0  0  0  0  0  0
    5.7281   -0.8850   -1.8840 H   0  0  0  0  0  0  0  0  0  0  0  0
    4.4565    0.5832   -3.4111 H   0  0  0  0  0  0  0  0  0  0  0  0
    4.9638   -0.9023   -4.2007 H   0  0  0  0  0  0  0  0  0  0  0  0
    2.2284   -0.2390   -3.1189 H   0  0  0  0  0  0  0  0  0  0  0  0
    2.2131   -0.9007   -5.6402 H   0  0  0  0  0  0  0  0  0  0  0  0
    1.5268   -2.4563   -3.9718 H   0  0  0  0  0  0  0  0  0  0  0  0
    3.1338   -2.8136   -4.5358 H   0  0  0  0  0  0  0  0  0  0  0  0
    1.0217   -3.6197   -2.0388 H   0  0  0  0  0  0  0  0  0  0  0  0
    1.8493   -3.5610    0.4524 H   0  0  0  0  0  0  0  0  0  0  0  0
    1.8185   -5.1451   -0.3208 H   0  0  0  0  0  0  0  0  0  0  0  0
    4.1764   -5.1096   -0.7484 H   0  0  0  0  0  0  0  0  0  0  0  0
    7.0556   -3.3446    1.9647 H   0  0  0  0  0  0  0  0  0  0  0  0
    5.7225   -2.2027    2.1216 H   0  0  0  0  0  0  0  0  0  0  0  0
    6.5326   -2.0790   -0.1725 H   0  0  0  0  0  0  0  0  0  0  0  0
    6.5393   -3.8195   -0.3152 H   0  0  0  0  0  0  0  0  0  0  0  0
    4.0144   -2.2356    0.1540 H   0  0  0  0  0  0  0  0  0  0  0  0
  2  1  1  6
  1 22  1  0
  1 23  1  0
  1 24  1  0
  2  8  1  0
  2 20  1  0
  2  3  1  0
  3  4  1  0
  3 25  1  0
  3 26  1  0
  4  5  1  0
  4 27  1  0
  4 28  1  0
  5  6  1  0
  5  7  1  0
  5 29  1  1
  6 30  1  0
  7  8  1  0
  7 31  1  0
  7 32  1  0
  8  9  2  0
  9 10  1  0
  9 33  1  0
 10 11  1  0
 10 34  1  0
 10 35  1  0
 11 20  1  0
 11 36  1  6
 11 12  1  0
 12 13  2  0
 12 16  1  0
 13 14  1  0
 13 18  1  0
 14 15  1  0
 14 21  1  0
 15 16  2  0
 16 17  1  0
 18 19  1  0
 18 37  1  0
 18 38  1  0
 19 20  1  0
 19 39  1  0
 19 40  1  0
 20 41  1  1
M  END
>  <i_m_ct_stereo_status>  (81) 
1

>  <s_m_source_file>  (81) 
/var/tmp/pbs.5076255.sched01/tmpx9mnojvb/44r91_cmns.sdf

>  <i_m_source_file_index>  (81) 
6

>  <i_lp_mmshare_version>  (81) 
48012

>  <i_f3d_flags>  (81) 
0

>  <s_epik_input>  (81) 
W0NIMl0xW0NIMl1bQ0BASF0oW09IXSlbQ0gyXUMoW0NAQF0xMltDSDNdKT1bQ0hdW0NIMl1bQ0BASF0zYzRjKG5bbkhdYzRDbClbQ0gyXVtDSDJdW0NAQEhdMjM=

>  <s_epik_cmdline>  (81) 
J2VwaWtfcHl0aG9uJywgJy1waHQnLCAnMi4wJywgJy1waCcsICc3LjAnLCAnLXRuJywgJzgnLCAnLW1hJywgJzIwMCcsICctaW1hZScsICc8aW5maWxlLm1hZT4nLCAnLW9tYWUnLCAnPG91dGZpbGUubWFlPic=

>  <r_lp_tautomer_probability>  (81) 
0.5

>  <r_epik_Ionization_Penalty>  (81) 
1.0908e-06

>  <r_epik_Ionization_Penalty_Charging>  (81) 
0

>  <r_epik_Ionization_Penalty_Neutral>  (81) 
1.0908e-06

>  <r_epik_State_Penalty>  (81) 
0.41068

>  <r_epik_Charging_Adjusted_Penalty>  (81) 
0.41068

>  <i_epik_Tot_Q>  (81) 
0

>  <i_epik_Tot_abs_Q>  (81) 
0

>  <s_lp_Force_Field>  (81) 
OPLS3e

>  <r_lp_Energy>  (81) 
17.0187

>  <b_lp_Chiralities_Consistent>  (81) 
1

>  <s_lp_Variant>  (81) 
24:0-2

>  <s_i_glide_gridfile>  (81) 
pfpi4k_grid

>  <i_i_glide_lignum>  (81) 
6

>  <i_i_glide_rotatable_bonds>  (81) 
1

>  <r_i_docking_score>  (81) 
-4.47409

>  <r_i_glide_ligand_efficiency>  (81) 
-0.223704

>  <r_i_glide_ligand_efficiency_sa>  (81) 
-0.607227

>  <r_i_glide_ligand_efficiency_ln>  (81) 
-1.11972

>  <r_i_glide_gscore>  (81) 
-4.47409

>  <r_i_glide_lipo>  (81) 
-1.08341

>  <r_i_glide_hbond>  (81) 
-0.32

>  <r_i_glide_metal>  (81) 
-0

>  <r_i_glide_rewards>  (81) 
-1.4127

>  <r_i_glide_evdw>  (81) 
-20.4266

>  <r_i_glide_ecoul>  (81) 
-4.24429

>  <r_i_glide_erotb>  (81) 
0

>  <r_i_glide_esite>  (81) 
0

>  <r_i_glide_emodel>  (81) 
-31.1887

>  <r_i_glide_energy>  (81) 
-24.6708

>  <r_i_glide_einternal>  (81) 
1.44979

>  <r_i_glide_intrahb_reward>  (81) 
-0

>  <i_i_glide_confnum>  (81) 
1

>  <i_i_glide_posenum>  (81) 
33

>  <r_i_glide_eff_state_penalty>  (81) 
0

>  <ligand_id>  (81) 
24

>  <original_smiles>  (81) 
CC12CCC(O)CC1=CCC1c3c(n[nH]c3Cl)CCC12

>  <smiles>  (81) 
[H]OC1([H])C([H])([H])C2=C([H])C([H])([H])C3([H])c4c(Cl)nn([H])c4C([H])([H])C([H])([H])C3([H])C2(C([H])([H])[H])C([H])([H])C1([H])[H]

$$$$
24:1:1
     RDKit          3D

 41 44  0  0  1  0  0  0  0  0999 V2000
    6.4889   -1.8571   -0.3567 C   0  0  0  0  0  0  0  0  0  0  0  0
    5.0431   -2.3591   -0.1458 C   0  0  1  0  0  0  0  0  0  0  0  0
    4.0309   -1.2966   -0.6723 C   0  0  0  0  0  0  0  0  0  0  0  0
    4.0044   -1.1277   -2.2041 C   0  0  0  0  0  0  0  0  0  0  0  0
    3.7729   -2.4694   -2.9088 C   0  0  1  0  0  0  0  0  0  0  0  0
    3.8128   -2.2745   -4.3103 O   0  0  0  0  0  0  0  0  0  0  0  0
    4.8256   -3.4988   -2.4722 C   0  0  0  0  0  0  0  0  0  0  0  0
    4.8542   -3.6567   -0.9508 C   0  0  0  0  0  0  0  0  0  0  0  0
    4.7003   -4.8632   -0.3681 C   0  0  0  0  0  0  0  0  0  0  0  0
    4.7363   -5.1248    1.1240 C   0  0  0  0  0  0  0  0  0  0  0  0
    5.3758   -3.9524    1.8822 C   0  0  2  0  0  0  0  0  0  0  0  0
    5.2417   -4.0589    3.3856 C   0  0  0  0  0  0  0  0  0  0  0  0
    4.9133   -3.0164    4.1958 C   0  0  0  0  0  0  0  0  0  0  0  0
    4.9461   -3.4610    5.5006 N   0  0  0  0  0  0  0  0  0  0  0  0
    5.3057   -4.7588    5.5911 N   0  0  0  0  0  0  0  0  0  0  0  0
    5.4889   -5.1066    4.3244 C   0  0  0  0  0  0  0  0  0  0  0  0
    6.0385   -6.6905    3.9094 Cl  0  0  0  0  0  0  0  0  0  0  0  0
    4.6071   -1.6331    3.7514 C   0  0  0  0  0  0  0  0  0  0  0  0
    5.1262   -1.4152    2.3170 C   0  0  0  0  0  0  0  0  0  0  0  0
    4.7709   -2.6078    1.3762 C   0  0  1  0  0  0  0  0  0  0  0  0
    4.7540   -2.9036    6.3212 H   0  0  0  0  0  0  0  0  0  0  0  0
    6.6620   -0.8990    0.1321 H   0  0  0  0  0  0  0  0  0  0  0  0
    6.7035   -1.7224   -1.4147 H   0  0  0  0  0  0  0  0  0  0  0  0
    7.2240   -2.5669    0.0245 H   0  0  0  0  0  0  0  0  0  0  0  0
    3.0223   -1.5725   -0.3587 H   0  0  0  0  0  0  0  0  0  0  0  0
    4.2228   -0.3235   -0.2226 H   0  0  0  0  0  0  0  0  0  0  0  0
    3.2050   -0.4370   -2.4774 H   0  0  0  0  0  0  0  0  0  0  0  0
    4.9324   -0.6706   -2.5451 H   0  0  0  0  0  0  0  0  0  0  0  0
    2.7819   -2.8481   -2.6535 H   0  0  0  0  0  0  0  0  0  0  0  0
    2.9998   -1.8556   -4.5690 H   0  0  0  0  0  0  0  0  0  0  0  0
    4.6175   -4.4606   -2.9409 H   0  0  0  0  0  0  0  0  0  0  0  0
    5.8156   -3.2079   -2.8211 H   0  0  0  0  0  0  0  0  0  0  0  0
    4.5531   -5.7365   -0.9883 H   0  0  0  0  0  0  0  0  0  0  0  0
    3.7138   -5.3046    1.4615 H   0  0  0  0  0  0  0  0  0  0  0  0
    5.2956   -6.0449    1.2936 H   0  0  0  0  0  0  0  0  0  0  0  0
    6.4387   -3.9601    1.6425 H   0  0  0  0  0  0  0  0  0  0  0  0
    5.0463   -0.9023    4.4315 H   0  0  0  0  0  0  0  0  0  0  0  0
    3.5262   -1.4898    3.7651 H   0  0  0  0  0  0  0  0  0  0  0  0
    4.7617   -0.4631    1.9348 H   0  0  0  0  0  0  0  0  0  0  0  0
    6.2131   -1.3301    2.3701 H   0  0  0  0  0  0  0  0  0  0  0  0
    3.6903   -2.7264    1.4747 H   0  0  0  0  0  0  0  0  0  0  0  0
  2  1  1  1
  1 22  1  0
  1 23  1  0
  1 24  1  0
  2  8  1  0
  2 20  1  0
  2  3  1  0
  3  4  1  0
  3 25  1  0
  3 26  1  0
  4  5  1  0
  4 27  1  0
  4 28  1  0
  5  6  1  0
  5  7  1  0
  5 29  1  6
  6 30  1  0
  7  8  1  0
  7 31  1  0
  7 32  1  0
  8  9  2  0
  9 10  1  0
  9 33  1  0
 10 11  1  0
 10 34  1  0
 10 35  1  0
 11 20  1  0
 11 36  1  1
 11 12  1  0
 12 13  2  0
 12 16  1  0
 13 14  1  0
 13 18  1  0
 14 15  1  0
 14 21  1  0
 15 16  2  0
 16 17  1  0
 18 19  1  0
 18 37  1  0
 18 38  1  0
 19 20  1  0
 19 39  1  0
 19 40  1  0
 20 41  1  6
M  END
>  <i_m_ct_stereo_status>  (82) 
1

>  <s_m_source_file>  (82) 
/var/tmp/pbs.5076255.sched01/tmpx9mnojvb/44r91_cmns.sdf

>  <i_m_source_file_index>  (82) 
6

>  <i_lp_mmshare_version>  (82) 
48012

>  <i_f3d_flags>  (82) 
0

>  <s_epik_input>  (82) 
W0NIMl0xW0NIMl1bQ0BASF0oW09IXSlbQ0gyXUMoW0NAQF0xMltDSDNdKT1bQ0hdW0NIMl1bQ0BASF0zYzRjKG5bbkhdYzRDbClbQ0gyXVtDSDJdW0NAQEhdMjM=

>  <s_epik_cmdline>  (82) 
J2VwaWtfcHl0aG9uJywgJy1waHQnLCAnMi4wJywgJy1waCcsICc3LjAnLCAnLXRuJywgJzgnLCAnLW1hJywgJzIwMCcsICctaW1hZScsICc8aW5maWxlLm1hZT4nLCAnLW9tYWUnLCAnPG91dGZpbGUubWFlPic=

>  <r_lp_tautomer_probability>  (82) 
0.5

>  <r_epik_Ionization_Penalty>  (82) 
1.0908e-06

>  <r_epik_Ionization_Penalty_Charging>  (82) 
0

>  <r_epik_Ionization_Penalty_Neutral>  (82) 
1.0908e-06

>  <r_epik_State_Penalty>  (82) 
0.41068

>  <r_epik_Charging_Adjusted_Penalty>  (82) 
0.41068

>  <i_epik_Tot_Q>  (82) 
0

>  <i_epik_Tot_abs_Q>  (82) 
0

>  <s_lp_Force_Field>  (82) 
OPLS3e

>  <r_lp_Energy>  (82) 
17.0187

>  <b_lp_Chiralities_Consistent>  (82) 
1

>  <s_lp_Variant>  (82) 
24:0-2

>  <s_i_glide_gridfile>  (82) 
pfpi4k_grid

>  <i_i_glide_lignum>  (82) 
6

>  <i_i_glide_rotatable_bonds>  (82) 
1

>  <r_i_docking_score>  (82) 
-4.06891

>  <r_i_glide_ligand_efficiency>  (82) 
-0.203445

>  <r_i_glide_ligand_efficiency_sa>  (82) 
-0.552236

>  <r_i_glide_ligand_efficiency_ln>  (82) 
-1.01831

>  <r_i_glide_gscore>  (82) 
-4.06891

>  <r_i_glide_lipo>  (82) 
-0.46287

>  <r_i_glide_hbond>  (82) 
-0.331091

>  <r_i_glide_metal>  (82) 
-0

>  <r_i_glide_rewards>  (82) 
-1.4127

>  <r_i_glide_evdw>  (82) 
-22.5729

>  <r_i_glide_ecoul>  (82) 
-4.89066

>  <r_i_glide_erotb>  (82) 
0

>  <r_i_glide_esite>  (82) 
0

>  <r_i_glide_emodel>  (82) 
-33.7894

>  <r_i_glide_energy>  (82) 
-27.4636

>  <r_i_glide_einternal>  (82) 
0.464052

>  <r_i_glide_intrahb_reward>  (82) 
-0

>  <i_i_glide_confnum>  (82) 
1

>  <i_i_glide_posenum>  (82) 
25

>  <r_i_glide_eff_state_penalty>  (82) 
0

>  <ligand_id>  (82) 
24

>  <original_smiles>  (82) 
CC12CCC(O)CC1=CCC1c3c(n[nH]c3Cl)CCC12

>  <smiles>  (82) 
[H]OC1([H])C([H])([H])C2=C([H])C([H])([H])C3([H])c4c(Cl)nn([H])c4C([H])([H])C([H])([H])C3([H])C2(C([H])([H])[H])C([H])([H])C1([H])[H]

$$$$
24:1:2
     RDKit          3D

 41 44  0  0  1  0  0  0  0  0999 V2000
    6.4805   -1.8594   -0.1592 C   0  0  0  0  0  0  0  0  0  0  0  0
    4.9489   -2.0440   -0.0466 C   0  0  1  0  0  0  0  0  0  0  0  0
    4.2163   -0.8568   -0.7335 C   0  0  0  0  0  0  0  0  0  0  0  0
    4.3435   -0.8120   -2.2691 C   0  0  0  0  0  0  0  0  0  0  0  0
    3.8874   -2.1327   -2.8953 C   0  0  1  0  0  0  0  0  0  0  0  0
    4.0631   -2.0625   -4.2940 O   0  0  0  0  0  0  0  0  0  0  0  0
    4.6676   -3.3149   -2.2993 C   0  0  0  0  0  0  0  0  0  0  0  0
    4.5519   -3.3402   -0.7764 C   0  0  0  0  0  0  0  0  0  0  0  0
    4.0976   -4.4343   -0.1274 C   0  0  0  0  0  0  0  0  0  0  0  0
    3.9707   -4.5624    1.3778 C   0  0  0  0  0  0  0  0  0  0  0  0
    4.7848   -3.4824    2.1098 C   0  0  2  0  0  0  0  0  0  0  0  0
    4.5225   -3.4275    3.6015 C   0  0  0  0  0  0  0  0  0  0  0  0
    4.3548   -2.2718    4.3037 C   0  0  0  0  0  0  0  0  0  0  0  0
    4.1866   -2.5988    5.6327 N   0  0  0  0  0  0  0  0  0  0  0  0
    4.2547   -3.9293    5.8437 N   0  0  0  0  0  0  0  0  0  0  0  0
    4.4682   -4.4157    4.6293 C   0  0  0  0  0  0  0  0  0  0  0  0
    4.6935   -6.1083    4.3766 Cl  0  0  0  0  0  0  0  0  0  0  0  0
    4.3757   -0.9006    3.7360 C   0  0  0  0  0  0  0  0  0  0  0  0
    5.0348   -0.9199    2.3429 C   0  0  0  0  0  0  0  0  0  0  0  0
    4.5123   -2.0932    1.4579 C   0  0  1  0  0  0  0  0  0  0  0  0
    4.0509   -1.9437    6.3905 H   0  0  0  0  0  0  0  0  0  0  0  0
    6.8060   -0.9160    0.2803 H   0  0  0  0  0  0  0  0  0  0  0  0
    6.8143   -1.8608   -1.1956 H   0  0  0  0  0  0  0  0  0  0  0  0
    7.0173   -2.6629    0.3448 H   0  0  0  0  0  0  0  0  0  0  0  0
    3.1531   -0.8985   -0.4920 H   0  0  0  0  0  0  0  0  0  0  0  0
    4.5723    0.0884   -0.3277 H   0  0  0  0  0  0  0  0  0  0  0  0
    3.7437    0.0055   -2.6762 H   0  0  0  0  0  0  0  0  0  0  0  0
    5.3730   -0.5934   -2.5441 H   0  0  0  0  0  0  0  0  0  0  0  0
    2.8227   -2.2772   -2.7052 H   0  0  0  0  0  0  0  0  0  0  0  0
    3.3790   -1.5041   -4.6420 H   0  0  0  0  0  0  0  0  0  0  0  0
    4.2952   -4.2500   -2.7170 H   0  0  0  0  0  0  0  0  0  0  0  0
    5.7207   -3.2553   -2.5747 H   0  0  0  0  0  0  0  0  0  0  0  0
    3.8097   -5.3033   -0.7016 H   0  0  0  0  0  0  0  0  0  0  0  0
    2.9117   -4.4973    1.6326 H   0  0  0  0  0  0  0  0  0  0  0  0
    4.3105   -5.5575    1.6626 H   0  0  0  0  0  0  0  0  0  0  0  0
    5.8374   -3.7254    1.9697 H   0  0  0  0  0  0  0  0  0  0  0  0
    4.9047   -0.2176    4.4020 H   0  0  0  0  0  0  0  0  0  0  0  0
    3.3476   -0.5467    3.6418 H   0  0  0  0  0  0  0  0  0  0  0  0
    4.9041    0.0494    1.8653 H   0  0  0  0  0  0  0  0  0  0  0  0
    6.1083   -1.0484    2.4900 H   0  0  0  0  0  0  0  0  0  0  0  0
    3.4267   -1.9819    1.4626 H   0  0  0  0  0  0  0  0  0  0  0  0
  2  1  1  1
  1 22  1  0
  1 23  1  0
  1 24  1  0
  2  8  1  0
  2 20  1  0
  2  3  1  0
  3  4  1  0
  3 25  1  0
  3 26  1  0
  4  5  1  0
  4 27  1  0
  4 28  1  0
  5  6  1  0
  5  7  1  0
  5 29  1  6
  6 30  1  0
  7  8  1  0
  7 31  1  0
  7 32  1  0
  8  9  2  0
  9 10  1  0
  9 33  1  0
 10 11  1  0
 10 34  1  0
 10 35  1  0
 11 20  1  0
 11 36  1  1
 11 12  1  0
 12 13  2  0
 12 16  1  0
 13 14  1  0
 13 18  1  0
 14 15  1  0
 14 21  1  0
 15 16  2  0
 16 17  1  0
 18 19  1  0
 18 37  1  0
 18 38  1  0
 19 20  1  0
 19 39  1  0
 19 40  1  0
 20 41  1  6
M  END
>  <i_m_ct_stereo_status>  (83) 
1

>  <s_m_source_file>  (83) 
/var/tmp/pbs.5076255.sched01/tmpx9mnojvb/44r91_cmns.sdf

>  <i_m_source_file_index>  (83) 
6

>  <i_lp_mmshare_version>  (83) 
48012

>  <i_f3d_flags>  (83) 
0

>  <s_epik_input>  (83) 
W0NIMl0xW0NIMl1bQ0BASF0oW09IXSlbQ0gyXUMoW0NAQF0xMltDSDNdKT1bQ0hdW0NIMl1bQ0BASF0zYzRjKG5bbkhdYzRDbClbQ0gyXVtDSDJdW0NAQEhdMjM=

>  <s_epik_cmdline>  (83) 
J2VwaWtfcHl0aG9uJywgJy1waHQnLCAnMi4wJywgJy1waCcsICc3LjAnLCAnLXRuJywgJzgnLCAnLW1hJywgJzIwMCcsICctaW1hZScsICc8aW5maWxlLm1hZT4nLCAnLW9tYWUnLCAnPG91dGZpbGUubWFlPic=

>  <r_lp_tautomer_probability>  (83) 
0.5

>  <r_epik_Ionization_Penalty>  (83) 
1.0908e-06

>  <r_epik_Ionization_Penalty_Charging>  (83) 
0

>  <r_epik_Ionization_Penalty_Neutral>  (83) 
1.0908e-06

>  <r_epik_State_Penalty>  (83) 
0.41068

>  <r_epik_Charging_Adjusted_Penalty>  (83) 
0.41068

>  <i_epik_Tot_Q>  (83) 
0

>  <i_epik_Tot_abs_Q>  (83) 
0

>  <s_lp_Force_Field>  (83) 
OPLS3e

>  <r_lp_Energy>  (83) 
17.0187

>  <b_lp_Chiralities_Consistent>  (83) 
1

>  <s_lp_Variant>  (83) 
24:0-2

>  <s_i_glide_gridfile>  (83) 
pfpi4k_grid

>  <i_i_glide_lignum>  (83) 
6

>  <i_i_glide_rotatable_bonds>  (83) 
1

>  <r_i_docking_score>  (83) 
-3.81219

>  <r_i_glide_ligand_efficiency>  (83) 
-0.190609

>  <r_i_glide_ligand_efficiency_sa>  (83) 
-0.517393

>  <r_i_glide_ligand_efficiency_ln>  (83) 
-0.954065

>  <r_i_glide_gscore>  (83) 
-3.81219

>  <r_i_glide_lipo>  (83) 
-0.398622

>  <r_i_glide_hbond>  (83) 
-0.32

>  <r_i_glide_metal>  (83) 
-0

>  <r_i_glide_rewards>  (83) 
-1.4127

>  <r_i_glide_evdw>  (83) 
-21.1037

>  <r_i_glide_ecoul>  (83) 
-4.17115

>  <r_i_glide_erotb>  (83) 
0

>  <r_i_glide_esite>  (83) 
0

>  <r_i_glide_emodel>  (83) 
-31.1783

>  <r_i_glide_energy>  (83) 
-25.2749

>  <r_i_glide_einternal>  (83) 
0.464183

>  <r_i_glide_intrahb_reward>  (83) 
-0

>  <i_i_glide_confnum>  (83) 
2

>  <i_i_glide_posenum>  (83) 
15

>  <r_i_glide_eff_state_penalty>  (83) 
0

>  <ligand_id>  (83) 
24

>  <original_smiles>  (83) 
CC12CCC(O)CC1=CCC1c3c(n[nH]c3Cl)CCC12

>  <smiles>  (83) 
[H]OC1([H])C([H])([H])C2=C([H])C([H])([H])C3([H])c4c(Cl)nn([H])c4C([H])([H])C([H])([H])C3([H])C2(C([H])([H])[H])C([H])([H])C1([H])[H]

$$$$
25:0:0
     RDKit          3D

 76 83  0  0  1  0  0  0  0  0999 V2000
   -0.7827   -8.4092    2.0853 C   0  0  0  0  0  0  0  0  0  0  0  0
    0.1177   -8.5803    3.0617 C   0  0  0  0  0  0  0  0  0  0  0  0
    0.3837   -9.8997    3.7609 C   0  0  0  0  0  0  0  0  0  0  0  0
    1.8399  -10.1395    4.0006 N   0  0  2  0  0  0  0  0  0  0  0  0
    2.1350  -11.5094    4.5491 C   0  0  0  0  0  0  0  0  0  0  0  0
    3.0765  -11.2644    5.6698 N   0  0  2  0  0  0  0  0  0  0  0  0
    2.4633  -10.0358    6.2248 C   0  0  0  0  0  0  0  0  0  0  0  0
    2.4694   -9.1814    4.9707 C   0  0  1  0  0  0  0  0  0  0  0  0
    3.9820   -8.8336    4.6553 C   0  0  2  0  0  0  0  0  0  0  0  0
    4.4641   -7.3777    4.6313 C   0  0  1  0  0  0  0  0  0  0  0  0
    3.4873   -6.5881    3.9202 O   0  0  0  0  0  0  0  0  0  0  0  0
    2.5766   -5.8698    4.6682 C   0  0  0  0  0  0  0  0  0  0  0  0
    2.6034   -5.7832    6.0166 C   0  0  0  0  0  0  0  0  0  0  0  0
    3.6953   -6.3899    6.8778 C   0  0  0  0  0  0  0  0  0  0  0  0
    4.8756   -6.7833    6.0219 C   0  0  1  0  0  0  0  0  0  0  0  0
    6.1278   -7.2081    6.7625 N   0  0  0  0  0  0  0  0  0  0  0  0
    7.0516   -6.2313    7.2407 C   0  0  0  0  0  0  0  0  0  0  0  0
    7.0449   -4.8204    7.4253 C   0  0  0  0  0  0  0  0  0  0  0  0
    8.2220   -4.1715    7.8586 C   0  0  0  0  0  0  0  0  0  0  0  0
    9.4152   -4.8970    8.0503 C   0  0  0  0  0  0  0  0  0  0  0  0
    9.4481   -6.2846    7.8007 C   0  0  0  0  0  0  0  0  0  0  0  0
    8.2626   -6.9426    7.4211 C   0  0  0  0  0  0  0  0  0  0  0  0
    8.0733   -8.2847    7.1178 C   0  0  0  0  0  0  0  0  0  0  0  0
    8.8906   -9.3557    6.8866 N   0  0  0  0  0  0  0  0  0  0  0  0
    7.9351  -10.3171    6.4873 C   0  0  0  0  0  0  0  0  0  0  0  0
    6.6267   -9.8399    6.6426 C   0  0  0  0  0  0  0  0  0  0  0  0
    6.7171   -8.4423    6.8537 C   0  0  0  0  0  0  0  0  0  0  0  0
    5.3225  -10.6606    6.6158 C   0  0  0  0  0  0  0  0  0  0  0  0
    4.5605  -11.0630    5.2881 C   0  0  2  0  0  0  0  0  0  0  0  0
    4.8556  -10.0277    4.1006 C   0  0  1  0  0  0  0  0  0  0  0  0
    4.4564  -10.4407    2.6372 C   0  0  0  0  0  0  0  0  0  0  0  0
    4.0938   -9.2737    1.6694 C   0  0  0  0  0  0  0  0  0  0  0  0
    5.2416   -8.3581    1.1729 C   0  0  0  0  0  0  0  0  0  0  0  0
    6.4223   -9.7984    3.8584 C   0  0  0  0  0  0  0  0  0  0  0  0
    7.3999  -11.0057    4.0388 C   0  0  0  0  0  0  0  0  0  0  0  0
    7.9872  -11.3880    5.4316 C   0  0  0  0  0  0  0  0  0  0  0  0
    9.9111   -9.3011    6.7539 H   0  0  0  0  0  0  0  0  0  0  0  0
   -1.3981   -9.2093    1.7012 H   0  0  0  0  0  0  0  0  0  0  0  0
   -0.9125   -7.4293    1.6689 H   0  0  0  0  0  0  0  0  0  0  0  0
    0.6779   -7.7159    3.3788 H   0  0  0  0  0  0  0  0  0  0  0  0
   -0.1574   -9.9139    4.7061 H   0  0  0  0  0  0  0  0  0  0  0  0
   -0.0306  -10.7118    3.1676 H   0  0  0  0  0  0  0  0  0  0  0  0
    1.2275  -11.9396    4.9713 H   0  0  0  0  0  0  0  0  0  0  0  0
    2.4914  -12.2400    3.8305 H   0  0  0  0  0  0  0  0  0  0  0  0
    1.4383  -10.2550    6.5425 H   0  0  0  0  0  0  0  0  0  0  0  0
    2.9321   -9.5785    7.0949 H   0  0  0  0  0  0  0  0  0  0  0  0
    1.8662   -8.3070    5.1843 H   0  0  0  0  0  0  0  0  0  0  0  0
    4.2838   -8.8407    5.6702 H   0  0  0  0  0  0  0  0  0  0  0  0
    5.3844   -7.2956    4.0735 H   0  0  0  0  0  0  0  0  0  0  0  0
    1.7977   -5.4395    4.0490 H   0  0  0  0  0  0  0  0  0  0  0  0
    1.8290   -5.2638    6.5624 H   0  0  0  0  0  0  0  0  0  0  0  0
    4.0182   -5.6364    7.5934 H   0  0  0  0  0  0  0  0  0  0  0  0
    3.3393   -7.2651    7.4128 H   0  0  0  0  0  0  0  0  0  0  0  0
    5.1972   -5.8237    5.6437 H   0  0  0  0  0  0  0  0  0  0  0  0
    6.1639   -4.2256    7.2396 H   0  0  0  0  0  0  0  0  0  0  0  0
    8.2332   -3.1027    8.0474 H   0  0  0  0  0  0  0  0  0  0  0  0
   10.3192   -4.4141    8.3960 H   0  0  0  0  0  0  0  0  0  0  0  0
   10.3326   -6.8611    7.9387 H   0  0  0  0  0  0  0  0  0  0  0  0
    5.6724  -11.6132    6.9513 H   0  0  0  0  0  0  0  0  0  0  0  0
    4.7175  -10.3804    7.4671 H   0  0  0  0  0  0  0  0  0  0  0  0
    4.9080  -12.0392    4.9562 H   0  0  0  0  0  0  0  0  0  0  0  0
    5.2450  -11.0615    2.2006 H   0  0  0  0  0  0  0  0  0  0  0  0
    3.6388  -11.1362    2.5821 H   0  0  0  0  0  0  0  0  0  0  0  0
    3.6604   -9.7565    0.7945 H   0  0  0  0  0  0  0  0  0  0  0  0
    3.2898   -8.6629    2.0860 H   0  0  0  0  0  0  0  0  0  0  0  0
    4.9167   -7.6570    0.4032 H   0  0  0  0  0  0  0  0  0  0  0  0
    6.0490   -8.9830    0.7690 H   0  0  0  0  0  0  0  0  0  0  0  0
    5.6654   -7.7525    1.9801 H   0  0  0  0  0  0  0  0  0  0  0  0
    6.6620   -9.5760    2.8412 H   0  0  0  0  0  0  0  0  0  0  0  0
    6.7992   -8.9133    4.3575 H   0  0  0  0  0  0  0  0  0  0  0  0
    7.0301  -11.8789    3.5039 H   0  0  0  0  0  0  0  0  0  0  0  0
    8.2548  -10.7074    3.4408 H   0  0  0  0  0  0  0  0  0  0  0  0
    9.0439  -11.5572    5.2266 H   0  0  0  0  0  0  0  0  0  0  0  0
    7.5504  -12.3338    5.7619 H   0  0  0  0  0  0  0  0  0  0  0  0
    2.3205  -10.0668    3.1051 H   0  0  0  0  0  0  0  0  0  0  0  0
    2.9309  -12.0306    6.3388 H   0  0  0  0  0  0  0  0  0  0  0  0
  1  2  2  0
  1 38  1  0
  1 39  1  0
  2  3  1  0
  2 40  1  0
  3  4  1  0
  3 41  1  0
  3 42  1  0
  4  8  1  0
  4  5  1  0
  4 75  1  6
  5  6  1  0
  5 43  1  0
  5 44  1  0
  6 29  1  0
  6  7  1  0
  6 76  1  1
  7  8  1  0
  7 45  1  0
  7 46  1  0
  8  9  1  0
  8 47  1  1
  9 30  1  0
  9 10  1  0
  9 48  1  1
 10 15  1  0
 10 11  1  0
 10 49  1  6
 11 12  1  0
 12 13  2  0
 12 50  1  0
 13 14  1  0
 13 51  1  0
 14 15  1  0
 14 52  1  0
 14 53  1  0
 15 16  1  0
 15 54  1  6
 16 27  1  0
 16 17  1  0
 17 22  2  0
 17 18  1  0
 18 19  2  0
 18 55  1  0
 19 20  1  0
 19 56  1  0
 20 21  2  0
 20 57  1  0
 21 22  1  0
 21 58  1  0
 22 23  1  0
 23 27  2  0
 23 24  1  0
 24 37  1  0
 24 25  1  0
 25 36  1  0
 25 26  2  0
 26 27  1  0
 26 28  1  0
 28 29  1  0
 28 59  1  0
 28 60  1  0
 29 30  1  0
 29 61  1  6
 30 31  1  6
 30 34  1  0
 31 32  1  0
 31 62  1  0
 31 63  1  0
 32 33  1  0
 32 64  1  0
 32 65  1  0
 33 66  1  0
 33 67  1  0
 33 68  1  0
 34 35  1  0
 34 69  1  0
 34 70  1  0
 35 36  1  0
 35 71  1  0
 35 72  1  0
 36 73  1  0
 36 74  1  0
M  CHG  2   4   1   6   1
M  END
>  <i_m_ct_stereo_status>  (84) 
1

>  <s_m_source_file>  (84) 
/var/tmp/pbs.5076255.sched01/tmpx9mnojvb/44r91_cmns.sdf

>  <i_m_source_file_index>  (84) 
7

>  <i_lp_mmshare_version>  (84) 
48012

>  <i_f3d_flags>  (84) 
0

>  <s_epik_input>  (84) 
W0NIM11bQ0gyXVtDSDJdW0NAQF0xMltDQEBIXTNbQ0BIXTROKFtDSDJdW0NIXT1bQ0gyXSlbQ0gyXU4oW0NIMl00KVtDSF0xW0NIMl1jNWMoW0NIMl1bQ0gyXVtDSDJdMilbbkhdYzZjN2MoW2NIXVtjSF1bY0hdW2NIXTcpbihjNTYpW0NASF04W0NAQEhdM09bQ0hdPVtDSF1bQ0gyXTg=

>  <s_epik_cmdline>  (84) 
J2VwaWtfcHl0aG9uJywgJy1waHQnLCAnMi4wJywgJy1waCcsICc3LjAnLCAnLXRuJywgJzgnLCAnLW1hJywgJzIwMCcsICctaW1hZScsICc8aW5maWxlLm1hZT4nLCAnLW9tYWUnLCAnPG91dGZpbGUubWFlPic=

>  <r_epik_Ionization_Penalty>  (84) 
0.347117

>  <r_epik_Ionization_Penalty_Charging>  (84) 
0.347117

>  <r_epik_Ionization_Penalty_Neutral>  (84) 
1.64902e-09

>  <r_epik_State_Penalty>  (84) 
0.304118

>  <r_epik_Charging_Adjusted_Penalty>  (84) 
0.651235

>  <i_epik_Tot_Q>  (84) 
2

>  <i_epik_Tot_abs_Q>  (84) 
2

>  <s_epik_Chemistry_Notes>  (84) 
This compound contains an acetal/aminal-like group ( X-CH(R)-Y where X, Y are N, S, or O) that may be acid/base labile, releasing an aldehyde.

>  <s_lp_Force_Field>  (84) 
OPLS3e

>  <r_lp_Energy>  (84) 
150.966

>  <b_lp_Chiralities_Consistent>  (84) 
1

>  <s_lp_Variant>  (84) 
25:0-1

>  <s_i_glide_gridfile>  (84) 
pfpi4k_grid

>  <i_i_glide_lignum>  (84) 
7

>  <i_i_glide_rotatable_bonds>  (84) 
4

>  <r_i_docking_score>  (84) 
-2.8074

>  <r_i_glide_ligand_efficiency>  (84) 
-0.0779833

>  <r_i_glide_ligand_efficiency_sa>  (84) 
-0.257495

>  <r_i_glide_ligand_efficiency_ln>  (84) 
-0.612499

>  <r_i_glide_gscore>  (84) 
-2.8074

>  <r_i_glide_lipo>  (84) 
-0.0965971

>  <r_i_glide_hbond>  (84) 
-0.103221

>  <r_i_glide_metal>  (84) 
-0

>  <r_i_glide_rewards>  (84) 
-0.634485

>  <r_i_glide_evdw>  (84) 
-17.4912

>  <r_i_glide_ecoul>  (84) 
-7.57864

>  <r_i_glide_erotb>  (84) 
0.18156

>  <r_i_glide_esite>  (84) 
-0.143298

>  <r_i_glide_emodel>  (84) 
-31.4321

>  <r_i_glide_energy>  (84) 
-25.0699

>  <r_i_glide_einternal>  (84) 
1.78193

>  <r_i_glide_intrahb_reward>  (84) 
-0

>  <i_i_glide_confnum>  (84) 
5

>  <i_i_glide_posenum>  (84) 
19

>  <r_i_glide_eff_state_penalty>  (84) 
0

>  <ligand_id>  (84) 
25

>  <original_smiles>  (84) 
C=CCN1CN2CC1C1C3OC=CCC3n3c4ccccc4c4[nH]c5c(c43)CC2C1(CCC)CCC5

>  <smiles>  (84) 
[H]C([H])=C([H])C([H])([H])[N+]1([H])C2([H])C3([H])C4([H])OC([H])=C([H])C([H])([H])C4([H])n4c5c([H])c([H])c([H])c([H])c5c5c4c4c(n5[H])C([H])([H])C([H])([H])C([H])([H])C3(C([H])([H])C([H])([H])C([H])([H])[H])C([H])(C4([H])[H])[N+]([H])(C2([H])[H])C1([H])[H]

$$$$
25:0:1
     RDKit          3D

 76 83  0  0  1  0  0  0  0  0999 V2000
   -1.7408   -8.1113    2.8092 C   0  0  0  0  0  0  0  0  0  0  0  0
   -0.7315   -8.7780    2.2333 C   0  0  0  0  0  0  0  0  0  0  0  0
   -0.2706  -10.2031    2.6136 C   0  0  0  0  0  0  0  0  0  0  0  0
    1.1091  -10.3092    3.1765 N   0  0  2  0  0  0  0  0  0  0  0  0
    1.5377  -11.7007    3.5234 C   0  0  0  0  0  0  0  0  0  0  0  0
    2.1731  -11.5547    4.8464 N   0  0  2  0  0  0  0  0  0  0  0  0
    1.2381  -10.5833    5.4548 C   0  0  0  0  0  0  0  0  0  0  0  0
    1.3218   -9.4812    4.4139 C   0  0  1  0  0  0  0  0  0  0  0  0
    2.8134   -8.8514    4.5681 C   0  0  2  0  0  0  0  0  0  0  0  0
    3.0444   -7.3349    4.8722 C   0  0  1  0  0  0  0  0  0  0  0  0
    2.1387   -6.4989    4.1515 O   0  0  0  0  0  0  0  0  0  0  0  0
    0.9485   -6.1552    4.7470 C   0  0  0  0  0  0  0  0  0  0  0  0
    0.6623   -6.3806    6.0287 C   0  0  0  0  0  0  0  0  0  0  0  0
    1.6388   -6.9803    7.0214 C   0  0  0  0  0  0  0  0  0  0  0  0
    3.0363   -6.9603    6.3977 C   0  0  1  0  0  0  0  0  0  0  0  0
    4.1391   -7.3886    7.3094 N   0  0  0  0  0  0  0  0  0  0  0  0
    4.7545   -6.4335    8.1875 C   0  0  0  0  0  0  0  0  0  0  0  0
    4.4388   -5.1382    8.6098 C   0  0  0  0  0  0  0  0  0  0  0  0
    5.3563   -4.4366    9.4147 C   0  0  0  0  0  0  0  0  0  0  0  0
    6.5956   -5.0255    9.7703 C   0  0  0  0  0  0  0  0  0  0  0  0
    6.9319   -6.3170    9.3189 C   0  0  0  0  0  0  0  0  0  0  0  0
    6.0045   -7.0246    8.5337 C   0  0  0  0  0  0  0  0  0  0  0  0
    6.0765   -8.2682    7.9266 C   0  0  0  0  0  0  0  0  0  0  0  0
    7.0984   -9.1564    7.7123 N   0  0  0  0  0  0  0  0  0  0  0  0
    6.4748  -10.0931    6.9166 C   0  0  0  0  0  0  0  0  0  0  0  0
    5.0809   -9.8853    6.8643 C   0  0  0  0  0  0  0  0  0  0  0  0
    4.8835   -8.5379    7.3489 C   0  0  0  0  0  0  0  0  0  0  0  0
    4.0287  -10.9188    6.4050 C   0  0  0  0  0  0  0  0  0  0  0  0
    3.6279  -11.0855    4.8753 C   0  0  2  0  0  0  0  0  0  0  0  0
    3.9670   -9.7668    4.0086 C   0  0  1  0  0  0  0  0  0  0  0  0
    3.9379   -9.9195    2.4280 C   0  0  0  0  0  0  0  0  0  0  0  0
    3.7030   -8.6316    1.5978 C   0  0  0  0  0  0  0  0  0  0  0  0
    2.2651   -8.1185    1.5936 C   0  0  0  0  0  0  0  0  0  0  0  0
    5.4737   -9.2406    4.1751 C   0  0  0  0  0  0  0  0  0  0  0  0
    6.6304  -10.2964    4.3357 C   0  0  0  0  0  0  0  0  0  0  0  0
    6.9720  -10.8935    5.7352 C   0  0  0  0  0  0  0  0  0  0  0  0
    8.0702   -9.0106    7.8434 H   0  0  0  0  0  0  0  0  0  0  0  0
   -2.3445   -8.5335    3.6103 H   0  0  0  0  0  0  0  0  0  0  0  0
   -1.9737   -7.1080    2.4838 H   0  0  0  0  0  0  0  0  0  0  0  0
   -0.1751   -8.2980    1.4421 H   0  0  0  0  0  0  0  0  0  0  0  0
   -0.9804  -10.5853    3.3320 H   0  0  0  0  0  0  0  0  0  0  0  0
   -0.3537  -10.8289    1.7224 H   0  0  0  0  0  0  0  0  0  0  0  0
    0.6582  -12.3439    3.6282 H   0  0  0  0  0  0  0  0  0  0  0  0
    2.1726  -12.2167    2.7957 H   0  0  0  0  0  0  0  0  0  0  0  0
    0.2139  -11.0091    5.4756 H   0  0  0  0  0  0  0  0  0  0  0  0
    1.3997  -10.2573    6.4882 H   0  0  0  0  0  0  0  0  0  0  0  0
    0.5532   -8.7170    4.5804 H   0  0  0  0  0  0  0  0  0  0  0  0
    2.8919   -9.0162    5.6004 H   0  0  0  0  0  0  0  0  0  0  0  0
    4.0236   -7.0651    4.4833 H   0  0  0  0  0  0  0  0  0  0  0  0
    0.2653   -5.7216    4.0260 H   0  0  0  0  0  0  0  0  0  0  0  0
   -0.3340   -6.1483    6.4043 H   0  0  0  0  0  0  0  0  0  0  0  0
    1.6299   -6.3731    7.9251 H   0  0  0  0  0  0  0  0  0  0  0  0
    1.3428   -7.9985    7.2787 H   0  0  0  0  0  0  0  0  0  0  0  0
    3.2448   -5.8927    6.3013 H   0  0  0  0  0  0  0  0  0  0  0  0
    3.5187   -4.6402    8.3177 H   0  0  0  0  0  0  0  0  0  0  0  0
    5.1354   -3.4514    9.7766 H   0  0  0  0  0  0  0  0  0  0  0  0
    7.2875   -4.4993   10.4036 H   0  0  0  0  0  0  0  0  0  0  0  0
    7.8731   -6.7704    9.5656 H   0  0  0  0  0  0  0  0  0  0  0  0
    4.4681  -11.8880    6.6715 H   0  0  0  0  0  0  0  0  0  0  0  0
    3.2037  -10.8787    7.1059 H   0  0  0  0  0  0  0  0  0  0  0  0
    4.2415  -11.8999    4.4627 H   0  0  0  0  0  0  0  0  0  0  0  0
    4.8899  -10.3584    2.1249 H   0  0  0  0  0  0  0  0  0  0  0  0
    3.2830  -10.6934    2.0645 H   0  0  0  0  0  0  0  0  0  0  0  0
    4.3935   -7.8467    1.8859 H   0  0  0  0  0  0  0  0  0  0  0  0
    3.9646   -8.8751    0.5743 H   0  0  0  0  0  0  0  0  0  0  0  0
    2.1715   -7.2065    1.0232 H   0  0  0  0  0  0  0  0  0  0  0  0
    1.8815   -7.9148    2.5399 H   0  0  0  0  0  0  0  0  0  0  0  0
    1.6301   -8.8597    1.1250 H   0  0  0  0  0  0  0  0  0  0  0  0
    5.7509   -8.6515    3.3034 H   0  0  0  0  0  0  0  0  0  0  0  0
    5.5833   -8.4599    4.9163 H   0  0  0  0  0  0  0  0  0  0  0  0
    6.5253  -11.1017    3.6116 H   0  0  0  0  0  0  0  0  0  0  0  0
    7.5219   -9.7740    4.0127 H   0  0  0  0  0  0  0  0  0  0  0  0
    8.0763  -10.9056    5.8292 H   0  0  0  0  0  0  0  0  0  0  0  0
    6.6672  -11.9392    5.8020 H   0  0  0  0  0  0  0  0  0  0  0  0
    1.7551   -9.9385    2.4491 H   0  0  0  0  0  0  0  0  0  0  0  0
    2.1156  -12.4328    5.3795 H   0  0  0  0  0  0  0  0  0  0  0  0
  1  2  2  0
  1 38  1  0
  1 39  1  0
  2  3  1  0
  2 40  1  0
  3  4  1  0
  3 41  1  0
  3 42  1  0
  4  8  1  0
  4  5  1  0
  4 75  1  6
  5  6  1  0
  5 43  1  0
  5 44  1  0
  6 29  1  0
  6  7  1  0
  6 76  1  1
  7  8  1  0
  7 45  1  0
  7 46  1  0
  8  9  1  0
  8 47  1  1
  9 30  1  0
  9 10  1  0
  9 48  1  1
 10 15  1  0
 10 11  1  0
 10 49  1  6
 11 12  1  0
 12 13  2  0
 12 50  1  0
 13 14  1  0
 13 51  1  0
 14 15  1  0
 14 52  1  0
 14 53  1  0
 15 16  1  0
 15 54  1  6
 16 27  1  0
 16 17  1  0
 17 22  2  0
 17 18  1  0
 18 19  2  0
 18 55  1  0
 19 20  1  0
 19 56  1  0
 20 21  2  0
 20 57  1  0
 21 22  1  0
 21 58  1  0
 22 23  1  0
 23 27  2  0
 23 24  1  0
 24 37  1  0
 24 25  1  0
 25 36  1  0
 25 26  2  0
 26 27  1  0
 26 28  1  0
 28 29  1  0
 28 59  1  0
 28 60  1  0
 29 30  1  0
 29 61  1  6
 30 31  1  6
 30 34  1  0
 31 32  1  0
 31 62  1  0
 31 63  1  0
 32 33  1  0
 32 64  1  0
 32 65  1  0
 33 66  1  0
 33 67  1  0
 33 68  1  0
 34 35  1  0
 34 69  1  0
 34 70  1  0
 35 36  1  0
 35 71  1  0
 35 72  1  0
 36 73  1  0
 36 74  1  0
M  CHG  2   4   1   6   1
M  END
>  <i_m_ct_stereo_status>  (85) 
1

>  <s_m_source_file>  (85) 
/var/tmp/pbs.5076255.sched01/tmpx9mnojvb/44r91_cmns.sdf

>  <i_m_source_file_index>  (85) 
7

>  <i_lp_mmshare_version>  (85) 
48012

>  <i_f3d_flags>  (85) 
0

>  <s_epik_input>  (85) 
W0NIM11bQ0gyXVtDSDJdW0NAQF0xMltDQEBIXTNbQ0BIXTROKFtDSDJdW0NIXT1bQ0gyXSlbQ0gyXU4oW0NIMl00KVtDSF0xW0NIMl1jNWMoW0NIMl1bQ0gyXVtDSDJdMilbbkhdYzZjN2MoW2NIXVtjSF1bY0hdW2NIXTcpbihjNTYpW0NASF04W0NAQEhdM09bQ0hdPVtDSF1bQ0gyXTg=

>  <s_epik_cmdline>  (85) 
J2VwaWtfcHl0aG9uJywgJy1waHQnLCAnMi4wJywgJy1waCcsICc3LjAnLCAnLXRuJywgJzgnLCAnLW1hJywgJzIwMCcsICctaW1hZScsICc8aW5maWxlLm1hZT4nLCAnLW9tYWUnLCAnPG91dGZpbGUubWFlPic=

>  <r_epik_Ionization_Penalty>  (85) 
0.347117

>  <r_epik_Ionization_Penalty_Charging>  (85) 
0.347117

>  <r_epik_Ionization_Penalty_Neutral>  (85) 
1.64902e-09

>  <r_epik_State_Penalty>  (85) 
0.304118

>  <r_epik_Charging_Adjusted_Penalty>  (85) 
0.651235

>  <i_epik_Tot_Q>  (85) 
2

>  <i_epik_Tot_abs_Q>  (85) 
2

>  <s_epik_Chemistry_Notes>  (85) 
This compound contains an acetal/aminal-like group ( X-CH(R)-Y where X, Y are N, S, or O) that may be acid/base labile, releasing an aldehyde.

>  <s_lp_Force_Field>  (85) 
OPLS3e

>  <r_lp_Energy>  (85) 
150.966

>  <b_lp_Chiralities_Consistent>  (85) 
1

>  <s_lp_Variant>  (85) 
25:0-1

>  <s_i_glide_gridfile>  (85) 
pfpi4k_grid

>  <i_i_glide_lignum>  (85) 
7

>  <i_i_glide_rotatable_bonds>  (85) 
4

>  <r_i_docking_score>  (85) 
-2.77575

>  <r_i_glide_ligand_efficiency>  (85) 
-0.0771043

>  <r_i_glide_ligand_efficiency_sa>  (85) 
-0.254593

>  <r_i_glide_ligand_efficiency_ln>  (85) 
-0.605595

>  <r_i_glide_gscore>  (85) 
-2.77575

>  <r_i_glide_lipo>  (85) 
-0.0620203

>  <r_i_glide_hbond>  (85) 
-0.029233

>  <r_i_glide_metal>  (85) 
-0

>  <r_i_glide_rewards>  (85) 
-0.703099

>  <r_i_glide_evdw>  (85) 
-17.8706

>  <r_i_glide_ecoul>  (85) 
-7.99058

>  <r_i_glide_erotb>  (85) 
0.18156

>  <r_i_glide_esite>  (85) 
-0.0708465

>  <r_i_glide_emodel>  (85) 
-30.9512

>  <r_i_glide_energy>  (85) 
-25.8611

>  <r_i_glide_einternal>  (85) 
1.50311

>  <r_i_glide_intrahb_reward>  (85) 
-0

>  <i_i_glide_confnum>  (85) 
5

>  <i_i_glide_posenum>  (85) 
33

>  <r_i_glide_eff_state_penalty>  (85) 
0

>  <ligand_id>  (85) 
25

>  <original_smiles>  (85) 
C=CCN1CN2CC1C1C3OC=CCC3n3c4ccccc4c4[nH]c5c(c43)CC2C1(CCC)CCC5

>  <smiles>  (85) 
[H]C([H])=C([H])C([H])([H])[N+]1([H])C2([H])C3([H])C4([H])OC([H])=C([H])C([H])([H])C4([H])n4c5c([H])c([H])c([H])c([H])c5c5c4c4c(n5[H])C([H])([H])C([H])([H])C([H])([H])C3(C([H])([H])C([H])([H])C([H])([H])[H])C([H])(C4([H])[H])[N+]([H])(C2([H])[H])C1([H])[H]

$$$$
25:0:2
     RDKit          3D

 76 83  0  0  1  0  0  0  0  0999 V2000
   -0.5789  -10.2586    2.6390 C   0  0  0  0  0  0  0  0  0  0  0  0
    0.2277  -10.5644    3.6692 C   0  0  0  0  0  0  0  0  0  0  0  0
    1.3515  -11.6071    3.6605 C   0  0  0  0  0  0  0  0  0  0  0  0
    2.7238  -10.9986    3.6344 N   0  0  2  0  0  0  0  0  0  0  0  0
    3.8390  -12.0081    3.5120 C   0  0  0  0  0  0  0  0  0  0  0  0
    4.8278  -11.5572    4.5264 N   0  0  2  0  0  0  0  0  0  0  0  0
    3.8915  -11.1507    5.6093 C   0  0  0  0  0  0  0  0  0  0  0  0
    3.0536  -10.1503    4.8298 C   0  0  1  0  0  0  0  0  0  0  0  0
    3.9917   -8.8925    4.5329 C   0  0  2  0  0  0  0  0  0  0  0  0
    3.6387   -7.4647    5.0163 C   0  0  1  0  0  0  0  0  0  0  0  0
    2.2383   -7.2061    4.8300 O   0  0  0  0  0  0  0  0  0  0  0  0
    1.3944   -7.4516    5.8901 C   0  0  0  0  0  0  0  0  0  0  0  0
    1.7998   -7.7560    7.1380 C   0  0  0  0  0  0  0  0  0  0  0  0
    3.2601   -7.7914    7.5505 C   0  0  0  0  0  0  0  0  0  0  0  0
    4.1104   -7.1202    6.4786 C   0  0  1  0  0  0  0  0  0  0  0  0
    5.5480   -6.9401    6.8375 N   0  0  0  0  0  0  0  0  0  0  0  0
    5.9730   -5.7950    7.5895 C   0  0  0  0  0  0  0  0  0  0  0  0
    5.3202   -4.7934    8.3392 C   0  0  0  0  0  0  0  0  0  0  0  0
    6.0753   -3.7266    8.8692 C   0  0  0  0  0  0  0  0  0  0  0  0
    7.4628   -3.6370    8.6236 C   0  0  0  0  0  0  0  0  0  0  0  0
    8.1090   -4.6086    7.8379 C   0  0  0  0  0  0  0  0  0  0  0  0
    7.3735   -5.6920    7.3346 C   0  0  0  0  0  0  0  0  0  0  0  0
    7.7504   -6.7508    6.5236 C   0  0  0  0  0  0  0  0  0  0  0  0
    8.8748   -7.0305    5.7809 N   0  0  0  0  0  0  0  0  0  0  0  0
    8.4593   -8.1770    5.1136 C   0  0  0  0  0  0  0  0  0  0  0  0
    7.2219   -8.6535    5.5999 C   0  0  0  0  0  0  0  0  0  0  0  0
    6.6817   -7.5725    6.3618 C   0  0  0  0  0  0  0  0  0  0  0  0
    6.6412  -10.0586    5.3841 C   0  0  0  0  0  0  0  0  0  0  0  0
    5.7837  -10.4278    4.1031 C   0  0  2  0  0  0  0  0  0  0  0  0
    5.1054   -9.1385    3.4392 C   0  0  1  0  0  0  0  0  0  0  0  0
    4.5205   -9.3190    1.9850 C   0  0  0  0  0  0  0  0  0  0  0  0
    3.4572   -8.2677    1.5646 C   0  0  0  0  0  0  0  0  0  0  0  0
    2.0222   -8.6040    1.9582 C   0  0  0  0  0  0  0  0  0  0  0  0
    6.1315   -7.9447    3.1418 C   0  0  0  0  0  0  0  0  0  0  0  0
    7.5816   -8.2996    2.6704 C   0  0  0  0  0  0  0  0  0  0  0  0
    8.7076   -8.6421    3.7044 C   0  0  0  0  0  0  0  0  0  0  0  0
    9.6288   -6.3974    5.5709 H   0  0  0  0  0  0  0  0  0  0  0  0
   -0.4997  -10.7630    1.6781 H   0  0  0  0  0  0  0  0  0  0  0  0
   -1.3431   -9.5182    2.7593 H   0  0  0  0  0  0  0  0  0  0  0  0
    0.0886  -10.0271    4.6012 H   0  0  0  0  0  0  0  0  0  0  0  0
    1.2334  -12.2483    4.5383 H   0  0  0  0  0  0  0  0  0  0  0  0
    1.2298  -12.2468    2.7877 H   0  0  0  0  0  0  0  0  0  0  0  0
    3.4739  -12.9916    3.8162 H   0  0  0  0  0  0  0  0  0  0  0  0
    4.2619  -12.1518    2.5180 H   0  0  0  0  0  0  0  0  0  0  0  0
    3.2757  -12.0045    5.9198 H   0  0  0  0  0  0  0  0  0  0  0  0
    4.3087  -10.7618    6.5398 H   0  0  0  0  0  0  0  0  0  0  0  0
    2.1797   -9.8736    5.4154 H   0  0  0  0  0  0  0  0  0  0  0  0
    4.5797   -8.9871    5.4199 H   0  0  0  0  0  0  0  0  0  0  0  0
    4.1142   -6.7492    4.3544 H   0  0  0  0  0  0  0  0  0  0  0  0
    0.3578   -7.4330    5.5834 H   0  0  0  0  0  0  0  0  0  0  0  0
    1.0769   -7.9862    7.9097 H   0  0  0  0  0  0  0  0  0  0  0  0
    3.3603   -7.2459    8.4904 H   0  0  0  0  0  0  0  0  0  0  0  0
    3.5866   -8.8168    7.7126 H   0  0  0  0  0  0  0  0  0  0  0  0
    3.7531   -6.0965    6.5120 H   0  0  0  0  0  0  0  0  0  0  0  0
    4.2510   -4.8116    8.5123 H   0  0  0  0  0  0  0  0  0  0  0  0
    5.6069   -2.9660    9.4743 H   0  0  0  0  0  0  0  0  0  0  0  0
    8.0472   -2.8334    9.0472 H   0  0  0  0  0  0  0  0  0  0  0  0
    9.1649   -4.5534    7.6375 H   0  0  0  0  0  0  0  0  0  0  0  0
    7.5251  -10.6790    5.2771 H   0  0  0  0  0  0  0  0  0  0  0  0
    6.2748  -10.4299    6.3342 H   0  0  0  0  0  0  0  0  0  0  0  0
    6.4576  -10.8597    3.3567 H   0  0  0  0  0  0  0  0  0  0  0  0
    5.3522   -9.2579    1.2769 H   0  0  0  0  0  0  0  0  0  0  0  0
    4.1354  -10.2914    1.7289 H   0  0  0  0  0  0  0  0  0  0  0  0
    3.6861   -7.2688    1.9387 H   0  0  0  0  0  0  0  0  0  0  0  0
    3.4839   -8.2141    0.4794 H   0  0  0  0  0  0  0  0  0  0  0  0
    1.3009   -7.8590    1.6276 H   0  0  0  0  0  0  0  0  0  0  0  0
    1.9051   -8.6334    3.0335 H   0  0  0  0  0  0  0  0  0  0  0  0
    1.7473   -9.5713    1.5370 H   0  0  0  0  0  0  0  0  0  0  0  0
    5.7421   -7.3012    2.3528 H   0  0  0  0  0  0  0  0  0  0  0  0
    6.1761   -7.1984    3.9187 H   0  0  0  0  0  0  0  0  0  0  0  0
    7.5434   -9.0587    1.8966 H   0  0  0  0  0  0  0  0  0  0  0  0
    7.9362   -7.4172    2.1414 H   0  0  0  0  0  0  0  0  0  0  0  0
    9.6050   -8.1167    3.3750 H   0  0  0  0  0  0  0  0  0  0  0  0
    8.9629   -9.7054    3.6763 H   0  0  0  0  0  0  0  0  0  0  0  0
    2.7739  -10.4054    2.8165 H   0  0  0  0  0  0  0  0  0  0  0  0
    5.3639  -12.3619    4.8246 H   0  0  0  0  0  0  0  0  0  0  0  0
  1  2  2  0
  1 38  1  0
  1 39  1  0
  2  3  1  0
  2 40  1  0
  3  4  1  0
  3 41  1  0
  3 42  1  0
  4  8  1  0
  4  5  1  0
  4 75  1  6
  5  6  1  0
  5 43  1  0
  5 44  1  0
  6 29  1  0
  6  7  1  0
  6 76  1  1
  7  8  1  0
  7 45  1  0
  7 46  1  0
  8  9  1  0
  8 47  1  1
  9 30  1  0
  9 10  1  0
  9 48  1  1
 10 15  1  0
 10 11  1  0
 10 49  1  6
 11 12  1  0
 12 13  2  0
 12 50  1  0
 13 14  1  0
 13 51  1  0
 14 15  1  0
 14 52  1  0
 14 53  1  0
 15 16  1  0
 15 54  1  1
 16 27  1  0
 16 17  1  0
 17 22  2  0
 17 18  1  0
 18 19  2  0
 18 55  1  0
 19 20  1  0
 19 56  1  0
 20 21  2  0
 20 57  1  0
 21 22  1  0
 21 58  1  0
 22 23  1  0
 23 27  2  0
 23 24  1  0
 24 37  1  0
 24 25  1  0
 25 36  1  0
 25 26  2  0
 26 27  1  0
 26 28  1  0
 28 29  1  0
 28 59  1  0
 28 60  1  0
 29 30  1  0
 29 61  1  6
 30 31  1  6
 30 34  1  0
 31 32  1  0
 31 62  1  0
 31 63  1  0
 32 33  1  0
 32 64  1  0
 32 65  1  0
 33 66  1  0
 33 67  1  0
 33 68  1  0
 34 35  1  0
 34 69  1  0
 34 70  1  0
 35 36  1  0
 35 71  1  0
 35 72  1  0
 36 73  1  0
 36 74  1  0
M  CHG  2   4   1   6   1
M  END
>  <i_m_ct_stereo_status>  (86) 
1

>  <s_m_source_file>  (86) 
/var/tmp/pbs.5076255.sched01/tmpx9mnojvb/44r91_cmns.sdf

>  <i_m_source_file_index>  (86) 
7

>  <i_lp_mmshare_version>  (86) 
48012

>  <i_f3d_flags>  (86) 
0

>  <s_epik_input>  (86) 
W0NIM11bQ0gyXVtDSDJdW0NAQF0xMltDQEBIXTNbQ0BIXTROKFtDSDJdW0NIXT1bQ0gyXSlbQ0gyXU4oW0NIMl00KVtDSF0xW0NIMl1jNWMoW0NIMl1bQ0gyXVtDSDJdMilbbkhdYzZjN2MoW2NIXVtjSF1bY0hdW2NIXTcpbihjNTYpW0NASF04W0NAQEhdM09bQ0hdPVtDSF1bQ0gyXTg=

>  <s_epik_cmdline>  (86) 
J2VwaWtfcHl0aG9uJywgJy1waHQnLCAnMi4wJywgJy1waCcsICc3LjAnLCAnLXRuJywgJzgnLCAnLW1hJywgJzIwMCcsICctaW1hZScsICc8aW5maWxlLm1hZT4nLCAnLW9tYWUnLCAnPG91dGZpbGUubWFlPic=

>  <r_epik_Ionization_Penalty>  (86) 
0.347117

>  <r_epik_Ionization_Penalty_Charging>  (86) 
0.347117

>  <r_epik_Ionization_Penalty_Neutral>  (86) 
1.64902e-09

>  <r_epik_State_Penalty>  (86) 
0.304118

>  <r_epik_Charging_Adjusted_Penalty>  (86) 
0.651235

>  <i_epik_Tot_Q>  (86) 
2

>  <i_epik_Tot_abs_Q>  (86) 
2

>  <s_epik_Chemistry_Notes>  (86) 
This compound contains an acetal/aminal-like group ( X-CH(R)-Y where X, Y are N, S, or O) that may be acid/base labile, releasing an aldehyde.

>  <s_lp_Force_Field>  (86) 
OPLS3e

>  <r_lp_Energy>  (86) 
150.966

>  <b_lp_Chiralities_Consistent>  (86) 
1

>  <s_lp_Variant>  (86) 
25:0-1

>  <s_i_glide_gridfile>  (86) 
pfpi4k_grid

>  <i_i_glide_lignum>  (86) 
7

>  <i_i_glide_rotatable_bonds>  (86) 
4

>  <r_i_docking_score>  (86) 
-2.06358

>  <r_i_glide_ligand_efficiency>  (86) 
-0.0573217

>  <r_i_glide_ligand_efficiency_sa>  (86) 
-0.189272

>  <r_i_glide_ligand_efficiency_ln>  (86) 
-0.450218

>  <r_i_glide_gscore>  (86) 
-2.06358

>  <r_i_glide_lipo>  (86) 
-0.121692

>  <r_i_glide_hbond>  (86) 
0

>  <r_i_glide_metal>  (86) 
-0

>  <r_i_glide_rewards>  (86) 
-0.104485

>  <r_i_glide_evdw>  (86) 
-18.2395

>  <r_i_glide_ecoul>  (86) 
-7.50348

>  <r_i_glide_erotb>  (86) 
0.259371

>  <r_i_glide_esite>  (86) 
-0.0592801

>  <r_i_glide_emodel>  (86) 
-28.7312

>  <r_i_glide_energy>  (86) 
-25.743

>  <r_i_glide_einternal>  (86) 
2.35791

>  <r_i_glide_intrahb_reward>  (86) 
-0

>  <i_i_glide_confnum>  (86) 
5

>  <i_i_glide_posenum>  (86) 
14

>  <r_i_glide_eff_state_penalty>  (86) 
0

>  <ligand_id>  (86) 
25

>  <original_smiles>  (86) 
C=CCN1CN2CC1C1C3OC=CCC3n3c4ccccc4c4[nH]c5c(c43)CC2C1(CCC)CCC5

>  <smiles>  (86) 
[H]C([H])=C([H])C([H])([H])[N+]1([H])C2([H])C3([H])C4([H])OC([H])=C([H])C([H])([H])C4([H])n4c5c([H])c([H])c([H])c([H])c5c5c4c4c(n5[H])C([H])([H])C([H])([H])C([H])([H])C3(C([H])([H])C([H])([H])C([H])([H])[H])C([H])(C4([H])[H])[N+]([H])(C2([H])[H])C1([H])[H]

$$$$
25:1:0
     RDKit          3D

 76 83  0  0  1  0  0  0  0  0999 V2000
   -1.9955   -9.0602    2.6034 C   0  0  0  0  0  0  0  0  0  0  0  0
   -0.9083   -9.8446    2.6745 C   0  0  0  0  0  0  0  0  0  0  0  0
   -0.0039   -9.9457    3.8902 C   0  0  0  0  0  0  0  0  0  0  0  0
    1.4154   -9.5869    3.6008 N   0  0  2  0  0  0  0  0  0  0  0  0
    2.1871  -10.6251    2.8741 C   0  0  0  0  0  0  0  0  0  0  0  0
    3.3659  -10.9026    3.7382 N   0  0  2  0  0  0  0  0  0  0  0  0
    2.8110  -10.6863    5.0832 C   0  0  0  0  0  0  0  0  0  0  0  0
    2.2032   -9.3196    4.8384 C   0  0  1  0  0  0  0  0  0  0  0  0
    3.3486   -8.2419    4.6274 C   0  0  2  0  0  0  0  0  0  0  0  0
    2.9687   -7.1346    3.5107 C   0  0  1  0  0  0  0  0  0  0  0  0
    3.1113   -5.8237    4.0692 O   0  0  0  0  0  0  0  0  0  0  0  0
    2.4456   -4.8338    3.3863 C   0  0  0  0  0  0  0  0  0  0  0  0
    2.0436   -4.9713    2.1134 C   0  0  0  0  0  0  0  0  0  0  0  0
    2.3849   -6.1844    1.2523 C   0  0  0  0  0  0  0  0  0  0  0  0
    3.3929   -7.1434    1.9469 C   0  0  1  0  0  0  0  0  0  0  0  0
    4.8084   -6.7790    1.5308 N   0  0  0  0  0  0  0  0  0  0  0  0
    5.4222   -5.5069    1.2205 C   0  0  0  0  0  0  0  0  0  0  0  0
    4.9720   -4.1936    0.9446 C   0  0  0  0  0  0  0  0  0  0  0  0
    5.9037   -3.1482    0.7630 C   0  0  0  0  0  0  0  0  0  0  0  0
    7.2876   -3.3882    0.8773 C   0  0  0  0  0  0  0  0  0  0  0  0
    7.7638   -4.6766    1.1765 C   0  0  0  0  0  0  0  0  0  0  0  0
    6.8406   -5.7350    1.3179 C   0  0  0  0  0  0  0  0  0  0  0  0
    7.0595   -7.0614    1.6288 C   0  0  0  0  0  0  0  0  0  0  0  0
    8.1214   -7.7933    2.1584 N   0  0  0  0  0  0  0  0  0  0  0  0
    7.4342   -8.9694    2.5411 C   0  0  0  0  0  0  0  0  0  0  0  0
    6.1205   -8.9562    2.0354 C   0  0  0  0  0  0  0  0  0  0  0  0
    5.8484   -7.6629    1.6311 C   0  0  0  0  0  0  0  0  0  0  0  0
    5.0189   -9.9392    2.0733 C   0  0  0  0  0  0  0  0  0  0  0  0
    4.5946  -10.0482    3.5110 C   0  0  1  0  0  0  0  0  0  0  0  0
    4.8287   -8.8062    4.5448 C   0  0  1  0  0  0  0  0  0  0  0  0
    5.6702   -7.4169    4.5613 C   0  0  0  0  0  0  0  0  0  0  0  0
    5.7355   -6.5737    5.8706 C   0  0  0  0  0  0  0  0  0  0  0  0
    6.5400   -5.2748    5.7060 C   0  0  0  0  0  0  0  0  0  0  0  0
    5.7590   -9.5621    5.5863 C   0  0  0  0  0  0  0  0  0  0  0  0
    7.2874   -9.6927    5.1373 C   0  0  0  0  0  0  0  0  0  0  0  0
    7.7340   -9.9966    3.6384 C   0  0  0  0  0  0  0  0  0  0  0  0
    9.0662   -7.4900    2.3585 H   0  0  0  0  0  0  0  0  0  0  0  0
   -2.3110   -8.4241    3.4235 H   0  0  0  0  0  0  0  0  0  0  0  0
   -2.6072   -9.0547    1.7100 H   0  0  0  0  0  0  0  0  0  0  0  0
   -0.6675  -10.4652    1.8214 H   0  0  0  0  0  0  0  0  0  0  0  0
   -0.4132   -9.2892    4.6598 H   0  0  0  0  0  0  0  0  0  0  0  0
   -0.0800  -10.9551    4.2946 H   0  0  0  0  0  0  0  0  0  0  0  0
    1.6121  -11.5442    2.8063 H   0  0  0  0  0  0  0  0  0  0  0  0
    2.3898  -10.3147    1.8584 H   0  0  0  0  0  0  0  0  0  0  0  0
    2.0398  -11.4347    5.2863 H   0  0  0  0  0  0  0  0  0  0  0  0
    3.4778  -10.7372    5.9371 H   0  0  0  0  0  0  0  0  0  0  0  0
    1.5656   -9.0128    5.6719 H   0  0  0  0  0  0  0  0  0  0  0  0
    3.3133   -7.7175    5.5777 H   0  0  0  0  0  0  0  0  0  0  0  0
    1.8813   -7.1988    3.4871 H   0  0  0  0  0  0  0  0  0  0  0  0
    2.2281   -3.9653    3.9942 H   0  0  0  0  0  0  0  0  0  0  0  0
    1.4909   -4.1639    1.6644 H   0  0  0  0  0  0  0  0  0  0  0  0
    1.4484   -6.6970    1.0322 H   0  0  0  0  0  0  0  0  0  0  0  0
    2.7597   -5.8407    0.2857 H   0  0  0  0  0  0  0  0  0  0  0  0
    3.1521   -8.1101    1.5190 H   0  0  0  0  0  0  0  0  0  0  0  0
    3.9330   -3.9451    0.8499 H   0  0  0  0  0  0  0  0  0  0  0  0
    5.5562   -2.1507    0.5362 H   0  0  0  0  0  0  0  0  0  0  0  0
    7.9944   -2.5805    0.7338 H   0  0  0  0  0  0  0  0  0  0  0  0
    8.8163   -4.8689    1.2802 H   0  0  0  0  0  0  0  0  0  0  0  0
    4.2757   -9.7386    1.3096 H   0  0  0  0  0  0  0  0  0  0  0  0
    5.4368  -10.8908    1.7466 H   0  0  0  0  0  0  0  0  0  0  0  0
    5.3017  -10.8265    3.7741 H   0  0  0  0  0  0  0  0  0  0  0  0
    6.7055   -7.5038    4.2911 H   0  0  0  0  0  0  0  0  0  0  0  0
    5.3260   -6.6834    3.8623 H   0  0  0  0  0  0  0  0  0  0  0  0
    4.7392   -6.2999    6.2085 H   0  0  0  0  0  0  0  0  0  0  0  0
    6.2049   -7.1151    6.6891 H   0  0  0  0  0  0  0  0  0  0  0  0
    6.5769   -4.7278    6.6465 H   0  0  0  0  0  0  0  0  0  0  0  0
    6.0974   -4.6141    4.9617 H   0  0  0  0  0  0  0  0  0  0  0  0
    7.5697   -5.4736    5.4099 H   0  0  0  0  0  0  0  0  0  0  0  0
    5.7015   -9.1179    6.5739 H   0  0  0  0  0  0  0  0  0  0  0  0
    5.4676  -10.5852    5.7992 H   0  0  0  0  0  0  0  0  0  0  0  0
    7.8376   -8.8171    5.4802 H   0  0  0  0  0  0  0  0  0  0  0  0
    7.7277  -10.4751    5.7504 H   0  0  0  0  0  0  0  0  0  0  0  0
    7.4918  -11.0177    3.3281 H   0  0  0  0  0  0  0  0  0  0  0  0
    8.8176  -10.0071    3.6893 H   0  0  0  0  0  0  0  0  0  0  0  0
    1.3808   -8.7400    3.0463 H   0  0  0  0  0  0  0  0  0  0  0  0
    3.6229  -11.8758    3.6127 H   0  0  0  0  0  0  0  0  0  0  0  0
  1  2  2  0
  1 38  1  0
  1 39  1  0
  2  3  1  0
  2 40  1  0
  3  4  1  0
  3 41  1  0
  3 42  1  0
  4  8  1  0
  4  5  1  0
  4 75  1  6
  5  6  1  0
  5 43  1  0
  5 44  1  0
  6 29  1  0
  6  7  1  0
  6 76  1  1
  7  8  1  0
  7 45  1  0
  7 46  1  0
  8  9  1  0
  8 47  1  1
  9 30  1  0
  9 10  1  0
  9 48  1  1
 10 15  1  0
 10 11  1  0
 10 49  1  6
 11 12  1  0
 12 13  2  0
 12 50  1  0
 13 14  1  0
 13 51  1  0
 14 15  1  0
 14 52  1  0
 14 53  1  0
 15 16  1  0
 15 54  1  6
 16 27  1  0
 16 17  1  0
 17 22  2  0
 17 18  1  0
 18 19  2  0
 18 55  1  0
 19 20  1  0
 19 56  1  0
 20 21  2  0
 20 57  1  0
 21 22  1  0
 21 58  1  0
 22 23  1  0
 23 27  2  0
 23 24  1  0
 24 37  1  0
 24 25  1  0
 25 36  1  0
 25 26  2  0
 26 27  1  0
 26 28  1  0
 28 29  1  0
 28 59  1  0
 28 60  1  0
 29 30  1  0
 29 61  1  1
 30 31  1  6
 30 34  1  0
 31 32  1  0
 31 62  1  0
 31 63  1  0
 32 33  1  0
 32 64  1  0
 32 65  1  0
 33 66  1  0
 33 67  1  0
 33 68  1  0
 34 35  1  0
 34 69  1  0
 34 70  1  0
 35 36  1  0
 35 71  1  0
 35 72  1  0
 36 73  1  0
 36 74  1  0
M  CHG  2   4   1   6   1
M  END
>  <i_m_ct_stereo_status>  (87) 
1

>  <s_m_source_file>  (87) 
/var/tmp/pbs.5076255.sched01/tmpx9mnojvb/44r91_cmns.sdf

>  <i_m_source_file_index>  (87) 
8

>  <i_lp_mmshare_version>  (87) 
48012

>  <i_f3d_flags>  (87) 
0

>  <s_epik_input>  (87) 
W0NIM11bQ0gyXVtDSDJdW0NAQF0xMltDQEBIXTNbQ0BIXTROKFtDSDJdW0NIXT1bQ0gyXSlbQ0gyXU4oW0NIMl00KVtDSF0xW0NIMl1jNWMoW0NIMl1bQ0gyXVtDSDJdMilbbkhdYzZjN2MoW2NIXVtjSF1bY0hdW2NIXTcpbihjNTYpW0NASF04W0NAQEhdM09bQ0hdPVtDSF1bQ0gyXTg=

>  <s_epik_cmdline>  (87) 
J2VwaWtfcHl0aG9uJywgJy1waHQnLCAnMi4wJywgJy1waCcsICc3LjAnLCAnLXRuJywgJzgnLCAnLW1hJywgJzIwMCcsICctaW1hZScsICc8aW5maWxlLm1hZT4nLCAnLW9tYWUnLCAnPG91dGZpbGUubWFlPic=

>  <r_epik_Ionization_Penalty>  (87) 
0.347117

>  <r_epik_Ionization_Penalty_Charging>  (87) 
0.347117

>  <r_epik_Ionization_Penalty_Neutral>  (87) 
1.64902e-09

>  <r_epik_State_Penalty>  (87) 
0.304118

>  <r_epik_Charging_Adjusted_Penalty>  (87) 
0.651235

>  <i_epik_Tot_Q>  (87) 
2

>  <i_epik_Tot_abs_Q>  (87) 
2

>  <s_epik_Chemistry_Notes>  (87) 
This compound contains an acetal/aminal-like group ( X-CH(R)-Y where X, Y are N, S, or O) that may be acid/base labile, releasing an aldehyde.

>  <s_lp_Force_Field>  (87) 
OPLS3e

>  <r_lp_Energy>  (87) 
190.819

>  <b_lp_Chiralities_Consistent>  (87) 
1

>  <s_lp_Variant>  (87) 
25:0-2

>  <s_i_glide_gridfile>  (87) 
pfpi4k_grid

>  <i_i_glide_lignum>  (87) 
8

>  <i_i_glide_rotatable_bonds>  (87) 
4

>  <r_i_docking_score>  (87) 
-3.68779

>  <r_i_glide_ligand_efficiency>  (87) 
-0.102439

>  <r_i_glide_ligand_efficiency_sa>  (87) 
-0.338245

>  <r_i_glide_ligand_efficiency_ln>  (87) 
-0.804576

>  <r_i_glide_gscore>  (87) 
-3.68779

>  <r_i_glide_lipo>  (87) 
-0.941515

>  <r_i_glide_hbond>  (87) 
-0.0697583

>  <r_i_glide_metal>  (87) 
-0

>  <r_i_glide_rewards>  (87) 
-0.265414

>  <r_i_glide_evdw>  (87) 
-24.0007

>  <r_i_glide_ecoul>  (87) 
-9.25598

>  <r_i_glide_erotb>  (87) 
0.259371

>  <r_i_glide_esite>  (87) 
-0.082042

>  <r_i_glide_emodel>  (87) 
-44.5577

>  <r_i_glide_energy>  (87) 
-33.2566

>  <r_i_glide_einternal>  (87) 
0.323927

>  <r_i_glide_intrahb_reward>  (87) 
-0

>  <i_i_glide_confnum>  (87) 
2

>  <i_i_glide_posenum>  (87) 
34

>  <r_i_glide_eff_state_penalty>  (87) 
0

>  <ligand_id>  (87) 
25

>  <original_smiles>  (87) 
C=CCN1CN2CC1C1C3OC=CCC3n3c4ccccc4c4[nH]c5c(c43)CC2C1(CCC)CCC5

>  <smiles>  (87) 
[H]C([H])=C([H])C([H])([H])[N+]1([H])C2([H])C3([H])C4([H])OC([H])=C([H])C([H])([H])C4([H])n4c5c([H])c([H])c([H])c([H])c5c5c4c4c(n5[H])C([H])([H])C([H])([H])C([H])([H])C3(C([H])([H])C([H])([H])C([H])([H])[H])C([H])(C4([H])[H])[N+]([H])(C2([H])[H])C1([H])[H]

$$$$
25:1:1
     RDKit          3D

 76 83  0  0  1  0  0  0  0  0999 V2000
    1.8671   -3.5143   -1.8375 C   0  0  0  0  0  0  0  0  0  0  0  0
    2.7782   -3.2060   -0.9053 C   0  0  0  0  0  0  0  0  0  0  0  0
    4.1602   -3.8235   -0.8121 C   0  0  0  0  0  0  0  0  0  0  0  0
    4.3793   -4.5452    0.4855 N   0  0  2  0  0  0  0  0  0  0  0  0
    5.2060   -3.8084    1.4837 C   0  0  0  0  0  0  0  0  0  0  0  0
    6.3350   -4.7327    1.8000 N   0  0  2  0  0  0  0  0  0  0  0  0
    6.5072   -5.4428    0.5222 C   0  0  0  0  0  0  0  0  0  0  0  0
    5.0649   -5.8621    0.3187 C   0  0  1  0  0  0  0  0  0  0  0  0
    4.6536   -6.9323    1.4091 C   0  0  2  0  0  0  0  0  0  0  0  0
    3.1323   -6.7401    1.9234 C   0  0  1  0  0  0  0  0  0  0  0  0
    2.4098   -7.9666    1.7730 O   0  0  0  0  0  0  0  0  0  0  0  0
    1.0433   -7.8361    1.7836 C   0  0  0  0  0  0  0  0  0  0  0  0
    0.4108   -6.7638    2.2891 C   0  0  0  0  0  0  0  0  0  0  0  0
    1.1470   -5.6423    3.0183 C   0  0  0  0  0  0  0  0  0  0  0  0
    2.6521   -5.9618    3.2588 C   0  0  1  0  0  0  0  0  0  0  0  0
    2.8330   -6.5985    4.6307 N   0  0  0  0  0  0  0  0  0  0  0  0
    1.9757   -7.4764    5.3864 C   0  0  0  0  0  0  0  0  0  0  0  0
    0.6291   -7.9116    5.3206 C   0  0  0  0  0  0  0  0  0  0  0  0
    0.1532   -8.8866    6.2173 C   0  0  0  0  0  0  0  0  0  0  0  0
    1.0049   -9.4508    7.1814 C   0  0  0  0  0  0  0  0  0  0  0  0
    2.3524   -9.0617    7.2553 C   0  0  0  0  0  0  0  0  0  0  0  0
    2.8292   -8.0658    6.3946 C   0  0  0  0  0  0  0  0  0  0  0  0
    4.1044   -7.5328    6.2710 C   0  0  0  0  0  0  0  0  0  0  0  0
    5.3824   -7.8924    6.7038 N   0  0  0  0  0  0  0  0  0  0  0  0
    6.1734   -7.0758    5.8686 C   0  0  0  0  0  0  0  0  0  0  0  0
    5.3382   -6.1665    5.1651 C   0  0  0  0  0  0  0  0  0  0  0  0
    4.0304   -6.6029    5.2983 C   0  0  0  0  0  0  0  0  0  0  0  0
    5.6107   -5.0764    4.2149 C   0  0  0  0  0  0  0  0  0  0  0  0
    6.1322   -5.7032    2.9495 C   0  0  1  0  0  0  0  0  0  0  0  0
    5.7239   -7.2269    2.5463 C   0  0  1  0  0  0  0  0  0  0  0  0
    5.0300   -8.4930    3.2793 C   0  0  0  0  0  0  0  0  0  0  0  0
    4.9613   -9.8617    2.5329 C   0  0  0  0  0  0  0  0  0  0  0  0
    4.2294  -10.9419    3.3417 C   0  0  0  0  0  0  0  0  0  0  0  0
    7.1885   -7.8389    2.5213 C   0  0  0  0  0  0  0  0  0  0  0  0
    7.7755   -8.1923    3.9664 C   0  0  0  0  0  0  0  0  0  0  0  0
    7.5753   -7.2801    5.2659 C   0  0  0  0  0  0  0  0  0  0  0  0
    5.6352   -8.7165    7.2280 H   0  0  0  0  0  0  0  0  0  0  0  0
    2.0504   -4.2337   -2.6141 H   0  0  0  0  0  0  0  0  0  0  0  0
    0.9007   -3.0494   -1.8728 H   0  0  0  0  0  0  0  0  0  0  0  0
    2.5315   -2.4401   -0.1793 H   0  0  0  0  0  0  0  0  0  0  0  0
    4.2706   -4.4947   -1.6613 H   0  0  0  0  0  0  0  0  0  0  0  0
    4.9053   -3.0462   -0.9874 H   0  0  0  0  0  0  0  0  0  0  0  0
    5.6415   -2.9124    1.0487 H   0  0  0  0  0  0  0  0  0  0  0  0
    4.6150   -3.4591    2.3191 H   0  0  0  0  0  0  0  0  0  0  0  0
    6.8215   -4.7281   -0.2422 H   0  0  0  0  0  0  0  0  0  0  0  0
    7.2259   -6.2549    0.4780 H   0  0  0  0  0  0  0  0  0  0  0  0
    4.9049   -6.2883   -0.6763 H   0  0  0  0  0  0  0  0  0  0  0  0
    4.6461   -7.8356    0.8028 H   0  0  0  0  0  0  0  0  0  0  0  0
    2.6842   -6.1761    1.1053 H   0  0  0  0  0  0  0  0  0  0  0  0
    0.5390   -8.6504    1.2923 H   0  0  0  0  0  0  0  0  0  0  0  0
   -0.6685   -6.7123    2.2265 H   0  0  0  0  0  0  0  0  0  0  0  0
    1.0370   -4.7378    2.4195 H   0  0  0  0  0  0  0  0  0  0  0  0
    0.6211   -5.4366    3.9533 H   0  0  0  0  0  0  0  0  0  0  0  0
    3.1048   -4.9781    3.2733 H   0  0  0  0  0  0  0  0  0  0  0  0
   -0.0786   -7.5277    4.6037 H   0  0  0  0  0  0  0  0  0  0  0  0
   -0.8725   -9.2224    6.1690 H   0  0  0  0  0  0  0  0  0  0  0  0
    0.6363  -10.2086    7.8629 H   0  0  0  0  0  0  0  0  0  0  0  0
    3.0155   -9.5141    7.9752 H   0  0  0  0  0  0  0  0  0  0  0  0
    4.7832   -4.3800    4.1474 H   0  0  0  0  0  0  0  0  0  0  0  0
    6.3806   -4.4722    4.6841 H   0  0  0  0  0  0  0  0  0  0  0  0
    7.1729   -5.7059    3.2487 H   0  0  0  0  0  0  0  0  0  0  0  0
    5.4483   -8.7453    4.2368 H   0  0  0  0  0  0  0  0  0  0  0  0
    3.9995   -8.3475    3.5232 H   0  0  0  0  0  0  0  0  0  0  0  0
    4.4423   -9.7719    1.5813 H   0  0  0  0  0  0  0  0  0  0  0  0
    5.9468  -10.2632    2.3089 H   0  0  0  0  0  0  0  0  0  0  0  0
    4.2169  -11.8839    2.7969 H   0  0  0  0  0  0  0  0  0  0  0  0
    3.1921  -10.6722    3.5380 H   0  0  0  0  0  0  0  0  0  0  0  0
    4.7161  -11.1303    4.2978 H   0  0  0  0  0  0  0  0  0  0  0  0
    7.2459   -8.7083    1.8735 H   0  0  0  0  0  0  0  0  0  0  0  0
    7.9498   -7.2022    2.0818 H   0  0  0  0  0  0  0  0  0  0  0  0
    7.4980   -9.2134    4.2220 H   0  0  0  0  0  0  0  0  0  0  0  0
    8.8491   -8.2941    3.8359 H   0  0  0  0  0  0  0  0  0  0  0  0
    8.1255   -6.3343    5.1869 H   0  0  0  0  0  0  0  0  0  0  0  0
    8.1080   -7.8215    6.0402 H   0  0  0  0  0  0  0  0  0  0  0  0
    3.4591   -4.7193    0.8726 H   0  0  0  0  0  0  0  0  0  0  0  0
    7.1623   -4.1775    1.9949 H   0  0  0  0  0  0  0  0  0  0  0  0
  1  2  2  0
  1 38  1  0
  1 39  1  0
  2  3  1  0
  2 40  1  0
  3  4  1  0
  3 41  1  0
  3 42  1  0
  4  8  1  0
  4  5  1  0
  4 75  1  1
  5  6  1  0
  5 43  1  0
  5 44  1  0
  6 29  1  0
  6  7  1  0
  6 76  1  1
  7  8  1  0
  7 45  1  0
  7 46  1  0
  8  9  1  0
  8 47  1  6
  9 30  1  0
  9 10  1  0
  9 48  1  6
 10 15  1  0
 10 11  1  0
 10 49  1  6
 11 12  1  0
 12 13  2  0
 12 50  1  0
 13 14  1  0
 13 51  1  0
 14 15  1  0
 14 52  1  0
 14 53  1  0
 15 16  1  0
 15 54  1  1
 16 27  1  0
 16 17  1  0
 17 22  2  0
 17 18  1  0
 18 19  2  0
 18 55  1  0
 19 20  1  0
 19 56  1  0
 20 21  2  0
 20 57  1  0
 21 22  1  0
 21 58  1  0
 22 23  1  0
 23 27  2  0
 23 24  1  0
 24 37  1  0
 24 25  1  0
 25 36  1  0
 25 26  2  0
 26 27  1  0
 26 28  1  0
 28 29  1  0
 28 59  1  0
 28 60  1  0
 29 30  1  0
 29 61  1  1
 30 31  1  1
 30 34  1  0
 31 32  1  0
 31 62  1  0
 31 63  1  0
 32 33  1  0
 32 64  1  0
 32 65  1  0
 33 66  1  0
 33 67  1  0
 33 68  1  0
 34 35  1  0
 34 69  1  0
 34 70  1  0
 35 36  1  0
 35 71  1  0
 35 72  1  0
 36 73  1  0
 36 74  1  0
M  CHG  2   4   1   6   1
M  END
>  <i_m_ct_stereo_status>  (88) 
1

>  <s_m_source_file>  (88) 
/var/tmp/pbs.5076255.sched01/tmpx9mnojvb/44r91_cmns.sdf

>  <i_m_source_file_index>  (88) 
8

>  <i_lp_mmshare_version>  (88) 
48012

>  <i_f3d_flags>  (88) 
0

>  <s_epik_input>  (88) 
W0NIM11bQ0gyXVtDSDJdW0NAQF0xMltDQEBIXTNbQ0BIXTROKFtDSDJdW0NIXT1bQ0gyXSlbQ0gyXU4oW0NIMl00KVtDSF0xW0NIMl1jNWMoW0NIMl1bQ0gyXVtDSDJdMilbbkhdYzZjN2MoW2NIXVtjSF1bY0hdW2NIXTcpbihjNTYpW0NASF04W0NAQEhdM09bQ0hdPVtDSF1bQ0gyXTg=

>  <s_epik_cmdline>  (88) 
J2VwaWtfcHl0aG9uJywgJy1waHQnLCAnMi4wJywgJy1waCcsICc3LjAnLCAnLXRuJywgJzgnLCAnLW1hJywgJzIwMCcsICctaW1hZScsICc8aW5maWxlLm1hZT4nLCAnLW9tYWUnLCAnPG91dGZpbGUubWFlPic=

>  <r_epik_Ionization_Penalty>  (88) 
0.347117

>  <r_epik_Ionization_Penalty_Charging>  (88) 
0.347117

>  <r_epik_Ionization_Penalty_Neutral>  (88) 
1.64902e-09

>  <r_epik_State_Penalty>  (88) 
0.304118

>  <r_epik_Charging_Adjusted_Penalty>  (88) 
0.651235

>  <i_epik_Tot_Q>  (88) 
2

>  <i_epik_Tot_abs_Q>  (88) 
2

>  <s_epik_Chemistry_Notes>  (88) 
This compound contains an acetal/aminal-like group ( X-CH(R)-Y where X, Y are N, S, or O) that may be acid/base labile, releasing an aldehyde.

>  <s_lp_Force_Field>  (88) 
OPLS3e

>  <r_lp_Energy>  (88) 
190.819

>  <b_lp_Chiralities_Consistent>  (88) 
1

>  <s_lp_Variant>  (88) 
25:0-2

>  <s_i_glide_gridfile>  (88) 
pfpi4k_grid

>  <i_i_glide_lignum>  (88) 
8

>  <i_i_glide_rotatable_bonds>  (88) 
4

>  <r_i_docking_score>  (88) 
-2.19798

>  <r_i_glide_ligand_efficiency>  (88) 
-0.0610551

>  <r_i_glide_ligand_efficiency_sa>  (88) 
-0.201599

>  <r_i_glide_ligand_efficiency_ln>  (88) 
-0.479541

>  <r_i_glide_gscore>  (88) 
-2.19798

>  <r_i_glide_lipo>  (88) 
-0.447673

>  <r_i_glide_hbond>  (88) 
0

>  <r_i_glide_metal>  (88) 
-0

>  <r_i_glide_rewards>  (88) 
-0.158149

>  <r_i_glide_evdw>  (88) 
-21.1716

>  <r_i_glide_ecoul>  (88) 
-5.28636

>  <r_i_glide_erotb>  (88) 
0.259371

>  <r_i_glide_esite>  (88) 
0

>  <r_i_glide_emodel>  (88) 
-31.8744

>  <r_i_glide_energy>  (88) 
-26.4579

>  <r_i_glide_einternal>  (88) 
2.37801

>  <r_i_glide_intrahb_reward>  (88) 
-0

>  <i_i_glide_confnum>  (88) 
2

>  <i_i_glide_posenum>  (88) 
5

>  <r_i_glide_eff_state_penalty>  (88) 
0

>  <ligand_id>  (88) 
25

>  <original_smiles>  (88) 
C=CCN1CN2CC1C1C3OC=CCC3n3c4ccccc4c4[nH]c5c(c43)CC2C1(CCC)CCC5

>  <smiles>  (88) 
[H]C([H])=C([H])C([H])([H])[N+]1([H])C2([H])C3([H])C4([H])OC([H])=C([H])C([H])([H])C4([H])n4c5c([H])c([H])c([H])c([H])c5c5c4c4c(n5[H])C([H])([H])C([H])([H])C([H])([H])C3(C([H])([H])C([H])([H])C([H])([H])[H])C([H])(C4([H])[H])[N+]([H])(C2([H])[H])C1([H])[H]

$$$$
25:1:2
     RDKit          3D

 76 83  0  0  1  0  0  0  0  0999 V2000
    2.9535   -2.6773   -2.0096 C   0  0  0  0  0  0  0  0  0  0  0  0
    3.8565   -2.7701   -1.0181 C   0  0  0  0  0  0  0  0  0  0  0  0
    4.8680   -3.8928   -0.8966 C   0  0  0  0  0  0  0  0  0  0  0  0
    4.8842   -4.5202    0.4603 N   0  0  2  0  0  0  0  0  0  0  0  0
    5.5613   -3.7286    1.5152 C   0  0  0  0  0  0  0  0  0  0  0  0
    6.6186   -4.6350    2.0477 N   0  0  2  0  0  0  0  0  0  0  0  0
    6.9879   -5.4113    0.8571 C   0  0  0  0  0  0  0  0  0  0  0  0
    5.5872   -5.8314    0.4653 C   0  0  1  0  0  0  0  0  0  0  0  0
    5.0248   -6.8577    1.5375 C   0  0  2  0  0  0  0  0  0  0  0  0
    3.4492   -6.6454    1.8089 C   0  0  1  0  0  0  0  0  0  0  0  0
    2.7742   -7.8871    1.6450 O   0  0  0  0  0  0  0  0  0  0  0  0
    1.4245   -7.7785    1.4194 C   0  0  0  0  0  0  0  0  0  0  0  0
    0.7087   -6.6876    1.7492 C   0  0  0  0  0  0  0  0  0  0  0  0
    1.3209   -5.5203    2.5236 C   0  0  0  0  0  0  0  0  0  0  0  0
    2.7683   -5.8052    3.0103 C   0  0  1  0  0  0  0  0  0  0  0  0
    2.7373   -6.3577    4.4248 N   0  0  0  0  0  0  0  0  0  0  0  0
    1.7727   -7.2076    5.0893 C   0  0  0  0  0  0  0  0  0  0  0  0
    0.4540   -7.6561    4.8408 C   0  0  0  0  0  0  0  0  0  0  0  0
   -0.1513   -8.5932    5.7055 C   0  0  0  0  0  0  0  0  0  0  0  0
    0.5486   -9.1006    6.8191 C   0  0  0  0  0  0  0  0  0  0  0  0
    1.8663   -8.6846    7.0794 C   0  0  0  0  0  0  0  0  0  0  0  0
    2.4671   -7.7264    6.2422 C   0  0  0  0  0  0  0  0  0  0  0  0
    3.7424   -7.1865    6.2890 C   0  0  0  0  0  0  0  0  0  0  0  0
    4.9409   -7.5077    6.9258 N   0  0  0  0  0  0  0  0  0  0  0  0
    5.8494   -6.7323    6.1799 C   0  0  0  0  0  0  0  0  0  0  0  0
    5.1308   -5.8713    5.3043 C   0  0  0  0  0  0  0  0  0  0  0  0
    3.8177   -6.3091    5.2646 C   0  0  0  0  0  0  0  0  0  0  0  0
    5.5450   -4.8332    4.3419 C   0  0  0  0  0  0  0  0  0  0  0  0
    6.2475   -5.5325    3.2077 C   0  0  1  0  0  0  0  0  0  0  0  0
    5.9090   -7.0798    2.8397 C   0  0  1  0  0  0  0  0  0  0  0  0
    5.1132   -8.3086    3.5322 C   0  0  0  0  0  0  0  0  0  0  0  0
    5.1560   -9.7161    2.8609 C   0  0  0  0  0  0  0  0  0  0  0  0
    4.3099  -10.7562    3.6088 C   0  0  0  0  0  0  0  0  0  0  0  0
    7.3610   -7.6792    3.0737 C   0  0  0  0  0  0  0  0  0  0  0  0
    7.7240   -7.9429    4.6099 C   0  0  0  0  0  0  0  0  0  0  0  0
    7.3264   -6.9577    5.8063 C   0  0  0  0  0  0  0  0  0  0  0  0
    5.1160   -8.2970    7.5322 H   0  0  0  0  0  0  0  0  0  0  0  0
    2.8697   -3.4106   -2.8044 H   0  0  0  0  0  0  0  0  0  0  0  0
    2.2604   -1.8469   -2.0446 H   0  0  0  0  0  0  0  0  0  0  0  0
    3.8759   -1.9887   -0.2702 H   0  0  0  0  0  0  0  0  0  0  0  0
    4.6179   -4.6365   -1.6556 H   0  0  0  0  0  0  0  0  0  0  0  0
    5.8512   -3.5060   -1.1731 H   0  0  0  0  0  0  0  0  0  0  0  0
    6.0557   -2.8627    1.0780 H   0  0  0  0  0  0  0  0  0  0  0  0
    4.8512   -3.3314    2.2293 H   0  0  0  0  0  0  0  0  0  0  0  0
    7.4280   -4.7450    0.1098 H   0  0  0  0  0  0  0  0  0  0  0  0
    7.7027   -6.2216    0.9648 H   0  0  0  0  0  0  0  0  0  0  0  0
    5.5408   -6.2612   -0.5316 H   0  0  0  0  0  0  0  0  0  0  0  0
    5.1120   -7.7900    0.9856 H   0  0  0  0  0  0  0  0  0  0  0  0
    3.1254   -6.1406    0.8980 H   0  0  0  0  0  0  0  0  0  0  0  0
    1.0400   -8.6408    0.9048 H   0  0  0  0  0  0  0  0  0  0  0  0
   -0.3478   -6.6452    1.5097 H   0  0  0  0  0  0  0  0  0  0  0  0
    1.3573   -4.6571    1.8636 H   0  0  0  0  0  0  0  0  0  0  0  0
    0.6554   -5.2510    3.3483 H   0  0  0  0  0  0  0  0  0  0  0  0
    3.2110   -4.8169    3.0342 H   0  0  0  0  0  0  0  0  0  0  0  0
   -0.1368   -7.3137    4.0103 H   0  0  0  0  0  0  0  0  0  0  0  0
   -1.1590   -8.9349    5.5267 H   0  0  0  0  0  0  0  0  0  0  0  0
    0.0788   -9.8141    7.4826 H   0  0  0  0  0  0  0  0  0  0  0  0
    2.4106   -9.0797    7.9191 H   0  0  0  0  0  0  0  0  0  0  0  0
    4.7373   -4.1522    4.1105 H   0  0  0  0  0  0  0  0  0  0  0  0
    6.2397   -4.1870    4.8737 H   0  0  0  0  0  0  0  0  0  0  0  0
    7.2314   -5.5093    3.6617 H   0  0  0  0  0  0  0  0  0  0  0  0
    5.3823   -8.5048    4.5550 H   0  0  0  0  0  0  0  0  0  0  0  0
    4.0576   -8.1583    3.6118 H   0  0  0  0  0  0  0  0  0  0  0  0
    4.7843   -9.6824    1.8387 H   0  0  0  0  0  0  0  0  0  0  0  0
    6.1644  -10.1202    2.8093 H   0  0  0  0  0  0  0  0  0  0  0  0
    4.3765  -11.7253    3.1167 H   0  0  0  0  0  0  0  0  0  0  0  0
    3.2559  -10.4813    3.6341 H   0  0  0  0  0  0  0  0  0  0  0  0
    4.6482  -10.8884    4.6359 H   0  0  0  0  0  0  0  0  0  0  0  0
    7.5194   -8.5834    2.4938 H   0  0  0  0  0  0  0  0  0  0  0  0
    8.1793   -7.0602    2.7169 H   0  0  0  0  0  0  0  0  0  0  0  0
    7.4110   -8.9508    4.8780 H   0  0  0  0  0  0  0  0  0  0  0  0
    8.8053   -8.0421    4.6504 H   0  0  0  0  0  0  0  0  0  0  0  0
    7.8829   -6.0174    5.7590 H   0  0  0  0  0  0  0  0  0  0  0  0
    7.7353   -7.4511    6.6859 H   0  0  0  0  0  0  0  0  0  0  0  0
    3.9152   -4.6817    0.7106 H   0  0  0  0  0  0  0  0  0  0  0  0
    7.4096   -4.0674    2.3327 H   0  0  0  0  0  0  0  0  0  0  0  0
  1  2  2  0
  1 38  1  0
  1 39  1  0
  2  3  1  0
  2 40  1  0
  3  4  1  0
  3 41  1  0
  3 42  1  0
  4  8  1  0
  4  5  1  0
  4 75  1  1
  5  6  1  0
  5 43  1  0
  5 44  1  0
  6 29  1  0
  6  7  1  0
  6 76  1  1
  7  8  1  0
  7 45  1  0
  7 46  1  0
  8  9  1  0
  8 47  1  6
  9 30  1  0
  9 10  1  0
  9 48  1  6
 10 15  1  0
 10 11  1  0
 10 49  1  6
 11 12  1  0
 12 13  2  0
 12 50  1  0
 13 14  1  0
 13 51  1  0
 14 15  1  0
 14 52  1  0
 14 53  1  0
 15 16  1  0
 15 54  1  1
 16 27  1  0
 16 17  1  0
 17 22  2  0
 17 18  1  0
 18 19  2  0
 18 55  1  0
 19 20  1  0
 19 56  1  0
 20 21  2  0
 20 57  1  0
 21 22  1  0
 21 58  1  0
 22 23  1  0
 23 27  2  0
 23 24  1  0
 24 37  1  0
 24 25  1  0
 25 36  1  0
 25 26  2  0
 26 27  1  0
 26 28  1  0
 28 29  1  0
 28 59  1  0
 28 60  1  0
 29 30  1  0
 29 61  1  1
 30 31  1  1
 30 34  1  0
 31 32  1  0
 31 62  1  0
 31 63  1  0
 32 33  1  0
 32 64  1  0
 32 65  1  0
 33 66  1  0
 33 67  1  0
 33 68  1  0
 34 35  1  0
 34 69  1  0
 34 70  1  0
 35 36  1  0
 35 71  1  0
 35 72  1  0
 36 73  1  0
 36 74  1  0
M  CHG  2   4   1   6   1
M  END
>  <i_m_ct_stereo_status>  (89) 
1

>  <s_m_source_file>  (89) 
/var/tmp/pbs.5076255.sched01/tmpx9mnojvb/44r91_cmns.sdf

>  <i_m_source_file_index>  (89) 
8

>  <i_lp_mmshare_version>  (89) 
48012

>  <i_f3d_flags>  (89) 
0

>  <s_epik_input>  (89) 
W0NIM11bQ0gyXVtDSDJdW0NAQF0xMltDQEBIXTNbQ0BIXTROKFtDSDJdW0NIXT1bQ0gyXSlbQ0gyXU4oW0NIMl00KVtDSF0xW0NIMl1jNWMoW0NIMl1bQ0gyXVtDSDJdMilbbkhdYzZjN2MoW2NIXVtjSF1bY0hdW2NIXTcpbihjNTYpW0NASF04W0NAQEhdM09bQ0hdPVtDSF1bQ0gyXTg=

>  <s_epik_cmdline>  (89) 
J2VwaWtfcHl0aG9uJywgJy1waHQnLCAnMi4wJywgJy1waCcsICc3LjAnLCAnLXRuJywgJzgnLCAnLW1hJywgJzIwMCcsICctaW1hZScsICc8aW5maWxlLm1hZT4nLCAnLW9tYWUnLCAnPG91dGZpbGUubWFlPic=

>  <r_epik_Ionization_Penalty>  (89) 
0.347117

>  <r_epik_Ionization_Penalty_Charging>  (89) 
0.347117

>  <r_epik_Ionization_Penalty_Neutral>  (89) 
1.64902e-09

>  <r_epik_State_Penalty>  (89) 
0.304118

>  <r_epik_Charging_Adjusted_Penalty>  (89) 
0.651235

>  <i_epik_Tot_Q>  (89) 
2

>  <i_epik_Tot_abs_Q>  (89) 
2

>  <s_epik_Chemistry_Notes>  (89) 
This compound contains an acetal/aminal-like group ( X-CH(R)-Y where X, Y are N, S, or O) that may be acid/base labile, releasing an aldehyde.

>  <s_lp_Force_Field>  (89) 
OPLS3e

>  <r_lp_Energy>  (89) 
190.819

>  <b_lp_Chiralities_Consistent>  (89) 
1

>  <s_lp_Variant>  (89) 
25:0-2

>  <s_i_glide_gridfile>  (89) 
pfpi4k_grid

>  <i_i_glide_lignum>  (89) 
8

>  <i_i_glide_rotatable_bonds>  (89) 
4

>  <r_i_docking_score>  (89) 
-1.91678

>  <r_i_glide_ligand_efficiency>  (89) 
-0.0532439

>  <r_i_glide_ligand_efficiency_sa>  (89) 
-0.175808

>  <r_i_glide_ligand_efficiency_ln>  (89) 
-0.41819

>  <r_i_glide_gscore>  (89) 
-1.91678

>  <r_i_glide_lipo>  (89) 
-0.342933

>  <r_i_glide_hbond>  (89) 
0

>  <r_i_glide_metal>  (89) 
-0

>  <r_i_glide_rewards>  (89) 
-0.179182

>  <r_i_glide_evdw>  (89) 
-19.764

>  <r_i_glide_ecoul>  (89) 
-4.4389

>  <r_i_glide_erotb>  (89) 
0.259371

>  <r_i_glide_esite>  (89) 
0

>  <r_i_glide_emodel>  (89) 
-29.6431

>  <r_i_glide_energy>  (89) 
-24.2029

>  <r_i_glide_einternal>  (89) 
0.520352

>  <r_i_glide_intrahb_reward>  (89) 
-0

>  <i_i_glide_confnum>  (89) 
2

>  <i_i_glide_posenum>  (89) 
30

>  <r_i_glide_eff_state_penalty>  (89) 
0

>  <ligand_id>  (89) 
25

>  <original_smiles>  (89) 
C=CCN1CN2CC1C1C3OC=CCC3n3c4ccccc4c4[nH]c5c(c43)CC2C1(CCC)CCC5

>  <smiles>  (89) 
[H]C([H])=C([H])C([H])([H])[N+]1([H])C2([H])C3([H])C4([H])OC([H])=C([H])C([H])([H])C4([H])n4c5c([H])c([H])c([H])c([H])c5c5c4c4c(n5[H])C([H])([H])C([H])([H])C([H])([H])C3(C([H])([H])C([H])([H])C([H])([H])[H])C([H])(C4([H])[H])[N+]([H])(C2([H])[H])C1([H])[H]

$$$$
25:2:0
     RDKit          3D

 75 82  0  0  1  0  0  0  0  0999 V2000
    5.0953   -0.8487   -1.5934 C   0  0  0  0  0  0  0  0  0  0  0  0
    5.8177   -1.2635   -0.5511 C   0  0  0  0  0  0  0  0  0  0  0  0
    6.0367   -0.4892    0.7450 C   0  0  0  0  0  0  0  0  0  0  0  0
    5.0809   -0.8429    1.8394 N   0  0  2  0  0  0  0  0  0  0  0  0
    5.6258   -0.5798    3.2246 C   0  0  0  0  0  0  0  0  0  0  0  0
    5.2911   -1.7651    4.0265 N   0  0  0  0  0  0  0  0  0  0  0  0
    5.5780   -2.7636    2.9798 C   0  0  0  0  0  0  0  0  0  0  0  0
    4.6639   -2.2687    1.8892 C   0  0  1  0  0  0  0  0  0  0  0  0
    3.1996   -2.4982    2.3755 C   0  0  2  0  0  0  0  0  0  0  0  0
    2.2489   -3.3463    1.5493 C   0  0  1  0  0  0  0  0  0  0  0  0
    2.3300   -3.0127    0.1554 O   0  0  0  0  0  0  0  0  0  0  0  0
    3.1341   -3.7971   -0.6405 C   0  0  0  0  0  0  0  0  0  0  0  0
    3.7470   -4.9284   -0.2390 C   0  0  0  0  0  0  0  0  0  0  0  0
    3.5301   -5.5440    1.1351 C   0  0  0  0  0  0  0  0  0  0  0  0
    2.3106   -4.9047    1.7906 C   0  0  1  0  0  0  0  0  0  0  0  0
    1.8757   -5.5280    3.0689 N   0  0  0  0  0  0  0  0  0  0  0  0
    1.0321   -6.6931    3.0643 C   0  0  0  0  0  0  0  0  0  0  0  0
    0.6338   -7.6270    2.0866 C   0  0  0  0  0  0  0  0  0  0  0  0
   -0.3168   -8.6037    2.4427 C   0  0  0  0  0  0  0  0  0  0  0  0
   -0.8875   -8.6296    3.7233 C   0  0  0  0  0  0  0  0  0  0  0  0
   -0.5266   -7.6784    4.6892 C   0  0  0  0  0  0  0  0  0  0  0  0
    0.4423   -6.7189    4.3619 C   0  0  0  0  0  0  0  0  0  0  0  0
    0.9564   -5.6578    5.0901 C   0  0  0  0  0  0  0  0  0  0  0  0
    0.6004   -5.0588    6.2748 N   0  0  0  0  0  0  0  0  0  0  0  0
    1.4582   -3.9744    6.2781 C   0  0  0  0  0  0  0  0  0  0  0  0
    2.4501   -4.0713    5.2708 C   0  0  0  0  0  0  0  0  0  0  0  0
    1.9267   -5.0483    4.3700 C   0  0  0  0  0  0  0  0  0  0  0  0
    3.7676   -3.2738    5.2280 C   0  0  0  0  0  0  0  0  0  0  0  0
    3.8813   -1.8447    4.5607 C   0  0  2  0  0  0  0  0  0  0  0  0
    2.7049   -1.5492    3.5319 C   0  0  1  0  0  0  0  0  0  0  0  0
    2.5377   -0.0388    3.1202 C   0  0  0  0  0  0  0  0  0  0  0  0
    1.7340    0.1943    1.8188 C   0  0  0  0  0  0  0  0  0  0  0  0
    1.0796    1.5782    1.8053 C   0  0  0  0  0  0  0  0  0  0  0  0
    1.2466   -1.8088    4.1486 C   0  0  0  0  0  0  0  0  0  0  0  0
    1.0277   -1.4781    5.6670 C   0  0  0  0  0  0  0  0  0  0  0  0
    1.2502   -2.5664    6.7680 C   0  0  0  0  0  0  0  0  0  0  0  0
   -0.2390   -5.2224    6.8028 H   0  0  0  0  0  0  0  0  0  0  0  0
    4.6023    0.1167   -1.6152 H   0  0  0  0  0  0  0  0  0  0  0  0
    4.9946   -1.4876   -2.4587 H   0  0  0  0  0  0  0  0  0  0  0  0
    6.2997   -2.2356   -0.5841 H   0  0  0  0  0  0  0  0  0  0  0  0
    7.0692   -0.6737    1.0496 H   0  0  0  0  0  0  0  0  0  0  0  0
    5.9571    0.5780    0.5442 H   0  0  0  0  0  0  0  0  0  0  0  0
    6.7127   -0.5106    3.1708 H   0  0  0  0  0  0  0  0  0  0  0  0
    5.3063    0.3606    3.6868 H   0  0  0  0  0  0  0  0  0  0  0  0
    6.5945   -2.7037    2.5944 H   0  0  0  0  0  0  0  0  0  0  0  0
    5.4170   -3.8085    3.2422 H   0  0  0  0  0  0  0  0  0  0  0  0
    4.8427   -2.8544    0.9971 H   0  0  0  0  0  0  0  0  0  0  0  0
    3.4015   -3.3806    2.9432 H   0  0  0  0  0  0  0  0  0  0  0  0
    1.3081   -2.9750    1.8980 H   0  0  0  0  0  0  0  0  0  0  0  0
    3.2767   -3.3523   -1.6179 H   0  0  0  0  0  0  0  0  0  0  0  0
    4.4269   -5.4492   -0.9008 H   0  0  0  0  0  0  0  0  0  0  0  0
    3.3608   -6.6153    1.0056 H   0  0  0  0  0  0  0  0  0  0  0  0
    4.4067   -5.4015    1.7645 H   0  0  0  0  0  0  0  0  0  0  0  0
    1.5087   -5.2082    1.1197 H   0  0  0  0  0  0  0  0  0  0  0  0
    1.0238   -7.6221    1.0790 H   0  0  0  0  0  0  0  0  0  0  0  0
   -0.6160   -9.3629    1.7360 H   0  0  0  0  0  0  0  0  0  0  0  0
   -1.5843   -9.4053    3.9899 H   0  0  0  0  0  0  0  0  0  0  0  0
   -0.9412   -7.6926    5.6790 H   0  0  0  0  0  0  0  0  0  0  0  0
    3.9503   -3.0591    6.2780 H   0  0  0  0  0  0  0  0  0  0  0  0
    4.5800   -3.9606    5.0440 H   0  0  0  0  0  0  0  0  0  0  0  0
    3.8204   -1.0913    5.3473 H   0  0  0  0  0  0  0  0  0  0  0  0
    2.0507    0.4795    3.9508 H   0  0  0  0  0  0  0  0  0  0  0  0
    3.4419    0.5386    3.0260 H   0  0  0  0  0  0  0  0  0  0  0  0
    2.3863    0.0807    0.9514 H   0  0  0  0  0  0  0  0  0  0  0  0
    0.9518   -0.5523    1.6741 H   0  0  0  0  0  0  0  0  0  0  0  0
    0.4925    1.7148    0.8979 H   0  0  0  0  0  0  0  0  0  0  0  0
    1.8220    2.3755    1.8578 H   0  0  0  0  0  0  0  0  0  0  0  0
    0.3990    1.6986    2.6495 H   0  0  0  0  0  0  0  0  0  0  0  0
    0.4963   -1.2172    3.6153 H   0  0  0  0  0  0  0  0  0  0  0  0
    0.8331   -2.7845    3.9274 H   0  0  0  0  0  0  0  0  0  0  0  0
    1.5787   -0.5811    5.9362 H   0  0  0  0  0  0  0  0  0  0  0  0
   -0.0126   -1.1694    5.7432 H   0  0  0  0  0  0  0  0  0  0  0  0
    0.3217   -2.5995    7.3582 H   0  0  0  0  0  0  0  0  0  0  0  0
    2.0286   -2.2622    7.4707 H   0  0  0  0  0  0  0  0  0  0  0  0
    4.2460   -0.2927    1.7138 H   0  0  0  0  0  0  0  0  0  0  0  0
  1  2  2  0
  1 38  1  0
  1 39  1  0
  2  3  1  0
  2 40  1  0
  3  4  1  0
  3 41  1  0
  3 42  1  0
  4  8  1  0
  4  5  1  0
  4 75  1  6
  5  6  1  0
  5 43  1  0
  5 44  1  0
  6 29  1  0
  6  7  1  0
  7  8  1  0
  7 45  1  0
  7 46  1  0
  8  9  1  0
  8 47  1  6
  9 30  1  0
  9 10  1  0
  9 48  1  1
 10 15  1  0
 10 11  1  0
 10 49  1  1
 11 12  1  0
 12 13  2  0
 12 50  1  0
 13 14  1  0
 13 51  1  0
 14 15  1  0
 14 52  1  0
 14 53  1  0
 15 16  1  0
 15 54  1  6
 16 27  1  0
 16 17  1  0
 17 22  2  0
 17 18  1  0
 18 19  2  0
 18 55  1  0
 19 20  1  0
 19 56  1  0
 20 21  2  0
 20 57  1  0
 21 22  1  0
 21 58  1  0
 22 23  1  0
 23 27  2  0
 23 24  1  0
 24 37  1  0
 24 25  1  0
 25 36  1  0
 25 26  2  0
 26 27  1  0
 26 28  1  0
 28 29  1  0
 28 59  1  0
 28 60  1  0
 29 30  1  0
 29 61  1  1
 30 31  1  6
 30 34  1  0
 31 32  1  0
 31 62  1  0
 31 63  1  0
 32 33  1  0
 32 64  1  0
 32 65  1  0
 33 66  1  0
 33 67  1  0
 33 68  1  0
 34 35  1  0
 34 69  1  0
 34 70  1  0
 35 36  1  0
 35 71  1  0
 35 72  1  0
 36 73  1  0
 36 74  1  0
M  CHG  1   4   1
M  END
>  <i_m_ct_stereo_status>  (90) 
1

>  <s_m_source_file>  (90) 
/var/tmp/pbs.5076255.sched01/tmpx9mnojvb/44r91_cmns.sdf

>  <i_m_source_file_index>  (90) 
9

>  <i_lp_mmshare_version>  (90) 
48012

>  <i_f3d_flags>  (90) 
0

>  <s_epik_input>  (90) 
W0NIM11bQ0gyXVtDSDJdW0NAQF0xMltDQEBIXTNbQ0BIXTROKFtDSDJdW0NIXT1bQ0gyXSlbQ0gyXU4oW0NIMl00KVtDSF0xW0NIMl1jNWMoW0NIMl1bQ0gyXVtDSDJdMilbbkhdYzZjN2MoW2NIXVtjSF1bY0hdW2NIXTcpbihjNTYpW0NASF04W0NAQEhdM09bQ0hdPVtDSF1bQ0gyXTg=

>  <s_epik_cmdline>  (90) 
J2VwaWtfcHl0aG9uJywgJy1waHQnLCAnMi4wJywgJy1waCcsICc3LjAnLCAnLXRuJywgJzgnLCAnLW1hJywgJzIwMCcsICctaW1hZScsICc8aW5maWxlLm1hZT4nLCAnLW9tYWUnLCAnPG91dGZpbGUubWFlPic=

>  <r_epik_Ionization_Penalty>  (90) 
0.611043

>  <r_epik_Ionization_Penalty_Charging>  (90) 
0.00100994

>  <r_epik_Ionization_Penalty_Neutral>  (90) 
0.610033

>  <r_epik_State_Penalty>  (90) 
0.675731

>  <r_epik_Charging_Adjusted_Penalty>  (90) 
0.676741

>  <i_epik_Tot_Q>  (90) 
1

>  <i_epik_Tot_abs_Q>  (90) 
1

>  <s_epik_Chemistry_Notes>  (90) 
This compound contains an acetal/aminal-like group ( X-CH(R)-Y where X, Y are N, S, or O) that may be acid/base labile, releasing an aldehyde.

>  <s_lp_Force_Field>  (90) 
OPLS3e

>  <r_lp_Energy>  (90) 
144.626

>  <b_lp_Chiralities_Consistent>  (90) 
1

>  <s_lp_Variant>  (90) 
25:0-3

>  <s_i_glide_gridfile>  (90) 
pfpi4k_grid

>  <i_i_glide_lignum>  (90) 
9

>  <i_i_glide_rotatable_bonds>  (90) 
4

>  <r_i_docking_score>  (90) 
-1.76531

>  <r_i_glide_ligand_efficiency>  (90) 
-0.0490364

>  <r_i_glide_ligand_efficiency_sa>  (90) 
-0.161915

>  <r_i_glide_ligand_efficiency_ln>  (90) 
-0.385143

>  <r_i_glide_gscore>  (90) 
-1.76531

>  <r_i_glide_lipo>  (90) 
-0.168959

>  <r_i_glide_hbond>  (90) 
-0.0114624

>  <r_i_glide_metal>  (90) 
-0

>  <r_i_glide_rewards>  (90) 
-0.282445

>  <r_i_glide_evdw>  (90) 
-21.2536

>  <r_i_glide_ecoul>  (90) 
-3.23876

>  <r_i_glide_erotb>  (90) 
0.26036

>  <r_i_glide_esite>  (90) 
-0.0143104

>  <r_i_glide_emodel>  (90) 
-22.1383

>  <r_i_glide_energy>  (90) 
-24.4924

>  <r_i_glide_einternal>  (90) 
8.89896

>  <r_i_glide_intrahb_reward>  (90) 
-0

>  <i_i_glide_confnum>  (90) 
2

>  <i_i_glide_posenum>  (90) 
39

>  <r_i_glide_eff_state_penalty>  (90) 
0

>  <ligand_id>  (90) 
25

>  <original_smiles>  (90) 
C=CCN1CN2CC1C1C3OC=CCC3n3c4ccccc4c4[nH]c5c(c43)CC2C1(CCC)CCC5

>  <smiles>  (90) 
[H]C([H])=C([H])C([H])([H])[N+]1([H])C([H])([H])N2C([H])([H])C1([H])C1([H])C3([H])OC([H])=C([H])C([H])([H])C3([H])n3c4c([H])c([H])c([H])c([H])c4c4c3c3c(n4[H])C([H])([H])C([H])([H])C([H])([H])C1(C([H])([H])C([H])([H])C([H])([H])[H])C2([H])C3([H])[H]

$$$$
25:2:1
     RDKit          3D

 75 82  0  0  1  0  0  0  0  0999 V2000
    4.7394   -0.6569   -1.9479 C   0  0  0  0  0  0  0  0  0  0  0  0
    5.3066   -1.2522   -0.8864 C   0  0  0  0  0  0  0  0  0  0  0  0
    5.8078   -0.5757    0.3909 C   0  0  0  0  0  0  0  0  0  0  0  0
    4.9499   -0.8372    1.5825 N   0  0  2  0  0  0  0  0  0  0  0  0
    5.5771   -0.3714    2.8683 C   0  0  0  0  0  0  0  0  0  0  0  0
    5.3746   -1.4515    3.8354 N   0  0  0  0  0  0  0  0  0  0  0  0
    5.6425   -2.5598    2.9078 C   0  0  0  0  0  0  0  0  0  0  0  0
    4.6284   -2.2647    1.8348 C   0  0  1  0  0  0  0  0  0  0  0  0
    3.2165   -2.5289    2.4643 C   0  0  2  0  0  0  0  0  0  0  0  0
    2.2620   -3.5421    1.8301 C   0  0  1  0  0  0  0  0  0  0  0  0
    2.2652   -3.3785    0.4013 O   0  0  0  0  0  0  0  0  0  0  0  0
    3.0720   -4.2167   -0.3406 C   0  0  0  0  0  0  0  0  0  0  0  0
    3.7808   -5.2497    0.1613 C   0  0  0  0  0  0  0  0  0  0  0  0
    3.7058   -5.6817    1.6107 C   0  0  0  0  0  0  0  0  0  0  0  0
    2.4827   -5.0421    2.2611 C   0  0  1  0  0  0  0  0  0  0  0  0
    2.2054   -5.5143    3.6489 N   0  0  0  0  0  0  0  0  0  0  0  0
    1.4598   -6.7141    3.8592 C   0  0  0  0  0  0  0  0  0  0  0  0
    1.0601   -7.8032    3.0520 C   0  0  0  0  0  0  0  0  0  0  0  0
    0.2142   -8.7877    3.6041 C   0  0  0  0  0  0  0  0  0  0  0  0
   -0.2498   -8.6628    4.9336 C   0  0  0  0  0  0  0  0  0  0  0  0
    0.1321   -7.5717    5.7305 C   0  0  0  0  0  0  0  0  0  0  0  0
    0.9785   -6.5996    5.1919 C   0  0  0  0  0  0  0  0  0  0  0  0
    1.4522   -5.4239    5.7395 C   0  0  0  0  0  0  0  0  0  0  0  0
    1.1202   -4.6980    6.8589 N   0  0  0  0  0  0  0  0  0  0  0  0
    1.9033   -3.5667    6.6643 C   0  0  0  0  0  0  0  0  0  0  0  0
    2.8017   -3.7207    5.5847 C   0  0  0  0  0  0  0  0  0  0  0  0
    2.3184   -4.8549    4.8638 C   0  0  0  0  0  0  0  0  0  0  0  0
    4.0676   -2.8718    5.3456 C   0  0  0  0  0  0  0  0  0  0  0  0
    4.0169   -1.5441    4.4882 C   0  0  2  0  0  0  0  0  0  0  0  0
    2.7531   -1.4697    3.5272 C   0  0  1  0  0  0  0  0  0  0  0  0
    2.4591   -0.0401    2.9488 C   0  0  0  0  0  0  0  0  0  0  0  0
    1.6021   -0.0363    1.6704 C   0  0  0  0  0  0  0  0  0  0  0  0
    0.9448    1.3274    1.4247 C   0  0  0  0  0  0  0  0  0  0  0  0
    1.3709   -1.7368    4.2793 C   0  0  0  0  0  0  0  0  0  0  0  0
    1.2340   -1.2129    5.7521 C   0  0  0  0  0  0  0  0  0  0  0  0
    1.6141   -2.1239    6.9679 C   0  0  0  0  0  0  0  0  0  0  0  0
    0.3341   -4.8358    7.4773 H   0  0  0  0  0  0  0  0  0  0  0  0
    4.5776    0.4099   -2.0177 H   0  0  0  0  0  0  0  0  0  0  0  0
    4.4126   -1.2509   -2.7904 H   0  0  0  0  0  0  0  0  0  0  0  0
    5.4204   -2.3258   -0.9353 H   0  0  0  0  0  0  0  0  0  0  0  0
    6.8274   -0.9243    0.5665 H   0  0  0  0  0  0  0  0  0  0  0  0
    5.8869    0.5022    0.2765 H   0  0  0  0  0  0  0  0  0  0  0  0
    6.6542   -0.2730    2.7286 H   0  0  0  0  0  0  0  0  0  0  0  0
    5.2447    0.5948    3.2481 H   0  0  0  0  0  0  0  0  0  0  0  0
    6.6229   -2.4822    2.4542 H   0  0  0  0  0  0  0  0  0  0  0  0
    5.5956   -3.5655    3.3180 H   0  0  0  0  0  0  0  0  0  0  0  0
    4.8194   -2.9248    1.0026 H   0  0  0  0  0  0  0  0  0  0  0  0
    3.5330   -3.3135    3.1152 H   0  0  0  0  0  0  0  0  0  0  0  0
    1.2704   -3.2616    2.1573 H   0  0  0  0  0  0  0  0  0  0  0  0
    3.1214   -3.9024   -1.3786 H   0  0  0  0  0  0  0  0  0  0  0  0
    4.4363   -5.8145   -0.4844 H   0  0  0  0  0  0  0  0  0  0  0  0
    3.6192   -6.7684    1.6416 H   0  0  0  0  0  0  0  0  0  0  0  0
    4.6085   -5.4003    2.1473 H   0  0  0  0  0  0  0  0  0  0  0  0
    1.6653   -5.5015    1.7076 H   0  0  0  0  0  0  0  0  0  0  0  0
    1.3753   -7.9068    2.0256 H   0  0  0  0  0  0  0  0  0  0  0  0
   -0.0864   -9.6537    3.0287 H   0  0  0  0  0  0  0  0  0  0  0  0
   -0.8918   -9.4119    5.3716 H   0  0  0  0  0  0  0  0  0  0  0  0
   -0.1885   -7.4862    6.7510 H   0  0  0  0  0  0  0  0  0  0  0  0
    4.3078   -2.4999    6.3386 H   0  0  0  0  0  0  0  0  0  0  0  0
    4.9251   -3.5188    5.1938 H   0  0  0  0  0  0  0  0  0  0  0  0
    3.9673   -0.6907    5.1713 H   0  0  0  0  0  0  0  0  0  0  0  0
    1.9574    0.5497    3.7155 H   0  0  0  0  0  0  0  0  0  0  0  0
    3.3122    0.5862    2.7416 H   0  0  0  0  0  0  0  0  0  0  0  0
    2.2228   -0.3018    0.8139 H   0  0  0  0  0  0  0  0  0  0  0  0
    0.8232   -0.7998    1.6856 H   0  0  0  0  0  0  0  0  0  0  0  0
    0.3268    1.3224    0.5284 H   0  0  0  0  0  0  0  0  0  0  0  0
    1.6916    2.1114    1.3025 H   0  0  0  0  0  0  0  0  0  0  0  0
    0.2915    1.6013    2.2519 H   0  0  0  0  0  0  0  0  0  0  0  0
    0.5549   -1.2733    3.7313 H   0  0  0  0  0  0  0  0  0  0  0  0
    1.0252   -2.7557    4.2155 H   0  0  0  0  0  0  0  0  0  0  0  0
    1.7375   -0.2534    5.8628 H   0  0  0  0  0  0  0  0  0  0  0  0
    0.1819   -0.9592    5.8739 H   0  0  0  0  0  0  0  0  0  0  0  0
    0.7395   -2.1367    7.6262 H   0  0  0  0  0  0  0  0  0  0  0  0
    2.4100   -1.6762    7.5656 H   0  0  0  0  0  0  0  0  0  0  0  0
    4.0741   -0.3457    1.4506 H   0  0  0  0  0  0  0  0  0  0  0  0
  1  2  2  0
  1 38  1  0
  1 39  1  0
  2  3  1  0
  2 40  1  0
  3  4  1  0
  3 41  1  0
  3 42  1  0
  4  8  1  0
  4  5  1  0
  4 75  1  6
  5  6  1  0
  5 43  1  0
  5 44  1  0
  6 29  1  0
  6  7  1  0
  7  8  1  0
  7 45  1  0
  7 46  1  0
  8  9  1  0
  8 47  1  6
  9 30  1  0
  9 10  1  0
  9 48  1  1
 10 15  1  0
 10 11  1  0
 10 49  1  1
 11 12  1  0
 12 13  2  0
 12 50  1  0
 13 14  1  0
 13 51  1  0
 14 15  1  0
 14 52  1  0
 14 53  1  0
 15 16  1  0
 15 54  1  6
 16 27  1  0
 16 17  1  0
 17 22  2  0
 17 18  1  0
 18 19  2  0
 18 55  1  0
 19 20  1  0
 19 56  1  0
 20 21  2  0
 20 57  1  0
 21 22  1  0
 21 58  1  0
 22 23  1  0
 23 27  2  0
 23 24  1  0
 24 37  1  0
 24 25  1  0
 25 36  1  0
 25 26  2  0
 26 27  1  0
 26 28  1  0
 28 29  1  0
 28 59  1  0
 28 60  1  0
 29 30  1  0
 29 61  1  1
 30 31  1  6
 30 34  1  0
 31 32  1  0
 31 62  1  0
 31 63  1  0
 32 33  1  0
 32 64  1  0
 32 65  1  0
 33 66  1  0
 33 67  1  0
 33 68  1  0
 34 35  1  0
 34 69  1  0
 34 70  1  0
 35 36  1  0
 35 71  1  0
 35 72  1  0
 36 73  1  0
 36 74  1  0
M  CHG  1   4   1
M  END
>  <i_m_ct_stereo_status>  (91) 
1

>  <s_m_source_file>  (91) 
/var/tmp/pbs.5076255.sched01/tmpx9mnojvb/44r91_cmns.sdf

>  <i_m_source_file_index>  (91) 
9

>  <i_lp_mmshare_version>  (91) 
48012

>  <i_f3d_flags>  (91) 
0

>  <s_epik_input>  (91) 
W0NIM11bQ0gyXVtDSDJdW0NAQF0xMltDQEBIXTNbQ0BIXTROKFtDSDJdW0NIXT1bQ0gyXSlbQ0gyXU4oW0NIMl00KVtDSF0xW0NIMl1jNWMoW0NIMl1bQ0gyXVtDSDJdMilbbkhdYzZjN2MoW2NIXVtjSF1bY0hdW2NIXTcpbihjNTYpW0NASF04W0NAQEhdM09bQ0hdPVtDSF1bQ0gyXTg=

>  <s_epik_cmdline>  (91) 
J2VwaWtfcHl0aG9uJywgJy1waHQnLCAnMi4wJywgJy1waCcsICc3LjAnLCAnLXRuJywgJzgnLCAnLW1hJywgJzIwMCcsICctaW1hZScsICc8aW5maWxlLm1hZT4nLCAnLW9tYWUnLCAnPG91dGZpbGUubWFlPic=

>  <r_epik_Ionization_Penalty>  (91) 
0.611043

>  <r_epik_Ionization_Penalty_Charging>  (91) 
0.00100994

>  <r_epik_Ionization_Penalty_Neutral>  (91) 
0.610033

>  <r_epik_State_Penalty>  (91) 
0.675731

>  <r_epik_Charging_Adjusted_Penalty>  (91) 
0.676741

>  <i_epik_Tot_Q>  (91) 
1

>  <i_epik_Tot_abs_Q>  (91) 
1

>  <s_epik_Chemistry_Notes>  (91) 
This compound contains an acetal/aminal-like group ( X-CH(R)-Y where X, Y are N, S, or O) that may be acid/base labile, releasing an aldehyde.

>  <s_lp_Force_Field>  (91) 
OPLS3e

>  <r_lp_Energy>  (91) 
144.626

>  <b_lp_Chiralities_Consistent>  (91) 
1

>  <s_lp_Variant>  (91) 
25:0-3

>  <s_i_glide_gridfile>  (91) 
pfpi4k_grid

>  <i_i_glide_lignum>  (91) 
9

>  <i_i_glide_rotatable_bonds>  (91) 
4

>  <r_i_docking_score>  (91) 
-1.62433

>  <r_i_glide_ligand_efficiency>  (91) 
-0.0451201

>  <r_i_glide_ligand_efficiency_sa>  (91) 
-0.148983

>  <r_i_glide_ligand_efficiency_ln>  (91) 
-0.354384

>  <r_i_glide_gscore>  (91) 
-1.62433

>  <r_i_glide_lipo>  (91) 
-0.222184

>  <r_i_glide_hbond>  (91) 
-0.00110452

>  <r_i_glide_metal>  (91) 
-0

>  <r_i_glide_rewards>  (91) 
-0.259405

>  <r_i_glide_evdw>  (91) 
-17.8389

>  <r_i_glide_ecoul>  (91) 
-3.39932

>  <r_i_glide_erotb>  (91) 
0.26036

>  <r_i_glide_esite>  (91) 
-0.000149665

>  <r_i_glide_emodel>  (91) 
-22.1

>  <r_i_glide_energy>  (91) 
-21.2382

>  <r_i_glide_einternal>  (91) 
3.20826

>  <r_i_glide_intrahb_reward>  (91) 
-0

>  <i_i_glide_confnum>  (91) 
2

>  <i_i_glide_posenum>  (91) 
2

>  <r_i_glide_eff_state_penalty>  (91) 
0

>  <ligand_id>  (91) 
25

>  <original_smiles>  (91) 
C=CCN1CN2CC1C1C3OC=CCC3n3c4ccccc4c4[nH]c5c(c43)CC2C1(CCC)CCC5

>  <smiles>  (91) 
[H]C([H])=C([H])C([H])([H])[N+]1([H])C([H])([H])N2C([H])([H])C1([H])C1([H])C3([H])OC([H])=C([H])C([H])([H])C3([H])n3c4c([H])c([H])c([H])c([H])c4c4c3c3c(n4[H])C([H])([H])C([H])([H])C([H])([H])C1(C([H])([H])C([H])([H])C([H])([H])[H])C2([H])C3([H])[H]

$$$$
25:2:2
     RDKit          3D

 75 82  0  0  1  0  0  0  0  0999 V2000
    0.7470  -10.3305    5.3001 C   0  0  0  0  0  0  0  0  0  0  0  0
    1.3068   -9.1177    5.4488 C   0  0  0  0  0  0  0  0  0  0  0  0
    2.6452   -8.8341    6.1468 C   0  0  0  0  0  0  0  0  0  0  0  0
    3.7646   -8.4364    5.2291 N   0  0  2  0  0  0  0  0  0  0  0  0
    5.0741   -8.2712    5.8985 C   0  0  0  0  0  0  0  0  0  0  0  0
    5.6523   -7.0334    5.3503 N   0  0  0  0  0  0  0  0  0  0  0  0
    4.4116   -6.2504    5.3330 C   0  0  0  0  0  0  0  0  0  0  0  0
    3.5365   -7.1769    4.4857 C   0  0  1  0  0  0  0  0  0  0  0  0
    4.1425   -7.1059    2.9925 C   0  0  2  0  0  0  0  0  0  0  0  0
    3.2627   -6.6793    1.7546 C   0  0  1  0  0  0  0  0  0  0  0  0
    1.9421   -7.2354    1.7693 O   0  0  0  0  0  0  0  0  0  0  0  0
    0.9536   -6.5511    2.4214 C   0  0  0  0  0  0  0  0  0  0  0  0
    1.0611   -5.2706    2.8179 C   0  0  0  0  0  0  0  0  0  0  0  0
    2.2873   -4.4233    2.5506 C   0  0  0  0  0  0  0  0  0  0  0  0
    3.1718   -5.1359    1.5181 C   0  0  1  0  0  0  0  0  0  0  0  0
    4.3598   -4.3610    1.0728 N   0  0  0  0  0  0  0  0  0  0  0  0
    4.2440   -3.4216    0.0062 C   0  0  0  0  0  0  0  0  0  0  0  0
    3.1554   -2.8264   -0.6570 C   0  0  0  0  0  0  0  0  0  0  0  0
    3.4139   -2.0065   -1.7699 C   0  0  0  0  0  0  0  0  0  0  0  0
    4.7157   -1.8087   -2.2363 C   0  0  0  0  0  0  0  0  0  0  0  0
    5.8155   -2.4372   -1.6065 C   0  0  0  0  0  0  0  0  0  0  0  0
    5.5742   -3.2273   -0.4731 C   0  0  0  0  0  0  0  0  0  0  0  0
    6.4115   -3.9911    0.3316 C   0  0  0  0  0  0  0  0  0  0  0  0
    7.7233   -4.3716    0.2131 N   0  0  0  0  0  0  0  0  0  0  0  0
    7.8315   -5.2493    1.2733 C   0  0  0  0  0  0  0  0  0  0  0  0
    6.7308   -5.1491    2.1519 C   0  0  0  0  0  0  0  0  0  0  0  0
    5.7089   -4.5264    1.3569 C   0  0  0  0  0  0  0  0  0  0  0  0
    6.7323   -5.6648    3.6212 C   0  0  0  0  0  0  0  0  0  0  0  0
    6.3149   -7.1425    3.9933 C   0  0  2  0  0  0  0  0  0  0  0  0
    5.5025   -7.8766    2.8348 C   0  0  1  0  0  0  0  0  0  0  0  0
    5.3824   -9.4470    2.9875 C   0  0  0  0  0  0  0  0  0  0  0  0
    4.1565  -10.1344    2.3021 C   0  0  0  0  0  0  0  0  0  0  0  0
    2.8060   -9.8058    2.9113 C   0  0  0  0  0  0  0  0  0  0  0  0
    6.2167   -7.8009    1.3982 C   0  0  0  0  0  0  0  0  0  0  0  0
    7.7868   -7.8421    1.3583 C   0  0  0  0  0  0  0  0  0  0  0  0
    8.6254   -6.5186    1.3851 C   0  0  0  0  0  0  0  0  0  0  0  0
    8.3053   -4.3017   -0.5768 H   0  0  0  0  0  0  0  0  0  0  0  0
    1.2120  -11.2368    5.6812 H   0  0  0  0  0  0  0  0  0  0  0  0
   -0.1897  -10.4388    4.7707 H   0  0  0  0  0  0  0  0  0  0  0  0
    0.8006   -8.2608    5.0252 H   0  0  0  0  0  0  0  0  0  0  0  0
    2.4744   -8.0409    6.8884 H   0  0  0  0  0  0  0  0  0  0  0  0
    2.9413   -9.7165    6.7118 H   0  0  0  0  0  0  0  0  0  0  0  0
    4.9228   -8.1254    6.9820 H   0  0  0  0  0  0  0  0  0  0  0  0
    5.7567   -9.1272    5.8455 H   0  0  0  0  0  0  0  0  0  0  0  0
    4.0014   -6.1527    6.3409 H   0  0  0  0  0  0  0  0  0  0  0  0
    4.4891   -5.2346    4.9704 H   0  0  0  0  0  0  0  0  0  0  0  0
    2.4980   -6.8387    4.5076 H   0  0  0  0  0  0  0  0  0  0  0  0
    4.4697   -6.1091    3.0503 H   0  0  0  0  0  0  0  0  0  0  0  0
    3.7161   -7.1207    0.8658 H   0  0  0  0  0  0  0  0  0  0  0  0
    0.1037   -7.1765    2.6001 H   0  0  0  0  0  0  0  0  0  0  0  0
    0.2643   -4.8213    3.3853 H   0  0  0  0  0  0  0  0  0  0  0  0
    1.9689   -3.4534    2.1649 H   0  0  0  0  0  0  0  0  0  0  0  0
    2.8443   -4.2574    3.4761 H   0  0  0  0  0  0  0  0  0  0  0  0
    2.5515   -5.1360    0.6152 H   0  0  0  0  0  0  0  0  0  0  0  0
    2.1333   -2.9845   -0.3415 H   0  0  0  0  0  0  0  0  0  0  0  0
    2.6070   -1.5109   -2.2695 H   0  0  0  0  0  0  0  0  0  0  0  0
    4.9096   -1.1683   -3.0751 H   0  0  0  0  0  0  0  0  0  0  0  0
    6.8242   -2.3171   -1.9584 H   0  0  0  0  0  0  0  0  0  0  0  0
    7.7917   -5.6029    3.9182 H   0  0  0  0  0  0  0  0  0  0  0  0
    6.3185   -4.8815    4.2438 H   0  0  0  0  0  0  0  0  0  0  0  0
    7.2339   -7.7067    4.1527 H   0  0  0  0  0  0  0  0  0  0  0  0
    6.3018   -9.8949    2.5815 H   0  0  0  0  0  0  0  0  0  0  0  0
    5.4700   -9.8046    4.0067 H   0  0  0  0  0  0  0  0  0  0  0  0
    4.1892   -9.9296    1.2309 H   0  0  0  0  0  0  0  0  0  0  0  0
    4.3197  -11.2029    2.4176 H   0  0  0  0  0  0  0  0  0  0  0  0
    2.0109  -10.2577    2.3458 H   0  0  0  0  0  0  0  0  0  0  0  0
    2.6147   -8.7794    2.9449 H   0  0  0  0  0  0  0  0  0  0  0  0
    2.8419  -10.1699    3.9190 H   0  0  0  0  0  0  0  0  0  0  0  0
    5.8782   -8.6388    0.7866 H   0  0  0  0  0  0  0  0  0  0  0  0
    5.8522   -7.0050    0.7668 H   0  0  0  0  0  0  0  0  0  0  0  0
    8.1681   -8.5064    2.1285 H   0  0  0  0  0  0  0  0  0  0  0  0
    8.0643   -8.3458    0.4363 H   0  0  0  0  0  0  0  0  0  0  0  0
    9.2897   -6.5270    0.4973 H   0  0  0  0  0  0  0  0  0  0  0  0
    9.2849   -6.4942    2.2666 H   0  0  0  0  0  0  0  0  0  0  0  0
    3.8515   -9.2090    4.5061 H   0  0  0  0  0  0  0  0  0  0  0  0
  1  2  2  0
  1 38  1  0
  1 39  1  0
  2  3  1  0
  2 40  1  0
  3  4  1  0
  3 41  1  0
  3 42  1  0
  4  8  1  0
  4  5  1  0
  4 75  1  6
  5  6  1  0
  5 43  1  0
  5 44  1  0
  6 29  1  0
  6  7  1  0
  7  8  1  0
  7 45  1  0
  7 46  1  0
  8  9  1  0
  8 47  1  6
  9 30  1  0
  9 10  1  0
  9 48  1  1
 10 15  1  0
 10 11  1  0
 10 49  1  6
 11 12  1  0
 12 13  2  0
 12 50  1  0
 13 14  1  0
 13 51  1  0
 14 15  1  0
 14 52  1  0
 14 53  1  0
 15 16  1  0
 15 54  1  6
 16 27  1  0
 16 17  1  0
 17 22  2  0
 17 18  1  0
 18 19  2  0
 18 55  1  0
 19 20  1  0
 19 56  1  0
 20 21  2  0
 20 57  1  0
 21 22  1  0
 21 58  1  0
 22 23  1  0
 23 27  2  0
 23 24  1  0
 24 37  1  0
 24 25  1  0
 25 36  1  0
 25 26  2  0
 26 27  1  0
 26 28  1  0
 28 29  1  0
 28 59  1  0
 28 60  1  0
 29 30  1  0
 29 61  1  1
 30 31  1  1
 30 34  1  0
 31 32  1  0
 31 62  1  0
 31 63  1  0
 32 33  1  0
 32 64  1  0
 32 65  1  0
 33 66  1  0
 33 67  1  0
 33 68  1  0
 34 35  1  0
 34 69  1  0
 34 70  1  0
 35 36  1  0
 35 71  1  0
 35 72  1  0
 36 73  1  0
 36 74  1  0
M  CHG  1   4   1
M  END
>  <i_m_ct_stereo_status>  (92) 
1

>  <s_m_source_file>  (92) 
/var/tmp/pbs.5076255.sched01/tmpx9mnojvb/44r91_cmns.sdf

>  <i_m_source_file_index>  (92) 
9

>  <i_lp_mmshare_version>  (92) 
48012

>  <i_f3d_flags>  (92) 
0

>  <s_epik_input>  (92) 
W0NIM11bQ0gyXVtDSDJdW0NAQF0xMltDQEBIXTNbQ0BIXTROKFtDSDJdW0NIXT1bQ0gyXSlbQ0gyXU4oW0NIMl00KVtDSF0xW0NIMl1jNWMoW0NIMl1bQ0gyXVtDSDJdMilbbkhdYzZjN2MoW2NIXVtjSF1bY0hdW2NIXTcpbihjNTYpW0NASF04W0NAQEhdM09bQ0hdPVtDSF1bQ0gyXTg=

>  <s_epik_cmdline>  (92) 
J2VwaWtfcHl0aG9uJywgJy1waHQnLCAnMi4wJywgJy1waCcsICc3LjAnLCAnLXRuJywgJzgnLCAnLW1hJywgJzIwMCcsICctaW1hZScsICc8aW5maWxlLm1hZT4nLCAnLW9tYWUnLCAnPG91dGZpbGUubWFlPic=

>  <r_epik_Ionization_Penalty>  (92) 
0.611043

>  <r_epik_Ionization_Penalty_Charging>  (92) 
0.00100994

>  <r_epik_Ionization_Penalty_Neutral>  (92) 
0.610033

>  <r_epik_State_Penalty>  (92) 
0.675731

>  <r_epik_Charging_Adjusted_Penalty>  (92) 
0.676741

>  <i_epik_Tot_Q>  (92) 
1

>  <i_epik_Tot_abs_Q>  (92) 
1

>  <s_epik_Chemistry_Notes>  (92) 
This compound contains an acetal/aminal-like group ( X-CH(R)-Y where X, Y are N, S, or O) that may be acid/base labile, releasing an aldehyde.

>  <s_lp_Force_Field>  (92) 
OPLS3e

>  <r_lp_Energy>  (92) 
144.626

>  <b_lp_Chiralities_Consistent>  (92) 
1

>  <s_lp_Variant>  (92) 
25:0-3

>  <s_i_glide_gridfile>  (92) 
pfpi4k_grid

>  <i_i_glide_lignum>  (92) 
9

>  <i_i_glide_rotatable_bonds>  (92) 
4

>  <r_i_docking_score>  (92) 
-1.37056

>  <r_i_glide_ligand_efficiency>  (92) 
-0.038071

>  <r_i_glide_ligand_efficiency_sa>  (92) 
-0.125708

>  <r_i_glide_ligand_efficiency_ln>  (92) 
-0.299018

>  <r_i_glide_gscore>  (92) 
-1.37056

>  <r_i_glide_lipo>  (92) 
-0.578195

>  <r_i_glide_hbond>  (92) 
0

>  <r_i_glide_metal>  (92) 
-0

>  <r_i_glide_rewards>  (92) 
-0.145761

>  <r_i_glide_evdw>  (92) 
-26.5192

>  <r_i_glide_ecoul>  (92) 
-2.51201

>  <r_i_glide_erotb>  (92) 
0.26036

>  <r_i_glide_esite>  (92) 
-0.000502845

>  <r_i_glide_emodel>  (92) 
-26.1643

>  <r_i_glide_energy>  (92) 
-29.0312

>  <r_i_glide_einternal>  (92) 
1.40738

>  <r_i_glide_intrahb_reward>  (92) 
-0

>  <i_i_glide_confnum>  (92) 
2

>  <i_i_glide_posenum>  (92) 
1

>  <r_i_glide_eff_state_penalty>  (92) 
0

>  <ligand_id>  (92) 
25

>  <original_smiles>  (92) 
C=CCN1CN2CC1C1C3OC=CCC3n3c4ccccc4c4[nH]c5c(c43)CC2C1(CCC)CCC5

>  <smiles>  (92) 
[H]C([H])=C([H])C([H])([H])[N+]1([H])C([H])([H])N2C([H])([H])C1([H])C1([H])C3([H])OC([H])=C([H])C([H])([H])C3([H])n3c4c([H])c([H])c([H])c([H])c4c4c3c3c(n4[H])C([H])([H])C([H])([H])C([H])([H])C1(C([H])([H])C([H])([H])C([H])([H])[H])C2([H])C3([H])[H]

$$$$
25:3:0
     RDKit          3D

 75 82  0  0  1  0  0  0  0  0999 V2000
   -1.3570   -9.4701    2.5037 C   0  0  0  0  0  0  0  0  0  0  0  0
   -0.2535  -10.2334    2.5793 C   0  0  0  0  0  0  0  0  0  0  0  0
    0.5032  -10.4824    3.8669 C   0  0  0  0  0  0  0  0  0  0  0  0
    1.9525  -10.1358    3.7508 N   0  0  2  0  0  0  0  0  0  0  0  0
    2.8135  -11.2766    3.3532 C   0  0  0  0  0  0  0  0  0  0  0  0
    3.9606  -11.2376    4.2633 N   0  0  0  0  0  0  0  0  0  0  0  0
    3.2588  -10.9063    5.5045 C   0  0  0  0  0  0  0  0  0  0  0  0
    2.5538   -9.6571    5.0267 C   0  0  1  0  0  0  0  0  0  0  0  0
    3.5815   -8.4799    4.8607 C   0  0  2  0  0  0  0  0  0  0  0  0
    3.1246   -7.4488    3.7079 C   0  0  1  0  0  0  0  0  0  0  0  0
    3.1715   -6.1019    4.2021 O   0  0  0  0  0  0  0  0  0  0  0  0
    2.4435   -5.1881    3.4766 C   0  0  0  0  0  0  0  0  0  0  0  0
    2.0514   -5.4092    2.2102 C   0  0  0  0  0  0  0  0  0  0  0  0
    2.4727   -6.6396    1.4152 C   0  0  0  0  0  0  0  0  0  0  0  0
    3.5406   -7.5015    2.1457 C   0  0  1  0  0  0  0  0  0  0  0  0
    4.9366   -7.0781    1.7066 N   0  0  0  0  0  0  0  0  0  0  0  0
    5.4581   -5.7869    1.3136 C   0  0  0  0  0  0  0  0  0  0  0  0
    4.9231   -4.5264    0.9539 C   0  0  0  0  0  0  0  0  0  0  0  0
    5.7822   -3.4343    0.7010 C   0  0  0  0  0  0  0  0  0  0  0  0
    7.1806   -3.5704    0.8323 C   0  0  0  0  0  0  0  0  0  0  0  0
    7.7375   -4.8011    1.2202 C   0  0  0  0  0  0  0  0  0  0  0  0
    6.8830   -5.9022    1.4286 C   0  0  0  0  0  0  0  0  0  0  0  0
    7.1959   -7.1807    1.8376 C   0  0  0  0  0  0  0  0  0  0  0  0
    8.2863   -7.7845    2.4519 N   0  0  0  0  0  0  0  0  0  0  0  0
    7.7227   -8.9902    2.9017 C   0  0  0  0  0  0  0  0  0  0  0  0
    6.4029   -9.1129    2.3811 C   0  0  0  0  0  0  0  0  0  0  0  0
    6.0350   -7.8793    1.8774 C   0  0  0  0  0  0  0  0  0  0  0  0
    5.3770  -10.1641    2.4926 C   0  0  0  0  0  0  0  0  0  0  0  0
    5.0223  -10.2391    3.9482 C   0  0  1  0  0  0  0  0  0  0  0  0
    5.1045   -8.9062    4.8712 C   0  0  1  0  0  0  0  0  0  0  0  0
    5.8339   -7.4617    4.8006 C   0  0  0  0  0  0  0  0  0  0  0  0
    5.7655   -6.5282    6.0419 C   0  0  0  0  0  0  0  0  0  0  0  0
    6.5178   -5.2050    5.8287 C   0  0  0  0  0  0  0  0  0  0  0  0
    6.0624   -9.5260    5.9693 C   0  0  0  0  0  0  0  0  0  0  0  0
    7.6059   -9.5849    5.5363 C   0  0  0  0  0  0  0  0  0  0  0  0
    8.0928   -9.9244    4.0539 C   0  0  0  0  0  0  0  0  0  0  0  0
    9.2272   -7.4015    2.6031 H   0  0  0  0  0  0  0  0  0  0  0  0
   -1.7777   -8.9732    3.3711 H   0  0  0  0  0  0  0  0  0  0  0  0
   -1.8731   -9.3388    1.5611 H   0  0  0  0  0  0  0  0  0  0  0  0
    0.1016  -10.7164    1.6813 H   0  0  0  0  0  0  0  0  0  0  0  0
    0.0146   -9.8941    4.6403 H   0  0  0  0  0  0  0  0  0  0  0  0
    0.3594  -11.5173    4.1692 H   0  0  0  0  0  0  0  0  0  0  0  0
    2.3073  -12.2194    3.5465 H   0  0  0  0  0  0  0  0  0  0  0  0
    3.0423  -11.3009    2.2945 H   0  0  0  0  0  0  0  0  0  0  0  0
    2.5497  -11.7004    5.7535 H   0  0  0  0  0  0  0  0  0  0  0  0
    3.8563  -10.7465    6.3962 H   0  0  0  0  0  0  0  0  0  0  0  0
    1.7995   -9.3465    5.7457 H   0  0  0  0  0  0  0  0  0  0  0  0
    3.4576   -7.9445    5.7957 H   0  0  0  0  0  0  0  0  0  0  0  0
    2.0458   -7.6058    3.6958 H   0  0  0  0  0  0  0  0  0  0  0  0
    2.1749   -4.3088    4.0507 H   0  0  0  0  0  0  0  0  0  0  0  0
    1.4427   -4.6755    1.7015 H   0  0  0  0  0  0  0  0  0  0  0  0
    1.5689   -7.2176    1.2309 H   0  0  0  0  0  0  0  0  0  0  0  0
    2.8207   -6.3172    0.4341 H   0  0  0  0  0  0  0  0  0  0  0  0
    3.3485   -8.4962    1.7621 H   0  0  0  0  0  0  0  0  0  0  0  0
    3.8687   -4.3530    0.8456 H   0  0  0  0  0  0  0  0  0  0  0  0
    5.3683   -2.4784    0.4023 H   0  0  0  0  0  0  0  0  0  0  0  0
    7.8329   -2.7279    0.6301 H   0  0  0  0  0  0  0  0  0  0  0  0
    8.7990   -4.9158    1.3361 H   0  0  0  0  0  0  0  0  0  0  0  0
    4.5709  -10.0323    1.7812 H   0  0  0  0  0  0  0  0  0  0  0  0
    5.8176  -11.1064    2.1788 H   0  0  0  0  0  0  0  0  0  0  0  0
    5.8384  -10.8877    4.2366 H   0  0  0  0  0  0  0  0  0  0  0  0
    6.8834   -7.4828    4.5784 H   0  0  0  0  0  0  0  0  0  0  0  0
    5.4580   -6.8161    4.0360 H   0  0  0  0  0  0  0  0  0  0  0  0
    4.7323   -6.2883    6.2857 H   0  0  0  0  0  0  0  0  0  0  0  0
    6.1973   -6.9785    6.9340 H   0  0  0  0  0  0  0  0  0  0  0  0
    6.4514   -4.5803    6.7191 H   0  0  0  0  0  0  0  0  0  0  0  0
    6.1082   -4.6348    4.9946 H   0  0  0  0  0  0  0  0  0  0  0  0
    7.5774   -5.3740    5.6316 H   0  0  0  0  0  0  0  0  0  0  0  0
    5.9615   -9.0281    6.9285 H   0  0  0  0  0  0  0  0  0  0  0  0
    5.8276  -10.5529    6.2353 H   0  0  0  0  0  0  0  0  0  0  0  0
    8.0875   -8.6554    5.8447 H   0  0  0  0  0  0  0  0  0  0  0  0
    8.0841  -10.3105    6.1945 H   0  0  0  0  0  0  0  0  0  0  0  0
    7.9421  -10.9726    3.7975 H   0  0  0  0  0  0  0  0  0  0  0  0
    9.1711   -9.8370    4.1170 H   0  0  0  0  0  0  0  0  0  0  0  0
    2.0443   -9.4027    3.0590 H   0  0  0  0  0  0  0  0  0  0  0  0
  1  2  2  0
  1 38  1  0
  1 39  1  0
  2  3  1  0
  2 40  1  0
  3  4  1  0
  3 41  1  0
  3 42  1  0
  4  8  1  0
  4  5  1  0
  4 75  1  6
  5  6  1  0
  5 43  1  0
  5 44  1  0
  6 29  1  0
  6  7  1  0
  7  8  1  0
  7 45  1  0
  7 46  1  0
  8  9  1  0
  8 47  1  1
  9 30  1  0
  9 10  1  0
  9 48  1  1
 10 15  1  0
 10 11  1  0
 10 49  1  6
 11 12  1  0
 12 13  2  0
 12 50  1  0
 13 14  1  0
 13 51  1  0
 14 15  1  0
 14 52  1  0
 14 53  1  0
 15 16  1  0
 15 54  1  6
 16 27  1  0
 16 17  1  0
 17 22  2  0
 17 18  1  0
 18 19  2  0
 18 55  1  0
 19 20  1  0
 19 56  1  0
 20 21  2  0
 20 57  1  0
 21 22  1  0
 21 58  1  0
 22 23  1  0
 23 27  2  0
 23 24  1  0
 24 37  1  0
 24 25  1  0
 25 36  1  0
 25 26  2  0
 26 27  1  0
 26 28  1  0
 28 29  1  0
 28 59  1  0
 28 60  1  0
 29 30  1  0
 29 61  1  1
 30 31  1  6
 30 34  1  0
 31 32  1  0
 31 62  1  0
 31 63  1  0
 32 33  1  0
 32 64  1  0
 32 65  1  0
 33 66  1  0
 33 67  1  0
 33 68  1  0
 34 35  1  0
 34 69  1  0
 34 70  1  0
 35 36  1  0
 35 71  1  0
 35 72  1  0
 36 73  1  0
 36 74  1  0
M  CHG  1   4   1
M  END
>  <i_m_ct_stereo_status>  (93) 
1

>  <s_m_source_file>  (93) 
/var/tmp/pbs.5076255.sched01/tmpx9mnojvb/44r91_cmns.sdf

>  <i_m_source_file_index>  (93) 
10

>  <i_lp_mmshare_version>  (93) 
48012

>  <i_f3d_flags>  (93) 
0

>  <s_epik_input>  (93) 
W0NIM11bQ0gyXVtDSDJdW0NAQF0xMltDQEBIXTNbQ0BIXTROKFtDSDJdW0NIXT1bQ0gyXSlbQ0gyXU4oW0NIMl00KVtDSF0xW0NIMl1jNWMoW0NIMl1bQ0gyXVtDSDJdMilbbkhdYzZjN2MoW2NIXVtjSF1bY0hdW2NIXTcpbihjNTYpW0NASF04W0NAQEhdM09bQ0hdPVtDSF1bQ0gyXTg=

>  <s_epik_cmdline>  (93) 
J2VwaWtfcHl0aG9uJywgJy1waHQnLCAnMi4wJywgJy1waCcsICc3LjAnLCAnLXRuJywgJzgnLCAnLW1hJywgJzIwMCcsICctaW1hZScsICc8aW5maWxlLm1hZT4nLCAnLW9tYWUnLCAnPG91dGZpbGUubWFlPic=

>  <r_epik_Ionization_Penalty>  (93) 
0.611043

>  <r_epik_Ionization_Penalty_Charging>  (93) 
0.00100994

>  <r_epik_Ionization_Penalty_Neutral>  (93) 
0.610033

>  <r_epik_State_Penalty>  (93) 
0.675731

>  <r_epik_Charging_Adjusted_Penalty>  (93) 
0.676741

>  <i_epik_Tot_Q>  (93) 
1

>  <i_epik_Tot_abs_Q>  (93) 
1

>  <s_epik_Chemistry_Notes>  (93) 
This compound contains an acetal/aminal-like group ( X-CH(R)-Y where X, Y are N, S, or O) that may be acid/base labile, releasing an aldehyde.

>  <s_lp_Force_Field>  (93) 
OPLS3e

>  <r_lp_Energy>  (93) 
180.15

>  <b_lp_Chiralities_Consistent>  (93) 
1

>  <s_lp_Variant>  (93) 
25:0-4

>  <s_i_glide_gridfile>  (93) 
pfpi4k_grid

>  <i_i_glide_lignum>  (93) 
10

>  <i_i_glide_rotatable_bonds>  (93) 
4

>  <r_i_docking_score>  (93) 
-3.1602

>  <r_i_glide_ligand_efficiency>  (93) 
-0.0877833

>  <r_i_glide_ligand_efficiency_sa>  (93) 
-0.289854

>  <r_i_glide_ligand_efficiency_ln>  (93) 
-0.68947

>  <r_i_glide_gscore>  (93) 
-3.1602

>  <r_i_glide_lipo>  (93) 
-0.953478

>  <r_i_glide_hbond>  (93) 
-0.0458171

>  <r_i_glide_metal>  (93) 
-0

>  <r_i_glide_rewards>  (93) 
-0.193411

>  <r_i_glide_evdw>  (93) 
-24.1264

>  <r_i_glide_ecoul>  (93) 
-6.35788

>  <r_i_glide_erotb>  (93) 
0.26036

>  <r_i_glide_esite>  (93) 
-0.0678538

>  <r_i_glide_emodel>  (93) 
-36.1096

>  <r_i_glide_energy>  (93) 
-30.4842

>  <r_i_glide_einternal>  (93) 
1.97741

>  <r_i_glide_intrahb_reward>  (93) 
-0

>  <i_i_glide_confnum>  (93) 
2

>  <i_i_glide_posenum>  (93) 
1

>  <r_i_glide_eff_state_penalty>  (93) 
0

>  <ligand_id>  (93) 
25

>  <original_smiles>  (93) 
C=CCN1CN2CC1C1C3OC=CCC3n3c4ccccc4c4[nH]c5c(c43)CC2C1(CCC)CCC5

>  <smiles>  (93) 
[H]C([H])=C([H])C([H])([H])[N+]1([H])C([H])([H])N2C([H])([H])C1([H])C1([H])C3([H])OC([H])=C([H])C([H])([H])C3([H])n3c4c([H])c([H])c([H])c([H])c4c4c3c3c(n4[H])C([H])([H])C([H])([H])C([H])([H])C1(C([H])([H])C([H])([H])C([H])([H])[H])C2([H])C3([H])[H]

$$$$
25:3:1
     RDKit          3D

 75 82  0  0  1  0  0  0  0  0999 V2000
   -0.8759   -9.8423    2.8871 C   0  0  0  0  0  0  0  0  0  0  0  0
    0.2183  -10.6097    2.8841 C   0  0  0  0  0  0  0  0  0  0  0  0
    1.2917  -10.5906    3.9533 C   0  0  0  0  0  0  0  0  0  0  0  0
    2.4576   -9.7385    3.5834 N   0  0  2  0  0  0  0  0  0  0  0  0
    3.3155  -10.3075    2.5206 C   0  0  0  0  0  0  0  0  0  0  0  0
    4.6977  -10.1375    2.9955 N   0  0  0  0  0  0  0  0  0  0  0  0
    4.4900  -10.4953    4.4021 C   0  0  0  0  0  0  0  0  0  0  0  0
    3.3868   -9.5059    4.7189 C   0  0  1  0  0  0  0  0  0  0  0  0
    3.9779   -8.0446    4.7959 C   0  0  2  0  0  0  0  0  0  0  0  0
    2.8767   -6.9425    4.3820 C   0  0  1  0  0  0  0  0  0  0  0  0
    2.8219   -5.8997    5.3667 O   0  0  0  0  0  0  0  0  0  0  0  0
    1.6757   -5.1388    5.3428 C   0  0  0  0  0  0  0  0  0  0  0  0
    0.8637   -5.0730    4.2726 C   0  0  0  0  0  0  0  0  0  0  0  0
    1.1963   -5.7484    2.9473 C   0  0  0  0  0  0  0  0  0  0  0  0
    2.6361   -6.3441    2.8990 C   0  0  1  0  0  0  0  0  0  0  0  0
    3.6158   -5.3252    2.3145 N   0  0  0  0  0  0  0  0  0  0  0  0
    3.6224   -3.8783    2.3848 C   0  0  0  0  0  0  0  0  0  0  0  0
    2.7180   -2.8597    2.7647 C   0  0  0  0  0  0  0  0  0  0  0  0
    3.1322   -1.5094    2.7724 C   0  0  0  0  0  0  0  0  0  0  0  0
    4.4555   -1.1584    2.4363 C   0  0  0  0  0  0  0  0  0  0  0  0
    5.3817   -2.1522    2.0790 C   0  0  0  0  0  0  0  0  0  0  0  0
    4.9640   -3.4944    2.0200 C   0  0  0  0  0  0  0  0  0  0  0  0
    5.6969   -4.6309    1.7074 C   0  0  0  0  0  0  0  0  0  0  0  0
    7.0495   -4.9512    1.5988 N   0  0  0  0  0  0  0  0  0  0  0  0
    6.9861   -6.3581    1.6501 C   0  0  0  0  0  0  0  0  0  0  0  0
    5.6304   -6.7794    1.5565 C   0  0  0  0  0  0  0  0  0  0  0  0
    4.8318   -5.6717    1.7944 C   0  0  0  0  0  0  0  0  0  0  0  0
    4.9884   -8.1130    1.5305 C   0  0  0  0  0  0  0  0  0  0  0  0
    5.2802   -8.7681    2.8486 C   0  0  1  0  0  0  0  0  0  0  0  0
    5.4272   -7.8663    4.1842 C   0  0  1  0  0  0  0  0  0  0  0  0
    5.7307   -6.3163    4.5327 C   0  0  0  0  0  0  0  0  0  0  0  0
    5.9424   -5.9189    6.0238 C   0  0  0  0  0  0  0  0  0  0  0  0
    6.2459   -4.4241    6.1986 C   0  0  0  0  0  0  0  0  0  0  0  0
    6.8585   -8.4089    4.5869 C   0  0  0  0  0  0  0  0  0  0  0  0
    8.0566   -7.7576    3.7461 C   0  0  0  0  0  0  0  0  0  0  0  0
    7.9782   -7.4056    2.1846 C   0  0  0  0  0  0  0  0  0  0  0  0
    7.8333   -4.3381    1.7719 H   0  0  0  0  0  0  0  0  0  0  0  0
   -1.0631   -9.1278    3.6729 H   0  0  0  0  0  0  0  0  0  0  0  0
   -1.6062   -9.9350    2.0990 H   0  0  0  0  0  0  0  0  0  0  0  0
    0.3562  -11.3100    2.0726 H   0  0  0  0  0  0  0  0  0  0  0  0
    0.8369  -10.2194    4.8703 H   0  0  0  0  0  0  0  0  0  0  0  0
    1.6043  -11.6169    4.1615 H   0  0  0  0  0  0  0  0  0  0  0  0
    3.1315  -11.3823    2.4455 H   0  0  0  0  0  0  0  0  0  0  0  0
    3.0953   -9.9110    1.5270 H   0  0  0  0  0  0  0  0  0  0  0  0
    4.1345  -11.5285    4.4853 H   0  0  0  0  0  0  0  0  0  0  0  0
    5.3436  -10.4133    5.0637 H   0  0  0  0  0  0  0  0  0  0  0  0
    2.9169   -9.7450    5.6750 H   0  0  0  0  0  0  0  0  0  0  0  0
    4.1250   -7.9261    5.8634 H   0  0  0  0  0  0  0  0  0  0  0  0
    1.9486   -7.4726    4.6071 H   0  0  0  0  0  0  0  0  0  0  0  0
    1.4762   -4.6521    6.2874 H   0  0  0  0  0  0  0  0  0  0  0  0
   -0.0517   -4.4974    4.3232 H   0  0  0  0  0  0  0  0  0  0  0  0
    0.4472   -6.5251    2.7970 H   0  0  0  0  0  0  0  0  0  0  0  0
    1.0532   -5.0359    2.1402 H   0  0  0  0  0  0  0  0  0  0  0  0
    2.5237   -7.1664    2.1985 H   0  0  0  0  0  0  0  0  0  0  0  0
    1.6978   -3.0538    3.0403 H   0  0  0  0  0  0  0  0  0  0  0  0
    2.4367   -0.7289    3.0325 H   0  0  0  0  0  0  0  0  0  0  0  0
    4.7613   -0.1236    2.4296 H   0  0  0  0  0  0  0  0  0  0  0  0
    6.3906   -1.9037    1.8161 H   0  0  0  0  0  0  0  0  0  0  0  0
    3.9625   -8.0663    1.2128 H   0  0  0  0  0  0  0  0  0  0  0  0
    5.4604   -8.6862    0.7366 H   0  0  0  0  0  0  0  0  0  0  0  0
    6.2647   -9.1361    2.5846 H   0  0  0  0  0  0  0  0  0  0  0  0
    6.5733   -5.8882    4.0188 H   0  0  0  0  0  0  0  0  0  0  0  0
    4.9438   -5.6463    4.2607 H   0  0  0  0  0  0  0  0  0  0  0  0
    5.0545   -6.1430    6.6129 H   0  0  0  0  0  0  0  0  0  0  0  0
    6.7634   -6.4540    6.4957 H   0  0  0  0  0  0  0  0  0  0  0  0
    6.3901   -4.1815    7.2509 H   0  0  0  0  0  0  0  0  0  0  0  0
    5.4376   -3.7959    5.8236 H   0  0  0  0  0  0  0  0  0  0  0  0
    7.1606   -4.1446    5.6803 H   0  0  0  0  0  0  0  0  0  0  0  0
    7.0489   -8.3134    5.6519 H   0  0  0  0  0  0  0  0  0  0  0  0
    6.9874   -9.4811    4.4461 H   0  0  0  0  0  0  0  0  0  0  0  0
    8.4132   -6.8747    4.2777 H   0  0  0  0  0  0  0  0  0  0  0  0
    8.9054   -8.4270    3.8593 H   0  0  0  0  0  0  0  0  0  0  0  0
    7.9850   -8.2961    1.5569 H   0  0  0  0  0  0  0  0  0  0  0  0
    8.9538   -6.9522    1.9944 H   0  0  0  0  0  0  0  0  0  0  0  0
    2.0938   -8.8448    3.2730 H   0  0  0  0  0  0  0  0  0  0  0  0
  1  2  2  0
  1 38  1  0
  1 39  1  0
  2  3  1  0
  2 40  1  0
  3  4  1  0
  3 41  1  0
  3 42  1  0
  4  8  1  0
  4  5  1  0
  4 75  1  6
  5  6  1  0
  5 43  1  0
  5 44  1  0
  6 29  1  0
  6  7  1  0
  7  8  1  0
  7 45  1  0
  7 46  1  0
  8  9  1  0
  8 47  1  1
  9 30  1  0
  9 10  1  0
  9 48  1  1
 10 15  1  0
 10 11  1  0
 10 49  1  1
 11 12  1  0
 12 13  2  0
 12 50  1  0
 13 14  1  0
 13 51  1  0
 14 15  1  0
 14 52  1  0
 14 53  1  0
 15 16  1  0
 15 54  1  6
 16 27  1  0
 16 17  1  0
 17 22  2  0
 17 18  1  0
 18 19  2  0
 18 55  1  0
 19 20  1  0
 19 56  1  0
 20 21  2  0
 20 57  1  0
 21 22  1  0
 21 58  1  0
 22 23  1  0
 23 27  2  0
 23 24  1  0
 24 37  1  0
 24 25  1  0
 25 36  1  0
 25 26  2  0
 26 27  1  0
 26 28  1  0
 28 29  1  0
 28 59  1  0
 28 60  1  0
 29 30  1  0
 29 61  1  6
 30 31  1  6
 30 34  1  0
 31 32  1  0
 31 62  1  0
 31 63  1  0
 32 33  1  0
 32 64  1  0
 32 65  1  0
 33 66  1  0
 33 67  1  0
 33 68  1  0
 34 35  1  0
 34 69  1  0
 34 70  1  0
 35 36  1  0
 35 71  1  0
 35 72  1  0
 36 73  1  0
 36 74  1  0
M  CHG  1   4   1
M  END
>  <i_m_ct_stereo_status>  (94) 
1

>  <s_m_source_file>  (94) 
/var/tmp/pbs.5076255.sched01/tmpx9mnojvb/44r91_cmns.sdf

>  <i_m_source_file_index>  (94) 
10

>  <i_lp_mmshare_version>  (94) 
48012

>  <i_f3d_flags>  (94) 
0

>  <s_epik_input>  (94) 
W0NIM11bQ0gyXVtDSDJdW0NAQF0xMltDQEBIXTNbQ0BIXTROKFtDSDJdW0NIXT1bQ0gyXSlbQ0gyXU4oW0NIMl00KVtDSF0xW0NIMl1jNWMoW0NIMl1bQ0gyXVtDSDJdMilbbkhdYzZjN2MoW2NIXVtjSF1bY0hdW2NIXTcpbihjNTYpW0NASF04W0NAQEhdM09bQ0hdPVtDSF1bQ0gyXTg=

>  <s_epik_cmdline>  (94) 
J2VwaWtfcHl0aG9uJywgJy1waHQnLCAnMi4wJywgJy1waCcsICc3LjAnLCAnLXRuJywgJzgnLCAnLW1hJywgJzIwMCcsICctaW1hZScsICc8aW5maWxlLm1hZT4nLCAnLW9tYWUnLCAnPG91dGZpbGUubWFlPic=

>  <r_epik_Ionization_Penalty>  (94) 
0.611043

>  <r_epik_Ionization_Penalty_Charging>  (94) 
0.00100994

>  <r_epik_Ionization_Penalty_Neutral>  (94) 
0.610033

>  <r_epik_State_Penalty>  (94) 
0.675731

>  <r_epik_Charging_Adjusted_Penalty>  (94) 
0.676741

>  <i_epik_Tot_Q>  (94) 
1

>  <i_epik_Tot_abs_Q>  (94) 
1

>  <s_epik_Chemistry_Notes>  (94) 
This compound contains an acetal/aminal-like group ( X-CH(R)-Y where X, Y are N, S, or O) that may be acid/base labile, releasing an aldehyde.

>  <s_lp_Force_Field>  (94) 
OPLS3e

>  <r_lp_Energy>  (94) 
180.15

>  <b_lp_Chiralities_Consistent>  (94) 
1

>  <s_lp_Variant>  (94) 
25:0-4

>  <s_i_glide_gridfile>  (94) 
pfpi4k_grid

>  <i_i_glide_lignum>  (94) 
10

>  <i_i_glide_rotatable_bonds>  (94) 
4

>  <r_i_docking_score>  (94) 
-2.16178

>  <r_i_glide_ligand_efficiency>  (94) 
-0.0600494

>  <r_i_glide_ligand_efficiency_sa>  (94) 
-0.198279

>  <r_i_glide_ligand_efficiency_ln>  (94) 
-0.471641

>  <r_i_glide_gscore>  (94) 
-2.16178

>  <r_i_glide_lipo>  (94) 
-0.538434

>  <r_i_glide_hbond>  (94) 
0

>  <r_i_glide_metal>  (94) 
-0

>  <r_i_glide_rewards>  (94) 
-0.112599

>  <r_i_glide_evdw>  (94) 
-24.3962

>  <r_i_glide_ecoul>  (94) 
-3.22926

>  <r_i_glide_erotb>  (94) 
0.26036

>  <r_i_glide_esite>  (94) 
-0.0669041

>  <r_i_glide_emodel>  (94) 
-31.6446

>  <r_i_glide_energy>  (94) 
-27.6255

>  <r_i_glide_einternal>  (94) 
1.21892

>  <r_i_glide_intrahb_reward>  (94) 
-0

>  <i_i_glide_confnum>  (94) 
2

>  <i_i_glide_posenum>  (94) 
26

>  <r_i_glide_eff_state_penalty>  (94) 
0

>  <ligand_id>  (94) 
25

>  <original_smiles>  (94) 
C=CCN1CN2CC1C1C3OC=CCC3n3c4ccccc4c4[nH]c5c(c43)CC2C1(CCC)CCC5

>  <smiles>  (94) 
[H]C([H])=C([H])C([H])([H])[N+]1([H])C([H])([H])N2C([H])([H])C1([H])C1([H])C3([H])OC([H])=C([H])C([H])([H])C3([H])n3c4c([H])c([H])c([H])c([H])c4c4c3c3c(n4[H])C([H])([H])C([H])([H])C([H])([H])C1(C([H])([H])C([H])([H])C([H])([H])[H])C2([H])C3([H])[H]

$$$$
25:3:2
     RDKit          3D

 75 82  0  0  1  0  0  0  0  0999 V2000
    0.7764  -11.7677    4.5678 C   0  0  0  0  0  0  0  0  0  0  0  0
    1.9570  -11.8108    3.9336 C   0  0  0  0  0  0  0  0  0  0  0  0
    3.2727  -11.4096    4.5758 C   0  0  0  0  0  0  0  0  0  0  0  0
    3.8920  -10.2178    3.9234 N   0  0  2  0  0  0  0  0  0  0  0  0
    4.5585  -10.5073    2.6293 C   0  0  0  0  0  0  0  0  0  0  0  0
    5.8673   -9.8309    2.6935 N   0  0  0  0  0  0  0  0  0  0  0  0
    6.2090  -10.1478    4.0823 C   0  0  0  0  0  0  0  0  0  0  0  0
    4.9613   -9.5974    4.7469 C   0  0  1  0  0  0  0  0  0  0  0  0
    4.9823   -8.0225    4.7132 C   0  0  2  0  0  0  0  0  0  0  0  0
    3.4905   -7.4098    4.6832 C   0  0  1  0  0  0  0  0  0  0  0  0
    3.3521   -6.3909    5.6845 O   0  0  0  0  0  0  0  0  0  0  0  0
    2.0521   -6.0946    6.0260 C   0  0  0  0  0  0  0  0  0  0  0  0
    1.0020   -6.3925    5.2427 C   0  0  0  0  0  0  0  0  0  0  0  0
    1.1570   -6.9875    3.8478 C   0  0  0  0  0  0  0  0  0  0  0  0
    2.6391   -7.0312    3.3589 C   0  0  1  0  0  0  0  0  0  0  0  0
    2.9753   -5.7757    2.5684 N   0  0  0  0  0  0  0  0  0  0  0  0
    2.4925   -4.4143    2.6942 C   0  0  0  0  0  0  0  0  0  0  0  0
    1.4313   -3.7661    3.3738 C   0  0  0  0  0  0  0  0  0  0  0  0
    1.3194   -2.3622    3.3188 C   0  0  0  0  0  0  0  0  0  0  0  0
    2.2670   -1.5853    2.6245 C   0  0  0  0  0  0  0  0  0  0  0  0
    3.3414   -2.2025    1.9697 C   0  0  0  0  0  0  0  0  0  0  0  0
    3.4387   -3.6050    1.9728 C   0  0  0  0  0  0  0  0  0  0  0  0
    4.4075   -4.4286    1.4194 C   0  0  0  0  0  0  0  0  0  0  0  0
    5.6985   -4.2563    0.9108 N   0  0  0  0  0  0  0  0  0  0  0  0
    6.1638   -5.5784    0.9187 C   0  0  0  0  0  0  0  0  0  0  0  0
    5.0732   -6.4682    1.1932 C   0  0  0  0  0  0  0  0  0  0  0  0
    4.0451   -5.6896    1.6975 C   0  0  0  0  0  0  0  0  0  0  0  0
    4.9806   -7.9321    1.3058 C   0  0  0  0  0  0  0  0  0  0  0  0
    5.8544   -8.3559    2.4488 C   0  0  1  0  0  0  0  0  0  0  0  0
    6.0372   -7.3746    3.7230 C   0  0  1  0  0  0  0  0  0  0  0  0
    5.8420   -5.8024    4.0370 C   0  0  0  0  0  0  0  0  0  0  0  0
    6.3022   -5.2605    5.4229 C   0  0  0  0  0  0  0  0  0  0  0  0
    5.8190   -3.8251    5.6834 C   0  0  0  0  0  0  0  0  0  0  0  0
    7.6178   -7.3401    3.6790 C   0  0  0  0  0  0  0  0  0  0  0  0
    8.2113   -6.3645    2.5562 C   0  0  0  0  0  0  0  0  0  0  0  0
    7.5779   -6.1763    1.0980 C   0  0  0  0  0  0  0  0  0  0  0  0
    6.2124   -3.3870    0.8749 H   0  0  0  0  0  0  0  0  0  0  0  0
    0.6843  -11.4222    5.5907 H   0  0  0  0  0  0  0  0  0  0  0  0
   -0.1209  -12.0856    4.0656 H   0  0  0  0  0  0  0  0  0  0  0  0
    1.9985  -12.1599    2.9101 H   0  0  0  0  0  0  0  0  0  0  0  0
    3.0789  -11.2026    5.6325 H   0  0  0  0  0  0  0  0  0  0  0  0
    3.9512  -12.2645    4.5515 H   0  0  0  0  0  0  0  0  0  0  0  0
    4.7544  -11.5812    2.5500 H   0  0  0  0  0  0  0  0  0  0  0  0
    3.9365  -10.2655    1.7647 H   0  0  0  0  0  0  0  0  0  0  0  0
    6.2905  -11.2319    4.2225 H   0  0  0  0  0  0  0  0  0  0  0  0
    7.1273   -9.7213    4.4728 H   0  0  0  0  0  0  0  0  0  0  0  0
    4.9082   -9.9199    5.7893 H   0  0  0  0  0  0  0  0  0  0  0  0
    5.3715   -7.8075    5.7022 H   0  0  0  0  0  0  0  0  0  0  0  0
    2.9222   -8.2198    5.1455 H   0  0  0  0  0  0  0  0  0  0  0  0
    1.9708   -5.6555    7.0104 H   0  0  0  0  0  0  0  0  0  0  0  0
   -0.0068   -6.1875    5.5793 H   0  0  0  0  0  0  0  0  0  0  0  0
    0.7318   -7.9908    3.8934 H   0  0  0  0  0  0  0  0  0  0  0  0
    0.5305   -6.4311    3.1529 H   0  0  0  0  0  0  0  0  0  0  0  0
    2.6340   -7.8891    2.6901 H   0  0  0  0  0  0  0  0  0  0  0  0
    0.6738   -4.2935    3.9208 H   0  0  0  0  0  0  0  0  0  0  0  0
    0.4936   -1.8647    3.7962 H   0  0  0  0  0  0  0  0  0  0  0  0
    2.1642   -0.5134    2.5642 H   0  0  0  0  0  0  0  0  0  0  0  0
    4.0731   -1.6315    1.4338 H   0  0  0  0  0  0  0  0  0  0  0  0
    3.9589   -8.2732    1.3008 H   0  0  0  0  0  0  0  0  0  0  0  0
    5.3736   -8.3670    0.3932 H   0  0  0  0  0  0  0  0  0  0  0  0
    6.7867   -8.3672    1.8973 H   0  0  0  0  0  0  0  0  0  0  0  0
    6.2920   -5.1284    3.3274 H   0  0  0  0  0  0  0  0  0  0  0  0
    4.8221   -5.4901    4.0217 H   0  0  0  0  0  0  0  0  0  0  0  0
    5.9180   -5.8663    6.2409 H   0  0  0  0  0  0  0  0  0  0  0  0
    7.3881   -5.2703    5.5185 H   0  0  0  0  0  0  0  0  0  0  0  0
    6.1484   -3.4787    6.6625 H   0  0  0  0  0  0  0  0  0  0  0  0
    4.7303   -3.7560    5.6663 H   0  0  0  0  0  0  0  0  0  0  0  0
    6.2046   -3.1280    4.9419 H   0  0  0  0  0  0  0  0  0  0  0  0
    8.0406   -7.0895    4.6485 H   0  0  0  0  0  0  0  0  0  0  0  0
    8.0852   -8.3014    3.4665 H   0  0  0  0  0  0  0  0  0  0  0  0
    8.3606   -5.3814    2.9943 H   0  0  0  0  0  0  0  0  0  0  0  0
    9.2413   -6.6675    2.4012 H   0  0  0  0  0  0  0  0  0  0  0  0
    7.7323   -7.0624    0.4822 H   0  0  0  0  0  0  0  0  0  0  0  0
    8.2281   -5.4258    0.6352 H   0  0  0  0  0  0  0  0  0  0  0  0
    3.1597   -9.5340    3.7782 H   0  0  0  0  0  0  0  0  0  0  0  0
  1  2  2  0
  1 38  1  0
  1 39  1  0
  2  3  1  0
  2 40  1  0
  3  4  1  0
  3 41  1  0
  3 42  1  0
  4  8  1  0
  4  5  1  0
  4 75  1  6
  5  6  1  0
  5 43  1  0
  5 44  1  0
  6 29  1  0
  6  7  1  0
  7  8  1  0
  7 45  1  0
  7 46  1  0
  8  9  1  0
  8 47  1  1
  9 30  1  0
  9 10  1  0
  9 48  1  1
 10 15  1  0
 10 11  1  0
 10 49  1  1
 11 12  1  0
 12 13  2  0
 12 50  1  0
 13 14  1  0
 13 51  1  0
 14 15  1  0
 14 52  1  0
 14 53  1  0
 15 16  1  0
 15 54  1  6
 16 27  1  0
 16 17  1  0
 17 22  2  0
 17 18  1  0
 18 19  2  0
 18 55  1  0
 19 20  1  0
 19 56  1  0
 20 21  2  0
 20 57  1  0
 21 22  1  0
 21 58  1  0
 22 23  1  0
 23 27  2  0
 23 24  1  0
 24 37  1  0
 24 25  1  0
 25 36  1  0
 25 26  2  0
 26 27  1  0
 26 28  1  0
 28 29  1  0
 28 59  1  0
 28 60  1  0
 29 30  1  0
 29 61  1  6
 30 31  1  6
 30 34  1  0
 31 32  1  0
 31 62  1  0
 31 63  1  0
 32 33  1  0
 32 64  1  0
 32 65  1  0
 33 66  1  0
 33 67  1  0
 33 68  1  0
 34 35  1  0
 34 69  1  0
 34 70  1  0
 35 36  1  0
 35 71  1  0
 35 72  1  0
 36 73  1  0
 36 74  1  0
M  CHG  1   4   1
M  END
>  <i_m_ct_stereo_status>  (95) 
1

>  <s_m_source_file>  (95) 
/var/tmp/pbs.5076255.sched01/tmpx9mnojvb/44r91_cmns.sdf

>  <i_m_source_file_index>  (95) 
10

>  <i_lp_mmshare_version>  (95) 
48012

>  <i_f3d_flags>  (95) 
0

>  <s_epik_input>  (95) 
W0NIM11bQ0gyXVtDSDJdW0NAQF0xMltDQEBIXTNbQ0BIXTROKFtDSDJdW0NIXT1bQ0gyXSlbQ0gyXU4oW0NIMl00KVtDSF0xW0NIMl1jNWMoW0NIMl1bQ0gyXVtDSDJdMilbbkhdYzZjN2MoW2NIXVtjSF1bY0hdW2NIXTcpbihjNTYpW0NASF04W0NAQEhdM09bQ0hdPVtDSF1bQ0gyXTg=

>  <s_epik_cmdline>  (95) 
J2VwaWtfcHl0aG9uJywgJy1waHQnLCAnMi4wJywgJy1waCcsICc3LjAnLCAnLXRuJywgJzgnLCAnLW1hJywgJzIwMCcsICctaW1hZScsICc8aW5maWxlLm1hZT4nLCAnLW9tYWUnLCAnPG91dGZpbGUubWFlPic=

>  <r_epik_Ionization_Penalty>  (95) 
0.611043

>  <r_epik_Ionization_Penalty_Charging>  (95) 
0.00100994

>  <r_epik_Ionization_Penalty_Neutral>  (95) 
0.610033

>  <r_epik_State_Penalty>  (95) 
0.675731

>  <r_epik_Charging_Adjusted_Penalty>  (95) 
0.676741

>  <i_epik_Tot_Q>  (95) 
1

>  <i_epik_Tot_abs_Q>  (95) 
1

>  <s_epik_Chemistry_Notes>  (95) 
This compound contains an acetal/aminal-like group ( X-CH(R)-Y where X, Y are N, S, or O) that may be acid/base labile, releasing an aldehyde.

>  <s_lp_Force_Field>  (95) 
OPLS3e

>  <r_lp_Energy>  (95) 
180.15

>  <b_lp_Chiralities_Consistent>  (95) 
1

>  <s_lp_Variant>  (95) 
25:0-4

>  <s_i_glide_gridfile>  (95) 
pfpi4k_grid

>  <i_i_glide_lignum>  (95) 
10

>  <i_i_glide_rotatable_bonds>  (95) 
4

>  <r_i_docking_score>  (95) 
-1.90604

>  <r_i_glide_ligand_efficiency>  (95) 
-0.0529455

>  <r_i_glide_ligand_efficiency_sa>  (95) 
-0.174822

>  <r_i_glide_ligand_efficiency_ln>  (95) 
-0.415846

>  <r_i_glide_gscore>  (95) 
-1.90604

>  <r_i_glide_lipo>  (95) 
-0.403342

>  <r_i_glide_hbond>  (95) 
0

>  <r_i_glide_metal>  (95) 
-0

>  <r_i_glide_rewards>  (95) 
-0.111358

>  <r_i_glide_evdw>  (95) 
-22.8844

>  <r_i_glide_ecoul>  (95) 
-2.78085

>  <r_i_glide_erotb>  (95) 
0.26036

>  <r_i_glide_esite>  (95) 
-0.0903531

>  <r_i_glide_emodel>  (95) 
-29.3543

>  <r_i_glide_energy>  (95) 
-25.6652

>  <r_i_glide_einternal>  (95) 
0.824417

>  <r_i_glide_intrahb_reward>  (95) 
-0

>  <i_i_glide_confnum>  (95) 
2

>  <i_i_glide_posenum>  (95) 
33

>  <r_i_glide_eff_state_penalty>  (95) 
0

>  <ligand_id>  (95) 
25

>  <original_smiles>  (95) 
C=CCN1CN2CC1C1C3OC=CCC3n3c4ccccc4c4[nH]c5c(c43)CC2C1(CCC)CCC5

>  <smiles>  (95) 
[H]C([H])=C([H])C([H])([H])[N+]1([H])C([H])([H])N2C([H])([H])C1([H])C1([H])C3([H])OC([H])=C([H])C([H])([H])C3([H])n3c4c([H])c([H])c([H])c([H])c4c4c3c3c(n4[H])C([H])([H])C([H])([H])C([H])([H])C1(C([H])([H])C([H])([H])C([H])([H])[H])C2([H])C3([H])[H]

$$$$
25:4:0
     RDKit          3D

 75 82  0  0  1  0  0  0  0  0999 V2000
    2.4219   -2.6577   -2.7846 C   0  0  0  0  0  0  0  0  0  0  0  0
    3.0905   -2.7604   -1.6254 C   0  0  0  0  0  0  0  0  0  0  0  0
    3.1104   -4.0099   -0.7529 C   0  0  0  0  0  0  0  0  0  0  0  0
    3.0696   -3.6981    0.6704 N   0  0  0  0  0  0  0  0  0  0  0  0
    4.2648   -2.9401    1.1061 C   0  0  0  0  0  0  0  0  0  0  0  0
    4.6315   -3.5577    2.4071 N   0  0  2  0  0  0  0  0  0  0  0  0
    4.4381   -4.9567    2.0049 C   0  0  0  0  0  0  0  0  0  0  0  0
    2.9738   -4.8774    1.5555 C   0  0  1  0  0  0  0  0  0  0  0  0
    2.1028   -4.6226    2.8545 C   0  0  2  0  0  0  0  0  0  0  0  0
    0.9843   -5.6131    3.2434 C   0  0  1  0  0  0  0  0  0  0  0  0
    0.2383   -5.9768    2.0690 O   0  0  0  0  0  0  0  0  0  0  0  0
    0.5892   -7.1354    1.3997 C   0  0  0  0  0  0  0  0  0  0  0  0
    1.4986   -8.0231    1.8452 C   0  0  0  0  0  0  0  0  0  0  0  0
    2.1934   -7.9014    3.1820 C   0  0  0  0  0  0  0  0  0  0  0  0
    1.4867   -6.8696    4.0480 C   0  0  1  0  0  0  0  0  0  0  0  0
    1.9912   -6.7919    5.4491 N   0  0  0  0  0  0  0  0  0  0  0  0
    1.4859   -7.6757    6.4508 C   0  0  0  0  0  0  0  0  0  0  0  0
    0.7273   -8.8776    6.4412 C   0  0  0  0  0  0  0  0  0  0  0  0
    0.3165   -9.4486    7.6680 C   0  0  0  0  0  0  0  0  0  0  0  0
    0.5986   -8.8052    8.8921 C   0  0  0  0  0  0  0  0  0  0  0  0
    1.2877   -7.5753    8.9053 C   0  0  0  0  0  0  0  0  0  0  0  0
    1.7478   -7.0258    7.6864 C   0  0  0  0  0  0  0  0  0  0  0  0
    2.4245   -5.8462    7.4494 C   0  0  0  0  0  0  0  0  0  0  0  0
    2.6969   -4.7251    8.2129 N   0  0  0  0  0  0  0  0  0  0  0  0
    3.2524   -3.9024    7.2286 C   0  0  0  0  0  0  0  0  0  0  0  0
    3.4005   -4.5724    5.9838 C   0  0  0  0  0  0  0  0  0  0  0  0
    2.6858   -5.7661    6.1068 C   0  0  0  0  0  0  0  0  0  0  0  0
    4.3224   -4.1389    4.8218 C   0  0  0  0  0  0  0  0  0  0  0  0
    3.8325   -3.1945    3.6601 C   0  0  2  0  0  0  0  0  0  0  0  0
    2.2432   -3.1848    3.5126 C   0  0  1  0  0  0  0  0  0  0  0  0
    1.6359   -2.0151    2.6433 C   0  0  0  0  0  0  0  0  0  0  0  0
    2.3607   -0.6295    2.6944 C   0  0  0  0  0  0  0  0  0  0  0  0
    1.5993    0.4485    1.9289 C   0  0  0  0  0  0  0  0  0  0  0  0
    1.4435   -2.9572    4.8891 C   0  0  0  0  0  0  0  0  0  0  0  0
    2.0223   -1.9721    5.9652 C   0  0  0  0  0  0  0  0  0  0  0  0
    3.1099   -2.4339    6.9883 C   0  0  0  0  0  0  0  0  0  0  0  0
    2.3124   -4.5145    9.1359 H   0  0  0  0  0  0  0  0  0  0  0  0
    1.8171   -3.4636   -3.1741 H   0  0  0  0  0  0  0  0  0  0  0  0
    2.4688   -1.7499   -3.3699 H   0  0  0  0  0  0  0  0  0  0  0  0
    3.6584   -1.8992   -1.3069 H   0  0  0  0  0  0  0  0  0  0  0  0
    2.2446   -4.6159   -1.0061 H   0  0  0  0  0  0  0  0  0  0  0  0
    4.0011   -4.5937   -1.0001 H   0  0  0  0  0  0  0  0  0  0  0  0
    5.0877   -3.2000    0.4253 H   0  0  0  0  0  0  0  0  0  0  0  0
    4.2072   -1.8571    0.9716 H   0  0  0  0  0  0  0  0  0  0  0  0
    5.0765   -5.2065    1.1551 H   0  0  0  0  0  0  0  0  0  0  0  0
    4.6427   -5.7445    2.7286 H   0  0  0  0  0  0  0  0  0  0  0  0
    2.6799   -5.7712    1.0119 H   0  0  0  0  0  0  0  0  0  0  0  0
    2.7380   -5.1802    3.5124 H   0  0  0  0  0  0  0  0  0  0  0  0
    0.2533   -5.1092    3.8722 H   0  0  0  0  0  0  0  0  0  0  0  0
    0.0913   -7.2228    0.4458 H   0  0  0  0  0  0  0  0  0  0  0  0
    1.7710   -8.8871    1.2516 H   0  0  0  0  0  0  0  0  0  0  0  0
    2.1620   -8.8776    3.6664 H   0  0  0  0  0  0  0  0  0  0  0  0
    3.2343   -7.6262    3.0580 H   0  0  0  0  0  0  0  0  0  0  0  0
    0.5220   -7.3482    4.1973 H   0  0  0  0  0  0  0  0  0  0  0  0
    0.4762   -9.3967    5.5284 H   0  0  0  0  0  0  0  0  0  0  0  0
   -0.1853  -10.4052    7.6647 H   0  0  0  0  0  0  0  0  0  0  0  0
    0.3278   -9.2665    9.8338 H   0  0  0  0  0  0  0  0  0  0  0  0
    1.5294   -7.0833    9.8278 H   0  0  0  0  0  0  0  0  0  0  0  0
    5.0516   -3.5222    5.3269 H   0  0  0  0  0  0  0  0  0  0  0  0
    4.9901   -4.9499    4.5463 H   0  0  0  0  0  0  0  0  0  0  0  0
    4.1477   -2.1971    3.9430 H   0  0  0  0  0  0  0  0  0  0  0  0
    1.4125   -2.2901    1.6198 H   0  0  0  0  0  0  0  0  0  0  0  0
    0.6115   -1.8519    2.9433 H   0  0  0  0  0  0  0  0  0  0  0  0
    2.5424   -0.2855    3.7084 H   0  0  0  0  0  0  0  0  0  0  0  0
    3.3550   -0.6279    2.2559 H   0  0  0  0  0  0  0  0  0  0  0  0
    2.2325    1.3338    1.8978 H   0  0  0  0  0  0  0  0  0  0  0  0
    0.6542    0.6863    2.4097 H   0  0  0  0  0  0  0  0  0  0  0  0
    1.4213    0.1530    0.8935 H   0  0  0  0  0  0  0  0  0  0  0  0
    0.4133   -2.6423    4.7128 H   0  0  0  0  0  0  0  0  0  0  0  0
    1.1629   -3.8681    5.3952 H   0  0  0  0  0  0  0  0  0  0  0  0
    2.3747   -1.0469    5.5426 H   0  0  0  0  0  0  0  0  0  0  0  0
    1.1644   -1.6284    6.5413 H   0  0  0  0  0  0  0  0  0  0  0  0
    2.7831   -2.0307    7.9384 H   0  0  0  0  0  0  0  0  0  0  0  0
    4.0749   -1.9585    6.7907 H   0  0  0  0  0  0  0  0  0  0  0  0
    5.6144   -3.3755    2.5810 H   0  0  0  0  0  0  0  0  0  0  0  0
  1  2  2  0
  1 38  1  0
  1 39  1  0
  2  3  1  0
  2 40  1  0
  3  4  1  0
  3 41  1  0
  3 42  1  0
  4  8  1  0
  4  5  1  0
  5  6  1  0
  5 43  1  0
  5 44  1  0
  6 29  1  0
  6  7  1  0
  6 75  1  1
  7  8  1  0
  7 45  1  0
  7 46  1  0
  8  9  1  0
  8 47  1  6
  9 30  1  0
  9 10  1  0
  9 48  1  1
 10 15  1  0
 10 11  1  0
 10 49  1  1
 11 12  1  0
 12 13  2  0
 12 50  1  0
 13 14  1  0
 13 51  1  0
 14 15  1  0
 14 52  1  0
 14 53  1  0
 15 16  1  0
 15 54  1  1
 16 27  1  0
 16 17  1  0
 17 22  2  0
 17 18  1  0
 18 19  2  0
 18 55  1  0
 19 20  1  0
 19 56  1  0
 20 21  2  0
 20 57  1  0
 21 22  1  0
 21 58  1  0
 22 23  1  0
 23 27  2  0
 23 24  1  0
 24 37  1  0
 24 25  1  0
 25 36  1  0
 25 26  2  0
 26 27  1  0
 26 28  1  0
 28 29  1  0
 28 59  1  0
 28 60  1  0
 29 30  1  0
 29 61  1  1
 30 31  1  6
 30 34  1  0
 31 32  1  0
 31 62  1  0
 31 63  1  0
 32 33  1  0
 32 64  1  0
 32 65  1  0
 33 66  1  0
 33 67  1  0
 33 68  1  0
 34 35  1  0
 34 69  1  0
 34 70  1  0
 35 36  1  0
 35 71  1  0
 35 72  1  0
 36 73  1  0
 36 74  1  0
M  CHG  1   6   1
M  END
>  <i_m_ct_stereo_status>  (96) 
1

>  <s_m_source_file>  (96) 
/var/tmp/pbs.5076255.sched01/tmpx9mnojvb/44r91_cmns.sdf

>  <i_m_source_file_index>  (96) 
11

>  <i_lp_mmshare_version>  (96) 
48012

>  <i_f3d_flags>  (96) 
0

>  <s_epik_input>  (96) 
W0NIM11bQ0gyXVtDSDJdW0NAQF0xMltDQEBIXTNbQ0BIXTROKFtDSDJdW0NIXT1bQ0gyXSlbQ0gyXU4oW0NIMl00KVtDSF0xW0NIMl1jNWMoW0NIMl1bQ0gyXVtDSDJdMilbbkhdYzZjN2MoW2NIXVtjSF1bY0hdW2NIXTcpbihjNTYpW0NASF04W0NAQEhdM09bQ0hdPVtDSF1bQ0gyXTg=

>  <s_epik_cmdline>  (96) 
J2VwaWtfcHl0aG9uJywgJy1waHQnLCAnMi4wJywgJy1waCcsICc3LjAnLCAnLXRuJywgJzgnLCAnLW1hJywgJzIwMCcsICctaW1hZScsICc8aW5maWxlLm1hZT4nLCAnLW9tYWUnLCAnPG91dGZpbGUubWFlPic=

>  <r_epik_Ionization_Penalty>  (96) 
1.19242

>  <r_epik_Ionization_Penalty_Charging>  (96) 
0.00218785

>  <r_epik_Ionization_Penalty_Neutral>  (96) 
1.19023

>  <r_epik_State_Penalty>  (96) 
1.48313

>  <r_epik_Charging_Adjusted_Penalty>  (96) 
1.48532

>  <i_epik_Tot_Q>  (96) 
1

>  <i_epik_Tot_abs_Q>  (96) 
1

>  <s_epik_Chemistry_Notes>  (96) 
This compound contains an acetal/aminal-like group ( X-CH(R)-Y where X, Y are N, S, or O) that may be acid/base labile, releasing an aldehyde.

>  <s_lp_Force_Field>  (96) 
OPLS3e

>  <r_lp_Energy>  (96) 
152.017

>  <b_lp_Chiralities_Consistent>  (96) 
1

>  <s_lp_Variant>  (96) 
25:0-5

>  <s_i_glide_gridfile>  (96) 
pfpi4k_grid

>  <i_i_glide_lignum>  (96) 
11

>  <i_i_glide_rotatable_bonds>  (96) 
4

>  <r_i_docking_score>  (96) 
-1.89171

>  <r_i_glide_ligand_efficiency>  (96) 
-0.0525476

>  <r_i_glide_ligand_efficiency_sa>  (96) 
-0.173508

>  <r_i_glide_ligand_efficiency_ln>  (96) 
-0.412721

>  <r_i_glide_gscore>  (96) 
-1.89171

>  <r_i_glide_lipo>  (96) 
-0.0218641

>  <r_i_glide_hbond>  (96) 
-0.229956

>  <r_i_glide_metal>  (96) 
-0

>  <r_i_glide_rewards>  (96) 
-0.122741

>  <r_i_glide_evdw>  (96) 
-22.015

>  <r_i_glide_ecoul>  (96) 
-4.50907

>  <r_i_glide_erotb>  (96) 
0.26036

>  <r_i_glide_esite>  (96) 
-0.000400466

>  <r_i_glide_emodel>  (96) 
-25.2029

>  <r_i_glide_energy>  (96) 
-26.5241

>  <r_i_glide_einternal>  (96) 
4.61576

>  <r_i_glide_intrahb_reward>  (96) 
-0

>  <i_i_glide_confnum>  (96) 
2

>  <i_i_glide_posenum>  (96) 
7

>  <r_i_glide_eff_state_penalty>  (96) 
0

>  <ligand_id>  (96) 
25

>  <original_smiles>  (96) 
C=CCN1CN2CC1C1C3OC=CCC3n3c4ccccc4c4[nH]c5c(c43)CC2C1(CCC)CCC5

>  <smiles>  (96) 
[H]C([H])=C([H])C([H])([H])N1C2([H])C3([H])C4([H])OC([H])=C([H])C([H])([H])C4([H])n4c5c([H])c([H])c([H])c([H])c5c5c4c4c(n5[H])C([H])([H])C([H])([H])C([H])([H])C3(C([H])([H])C([H])([H])C([H])([H])[H])C([H])(C4([H])[H])[N+]([H])(C1([H])[H])C2([H])[H]

$$$$
25:4:1
     RDKit          3D

 75 82  0  0  1  0  0  0  0  0999 V2000
    5.3268   -1.7596   -1.5938 C   0  0  0  0  0  0  0  0  0  0  0  0
    4.4770   -1.1390   -0.7621 C   0  0  0  0  0  0  0  0  0  0  0  0
    4.8730   -0.4989    0.5580 C   0  0  0  0  0  0  0  0  0  0  0  0
    4.1531   -1.0415    1.6980 N   0  0  0  0  0  0  0  0  0  0  0  0
    4.4876   -0.2988    2.9445 C   0  0  0  0  0  0  0  0  0  0  0  0
    4.5318   -1.4023    3.9607 N   0  0  2  0  0  0  0  0  0  0  0  0
    5.2709   -2.3841    3.1385 C   0  0  0  0  0  0  0  0  0  0  0  0
    4.3130   -2.4841    1.9618 C   0  0  1  0  0  0  0  0  0  0  0  0
    3.0113   -3.2052    2.4945 C   0  0  2  0  0  0  0  0  0  0  0  0
    2.5038   -4.4938    1.8014 C   0  0  1  0  0  0  0  0  0  0  0  0
    2.6138   -4.3491    0.3801 O   0  0  0  0  0  0  0  0  0  0  0  0
    3.7582   -4.8401   -0.2339 C   0  0  0  0  0  0  0  0  0  0  0  0
    4.7086   -5.5632    0.3841 C   0  0  0  0  0  0  0  0  0  0  0  0
    4.6178   -6.0032    1.8230 C   0  0  0  0  0  0  0  0  0  0  0  0
    3.1835   -5.8257    2.3161 C   0  0  1  0  0  0  0  0  0  0  0  0
    2.9589   -6.3355    3.6842 N   0  0  0  0  0  0  0  0  0  0  0  0
    2.6191   -7.7244    3.8778 C   0  0  0  0  0  0  0  0  0  0  0  0
    2.6781   -8.8894    3.0865 C   0  0  0  0  0  0  0  0  0  0  0  0
    2.1671  -10.1082    3.5937 C   0  0  0  0  0  0  0  0  0  0  0  0
    1.5438  -10.1491    4.8679 C   0  0  0  0  0  0  0  0  0  0  0  0
    1.4176   -8.9733    5.6309 C   0  0  0  0  0  0  0  0  0  0  0  0
    1.9699   -7.7724    5.1465 C   0  0  0  0  0  0  0  0  0  0  0  0
    1.9868   -6.4931    5.6910 C   0  0  0  0  0  0  0  0  0  0  0  0
    1.2937   -5.8914    6.7464 N   0  0  0  0  0  0  0  0  0  0  0  0
    1.7003   -4.5728    6.5873 C   0  0  0  0  0  0  0  0  0  0  0  0
    2.6942   -4.4084    5.5767 C   0  0  0  0  0  0  0  0  0  0  0  0
    2.6782   -5.6597    4.8898 C   0  0  0  0  0  0  0  0  0  0  0  0
    3.6230   -3.2157    5.4516 C   0  0  0  0  0  0  0  0  0  0  0  0
    3.2288   -1.9895    4.5470 C   0  0  2  0  0  0  0  0  0  0  0  0
    2.0978   -2.3470    3.4645 C   0  0  1  0  0  0  0  0  0  0  0  0
    1.4175   -1.1030    2.7619 C   0  0  0  0  0  0  0  0  0  0  0  0
    1.3932    0.2260    3.5834 C   0  0  0  0  0  0  0  0  0  0  0  0
    0.8381    1.3834    2.7273 C   0  0  0  0  0  0  0  0  0  0  0  0
    0.8163   -3.0903    4.0736 C   0  0  0  0  0  0  0  0  0  0  0  0
    0.2875   -2.6773    5.4921 C   0  0  0  0  0  0  0  0  0  0  0  0
    0.9042   -3.3215    6.7792 C   0  0  0  0  0  0  0  0  0  0  0  0
    0.5233   -6.2898    7.2935 H   0  0  0  0  0  0  0  0  0  0  0  0
    6.3754   -1.8622   -1.3601 H   0  0  0  0  0  0  0  0  0  0  0  0
    4.9801   -2.1810   -2.5259 H   0  0  0  0  0  0  0  0  0  0  0  0
    3.4317   -1.0689   -1.0334 H   0  0  0  0  0  0  0  0  0  0  0  0
    5.9503   -0.5870    0.7106 H   0  0  0  0  0  0  0  0  0  0  0  0
    4.6416    0.5662    0.4830 H   0  0  0  0  0  0  0  0  0  0  0  0
    5.5256    0.0456    2.8646 H   0  0  0  0  0  0  0  0  0  0  0  0
    3.9751    0.6146    3.1108 H   0  0  0  0  0  0  0  0  0  0  0  0
    6.2189   -1.9587    2.8261 H   0  0  0  0  0  0  0  0  0  0  0  0
    5.5392   -3.3428    3.5928 H   0  0  0  0  0  0  0  0  0  0  0  0
    4.7744   -2.9942    1.1278 H   0  0  0  0  0  0  0  0  0  0  0  0
    3.5036   -3.8341    3.2059 H   0  0  0  0  0  0  0  0  0  0  0  0
    1.4327   -4.6093    1.9731 H   0  0  0  0  0  0  0  0  0  0  0  0
    3.8238   -4.5176   -1.2584 H   0  0  0  0  0  0  0  0  0  0  0  0
    5.5982   -5.8586   -0.1608 H   0  0  0  0  0  0  0  0  0  0  0  0
    4.9130   -7.0485    1.8958 H   0  0  0  0  0  0  0  0  0  0  0  0
    5.2921   -5.4358    2.4523 H   0  0  0  0  0  0  0  0  0  0  0  0
    2.6449   -6.5436    1.6926 H   0  0  0  0  0  0  0  0  0  0  0  0
    3.1276   -8.8816    2.1030 H   0  0  0  0  0  0  0  0  0  0  0  0
    2.2487  -11.0208    3.0122 H   0  0  0  0  0  0  0  0  0  0  0  0
    1.1646  -11.0857    5.2505 H   0  0  0  0  0  0  0  0  0  0  0  0
    0.9502   -9.0110    6.6019 H   0  0  0  0  0  0  0  0  0  0  0  0
    3.6561   -2.7823    6.4445 H   0  0  0  0  0  0  0  0  0  0  0  0
    4.6651   -3.5198    5.4020 H   0  0  0  0  0  0  0  0  0  0  0  0
    2.8236   -1.2356    5.2108 H   0  0  0  0  0  0  0  0  0  0  0  0
    1.7922   -0.9759    1.7451 H   0  0  0  0  0  0  0  0  0  0  0  0
    0.3842   -1.3120    2.4906 H   0  0  0  0  0  0  0  0  0  0  0  0
    0.8002    0.1121    4.4992 H   0  0  0  0  0  0  0  0  0  0  0  0
    2.3212    0.5316    3.9477 H   0  0  0  0  0  0  0  0  0  0  0  0
    0.9597    2.3156    3.2877 H   0  0  0  0  0  0  0  0  0  0  0  0
   -0.2283    1.2476    2.5015 H   0  0  0  0  0  0  0  0  0  0  0  0
    1.3789    1.5103    1.7772 H   0  0  0  0  0  0  0  0  0  0  0  0
   -0.0323   -2.9977    3.4092 H   0  0  0  0  0  0  0  0  0  0  0  0
    0.8625   -4.1694    4.0250 H   0  0  0  0  0  0  0  0  0  0  0  0
    0.2974   -1.5976    5.6066 H   0  0  0  0  0  0  0  0  0  0  0  0
   -0.7822   -2.9114    5.4972 H   0  0  0  0  0  0  0  0  0  0  0  0
    0.0649   -3.6057    7.4095 H   0  0  0  0  0  0  0  0  0  0  0  0
    1.4525   -2.5908    7.3600 H   0  0  0  0  0  0  0  0  0  0  0  0
    5.1205   -1.0860    4.7577 H   0  0  0  0  0  0  0  0  0  0  0  0
  1  2  2  0
  1 38  1  0
  1 39  1  0
  2  3  1  0
  2 40  1  0
  3  4  1  0
  3 41  1  0
  3 42  1  0
  4  8  1  0
  4  5  1  0
  5  6  1  0
  5 43  1  0
  5 44  1  0
  6 29  1  0
  6  7  1  0
  6 75  1  1
  7  8  1  0
  7 45  1  0
  7 46  1  0
  8  9  1  0
  8 47  1  6
  9 30  1  0
  9 10  1  0
  9 48  1  1
 10 15  1  0
 10 11  1  0
 10 49  1  6
 11 12  1  0
 12 13  2  0
 12 50  1  0
 13 14  1  0
 13 51  1  0
 14 15  1  0
 14 52  1  0
 14 53  1  0
 15 16  1  0
 15 54  1  6
 16 27  1  0
 16 17  1  0
 17 22  2  0
 17 18  1  0
 18 19  2  0
 18 55  1  0
 19 20  1  0
 19 56  1  0
 20 21  2  0
 20 57  1  0
 21 22  1  0
 21 58  1  0
 22 23  1  0
 23 27  2  0
 23 24  1  0
 24 37  1  0
 24 25  1  0
 25 36  1  0
 25 26  2  0
 26 27  1  0
 26 28  1  0
 28 29  1  0
 28 59  1  0
 28 60  1  0
 29 30  1  0
 29 61  1  1
 30 31  1  6
 30 34  1  0
 31 32  1  0
 31 62  1  0
 31 63  1  0
 32 33  1  0
 32 64  1  0
 32 65  1  0
 33 66  1  0
 33 67  1  0
 33 68  1  0
 34 35  1  0
 34 69  1  0
 34 70  1  0
 35 36  1  0
 35 71  1  0
 35 72  1  0
 36 73  1  0
 36 74  1  0
M  CHG  1   6   1
M  END
>  <i_m_ct_stereo_status>  (97) 
1

>  <s_m_source_file>  (97) 
/var/tmp/pbs.5076255.sched01/tmpx9mnojvb/44r91_cmns.sdf

>  <i_m_source_file_index>  (97) 
11

>  <i_lp_mmshare_version>  (97) 
48012

>  <i_f3d_flags>  (97) 
0

>  <s_epik_input>  (97) 
W0NIM11bQ0gyXVtDSDJdW0NAQF0xMltDQEBIXTNbQ0BIXTROKFtDSDJdW0NIXT1bQ0gyXSlbQ0gyXU4oW0NIMl00KVtDSF0xW0NIMl1jNWMoW0NIMl1bQ0gyXVtDSDJdMilbbkhdYzZjN2MoW2NIXVtjSF1bY0hdW2NIXTcpbihjNTYpW0NASF04W0NAQEhdM09bQ0hdPVtDSF1bQ0gyXTg=

>  <s_epik_cmdline>  (97) 
J2VwaWtfcHl0aG9uJywgJy1waHQnLCAnMi4wJywgJy1waCcsICc3LjAnLCAnLXRuJywgJzgnLCAnLW1hJywgJzIwMCcsICctaW1hZScsICc8aW5maWxlLm1hZT4nLCAnLW9tYWUnLCAnPG91dGZpbGUubWFlPic=

>  <r_epik_Ionization_Penalty>  (97) 
1.19242

>  <r_epik_Ionization_Penalty_Charging>  (97) 
0.00218785

>  <r_epik_Ionization_Penalty_Neutral>  (97) 
1.19023

>  <r_epik_State_Penalty>  (97) 
1.48313

>  <r_epik_Charging_Adjusted_Penalty>  (97) 
1.48532

>  <i_epik_Tot_Q>  (97) 
1

>  <i_epik_Tot_abs_Q>  (97) 
1

>  <s_epik_Chemistry_Notes>  (97) 
This compound contains an acetal/aminal-like group ( X-CH(R)-Y where X, Y are N, S, or O) that may be acid/base labile, releasing an aldehyde.

>  <s_lp_Force_Field>  (97) 
OPLS3e

>  <r_lp_Energy>  (97) 
152.017

>  <b_lp_Chiralities_Consistent>  (97) 
1

>  <s_lp_Variant>  (97) 
25:0-5

>  <s_i_glide_gridfile>  (97) 
pfpi4k_grid

>  <i_i_glide_lignum>  (97) 
11

>  <i_i_glide_rotatable_bonds>  (97) 
4

>  <r_i_docking_score>  (97) 
-1.7271

>  <r_i_glide_ligand_efficiency>  (97) 
-0.0479749

>  <r_i_glide_ligand_efficiency_sa>  (97) 
-0.15841

>  <r_i_glide_ligand_efficiency_ln>  (97) 
-0.376806

>  <r_i_glide_gscore>  (97) 
-1.7271

>  <r_i_glide_lipo>  (97) 
-0.38315

>  <r_i_glide_hbond>  (97) 
0

>  <r_i_glide_metal>  (97) 
-0

>  <r_i_glide_rewards>  (97) 
-0.21473

>  <r_i_glide_evdw>  (97) 
-24.0098

>  <r_i_glide_ecoul>  (97) 
-1.25957

>  <r_i_glide_erotb>  (97) 
0.26036

>  <r_i_glide_esite>  (97) 
-0.00015083

>  <r_i_glide_emodel>  (97) 
-23.2431

>  <r_i_glide_energy>  (97) 
-25.2694

>  <r_i_glide_einternal>  (97) 
3.97995

>  <r_i_glide_intrahb_reward>  (97) 
-0

>  <i_i_glide_confnum>  (97) 
2

>  <i_i_glide_posenum>  (97) 
1

>  <r_i_glide_eff_state_penalty>  (97) 
0

>  <ligand_id>  (97) 
25

>  <original_smiles>  (97) 
C=CCN1CN2CC1C1C3OC=CCC3n3c4ccccc4c4[nH]c5c(c43)CC2C1(CCC)CCC5

>  <smiles>  (97) 
[H]C([H])=C([H])C([H])([H])N1C2([H])C3([H])C4([H])OC([H])=C([H])C([H])([H])C4([H])n4c5c([H])c([H])c([H])c([H])c5c5c4c4c(n5[H])C([H])([H])C([H])([H])C([H])([H])C3(C([H])([H])C([H])([H])C([H])([H])[H])C([H])(C4([H])[H])[N+]([H])(C1([H])[H])C2([H])[H]

$$$$
25:4:2
     RDKit          3D

 75 82  0  0  1  0  0  0  0  0999 V2000
    4.5324   -1.8922   -2.5940 C   0  0  0  0  0  0  0  0  0  0  0  0
    5.0752   -1.8633   -1.3678 C   0  0  0  0  0  0  0  0  0  0  0  0
    6.2692   -2.6945   -0.9336 C   0  0  0  0  0  0  0  0  0  0  0  0
    6.0573   -3.3513    0.3572 N   0  0  0  0  0  0  0  0  0  0  0  0
    7.2464   -4.0894    0.8200 C   0  0  0  0  0  0  0  0  0  0  0  0
    6.7106   -5.3732    1.3591 N   0  0  2  0  0  0  0  0  0  0  0  0
    5.6898   -5.6036    0.2996 C   0  0  0  0  0  0  0  0  0  0  0  0
    4.9273   -4.3004    0.4039 C   0  0  1  0  0  0  0  0  0  0  0  0
    4.1736   -4.3263    1.7906 C   0  0  2  0  0  0  0  0  0  0  0  0
    2.6586   -4.1616    1.8598 C   0  0  1  0  0  0  0  0  0  0  0  0
    2.2967   -3.1357    0.9204 O   0  0  0  0  0  0  0  0  0  0  0  0
    1.9105   -3.5298   -0.3418 C   0  0  0  0  0  0  0  0  0  0  0  0
    1.6795   -4.8030   -0.7212 C   0  0  0  0  0  0  0  0  0  0  0  0
    1.8249   -5.9786    0.2297 C   0  0  0  0  0  0  0  0  0  0  0  0
    1.8665   -5.5096    1.6676 C   0  0  1  0  0  0  0  0  0  0  0  0
    1.8818   -6.6186    2.6753 N   0  0  0  0  0  0  0  0  0  0  0  0
    0.6485   -7.2040    3.0839 C   0  0  0  0  0  0  0  0  0  0  0  0
   -0.6811   -7.2004    2.6015 C   0  0  0  0  0  0  0  0  0  0  0  0
   -1.6892   -7.8203    3.3647 C   0  0  0  0  0  0  0  0  0  0  0  0
   -1.3767   -8.3979    4.6066 C   0  0  0  0  0  0  0  0  0  0  0  0
   -0.0734   -8.3693    5.1207 C   0  0  0  0  0  0  0  0  0  0  0  0
    0.9345   -7.7862    4.3534 C   0  0  0  0  0  0  0  0  0  0  0  0
    2.2845   -7.6020    4.6303 C   0  0  0  0  0  0  0  0  0  0  0  0
    3.0547   -7.7224    5.7656 N   0  0  0  0  0  0  0  0  0  0  0  0
    4.2685   -7.1939    5.2937 C   0  0  0  0  0  0  0  0  0  0  0  0
    4.2442   -6.9629    3.9158 C   0  0  0  0  0  0  0  0  0  0  0  0
    2.8708   -7.0218    3.5426 C   0  0  0  0  0  0  0  0  0  0  0  0
    5.4688   -6.7691    3.0101 C   0  0  0  0  0  0  0  0  0  0  0  0
    6.0956   -5.3429    2.7741 C   0  0  2  0  0  0  0  0  0  0  0  0
    5.0819   -4.1536    3.0667 C   0  0  1  0  0  0  0  0  0  0  0  0
    5.7091   -2.7181    3.2148 C   0  0  0  0  0  0  0  0  0  0  0  0
    4.7461   -1.5335    2.9800 C   0  0  0  0  0  0  0  0  0  0  0  0
    5.3698   -0.2078    3.4185 C   0  0  0  0  0  0  0  0  0  0  0  0
    4.3702   -4.2514    4.4881 C   0  0  0  0  0  0  0  0  0  0  0  0
    5.2024   -4.8080    5.7069 C   0  0  0  0  0  0  0  0  0  0  0  0
    5.2854   -6.3446    5.9882 C   0  0  0  0  0  0  0  0  0  0  0  0
    2.7212   -7.8791    6.7097 H   0  0  0  0  0  0  0  0  0  0  0  0
    4.9118   -2.5369   -3.3714 H   0  0  0  0  0  0  0  0  0  0  0  0
    3.6870   -1.2653   -2.8337 H   0  0  0  0  0  0  0  0  0  0  0  0
    4.6493   -1.2030   -0.6269 H   0  0  0  0  0  0  0  0  0  0  0  0
    6.5168   -3.4214   -1.7079 H   0  0  0  0  0  0  0  0  0  0  0  0
    7.1237   -2.0283   -0.8348 H   0  0  0  0  0  0  0  0  0  0  0  0
    7.8789   -4.3457   -0.0318 H   0  0  0  0  0  0  0  0  0  0  0  0
    7.9006   -3.5725    1.5165 H   0  0  0  0  0  0  0  0  0  0  0  0
    6.1562   -5.6750   -0.6700 H   0  0  0  0  0  0  0  0  0  0  0  0
    5.0874   -6.5098    0.3827 H   0  0  0  0  0  0  0  0  0  0  0  0
    4.2620   -4.2089   -0.4463 H   0  0  0  0  0  0  0  0  0  0  0  0
    4.0310   -5.3798    1.8214 H   0  0  0  0  0  0  0  0  0  0  0  0
    2.3710   -3.7590    2.8275 H   0  0  0  0  0  0  0  0  0  0  0  0
    1.8514   -2.6919   -1.0265 H   0  0  0  0  0  0  0  0  0  0  0  0
    1.3907   -5.0160   -1.7390 H   0  0  0  0  0  0  0  0  0  0  0  0
    0.9959   -6.6704    0.0818 H   0  0  0  0  0  0  0  0  0  0  0  0
    2.7617   -6.5032    0.0627 H   0  0  0  0  0  0  0  0  0  0  0  0
    0.8783   -5.1243    1.8419 H   0  0  0  0  0  0  0  0  0  0  0  0
   -0.9564   -6.7435    1.6629 H   0  0  0  0  0  0  0  0  0  0  0  0
   -2.7107   -7.8840    3.0121 H   0  0  0  0  0  0  0  0  0  0  0  0
   -2.1348   -8.9203    5.1731 H   0  0  0  0  0  0  0  0  0  0  0  0
    0.1667   -8.8338    6.0590 H   0  0  0  0  0  0  0  0  0  0  0  0
    6.2447   -7.2906    3.5410 H   0  0  0  0  0  0  0  0  0  0  0  0
    5.3866   -7.4186    2.1492 H   0  0  0  0  0  0  0  0  0  0  0  0
    6.9515   -5.2320    3.4486 H   0  0  0  0  0  0  0  0  0  0  0  0
    6.1133   -2.6604    4.2008 H   0  0  0  0  0  0  0  0  0  0  0  0
    6.5396   -2.5097    2.5606 H   0  0  0  0  0  0  0  0  0  0  0  0
    4.4786   -1.4822    1.9205 H   0  0  0  0  0  0  0  0  0  0  0  0
    3.8057   -1.6560    3.5142 H   0  0  0  0  0  0  0  0  0  0  0  0
    4.6679    0.6083    3.2676 H   0  0  0  0  0  0  0  0  0  0  0  0
    6.2767    0.0170    2.8577 H   0  0  0  0  0  0  0  0  0  0  0  0
    5.6350   -0.2184    4.4783 H   0  0  0  0  0  0  0  0  0  0  0  0
    4.0354   -3.2722    4.8196 H   0  0  0  0  0  0  0  0  0  0  0  0
    3.4032   -4.7288    4.4671 H   0  0  0  0  0  0  0  0  0  0  0  0
    6.2034   -4.3792    5.7234 H   0  0  0  0  0  0  0  0  0  0  0  0
    4.7302   -4.3659    6.5833 H   0  0  0  0  0  0  0  0  0  0  0  0
    5.0935   -6.4669    7.0573 H   0  0  0  0  0  0  0  0  0  0  0  0
    6.2931   -6.7158    5.8247 H   0  0  0  0  0  0  0  0  0  0  0  0
    7.4332   -6.0802    1.3136 H   0  0  0  0  0  0  0  0  0  0  0  0
  1  2  2  0
  1 38  1  0
  1 39  1  0
  2  3  1  0
  2 40  1  0
  3  4  1  0
  3 41  1  0
  3 42  1  0
  4  8  1  0
  4  5  1  0
  5  6  1  0
  5 43  1  0
  5 44  1  0
  6 29  1  0
  6  7  1  0
  6 75  1  1
  7  8  1  0
  7 45  1  0
  7 46  1  0
  8  9  1  0
  8 47  1  6
  9 30  1  0
  9 10  1  0
  9 48  1  1
 10 15  1  0
 10 11  1  0
 10 49  1  1
 11 12  1  0
 12 13  2  0
 12 50  1  0
 13 14  1  0
 13 51  1  0
 14 15  1  0
 14 52  1  0
 14 53  1  0
 15 16  1  0
 15 54  1  1
 16 27  1  0
 16 17  1  0
 17 22  2  0
 17 18  1  0
 18 19  2  0
 18 55  1  0
 19 20  1  0
 19 56  1  0
 20 21  2  0
 20 57  1  0
 21 22  1  0
 21 58  1  0
 22 23  1  0
 23 27  2  0
 23 24  1  0
 24 37  1  0
 24 25  1  0
 25 36  1  0
 25 26  2  0
 26 27  1  0
 26 28  1  0
 28 29  1  0
 28 59  1  0
 28 60  1  0
 29 30  1  0
 29 61  1  1
 30 31  1  6
 30 34  1  0
 31 32  1  0
 31 62  1  0
 31 63  1  0
 32 33  1  0
 32 64  1  0
 32 65  1  0
 33 66  1  0
 33 67  1  0
 33 68  1  0
 34 35  1  0
 34 69  1  0
 34 70  1  0
 35 36  1  0
 35 71  1  0
 35 72  1  0
 36 73  1  0
 36 74  1  0
M  CHG  1   6   1
M  END
>  <i_m_ct_stereo_status>  (98) 
1

>  <s_m_source_file>  (98) 
/var/tmp/pbs.5076255.sched01/tmpx9mnojvb/44r91_cmns.sdf

>  <i_m_source_file_index>  (98) 
11

>  <i_lp_mmshare_version>  (98) 
48012

>  <i_f3d_flags>  (98) 
0

>  <s_epik_input>  (98) 
W0NIM11bQ0gyXVtDSDJdW0NAQF0xMltDQEBIXTNbQ0BIXTROKFtDSDJdW0NIXT1bQ0gyXSlbQ0gyXU4oW0NIMl00KVtDSF0xW0NIMl1jNWMoW0NIMl1bQ0gyXVtDSDJdMilbbkhdYzZjN2MoW2NIXVtjSF1bY0hdW2NIXTcpbihjNTYpW0NASF04W0NAQEhdM09bQ0hdPVtDSF1bQ0gyXTg=

>  <s_epik_cmdline>  (98) 
J2VwaWtfcHl0aG9uJywgJy1waHQnLCAnMi4wJywgJy1waCcsICc3LjAnLCAnLXRuJywgJzgnLCAnLW1hJywgJzIwMCcsICctaW1hZScsICc8aW5maWxlLm1hZT4nLCAnLW9tYWUnLCAnPG91dGZpbGUubWFlPic=

>  <r_epik_Ionization_Penalty>  (98) 
1.19242

>  <r_epik_Ionization_Penalty_Charging>  (98) 
0.00218785

>  <r_epik_Ionization_Penalty_Neutral>  (98) 
1.19023

>  <r_epik_State_Penalty>  (98) 
1.48313

>  <r_epik_Charging_Adjusted_Penalty>  (98) 
1.48532

>  <i_epik_Tot_Q>  (98) 
1

>  <i_epik_Tot_abs_Q>  (98) 
1

>  <s_epik_Chemistry_Notes>  (98) 
This compound contains an acetal/aminal-like group ( X-CH(R)-Y where X, Y are N, S, or O) that may be acid/base labile, releasing an aldehyde.

>  <s_lp_Force_Field>  (98) 
OPLS3e

>  <r_lp_Energy>  (98) 
152.017

>  <b_lp_Chiralities_Consistent>  (98) 
1

>  <s_lp_Variant>  (98) 
25:0-5

>  <s_i_glide_gridfile>  (98) 
pfpi4k_grid

>  <i_i_glide_lignum>  (98) 
11

>  <i_i_glide_rotatable_bonds>  (98) 
4

>  <r_i_docking_score>  (98) 
-1.33654

>  <r_i_glide_ligand_efficiency>  (98) 
-0.0371261

>  <r_i_glide_ligand_efficiency_sa>  (98) 
-0.122588

>  <r_i_glide_ligand_efficiency_ln>  (98) 
-0.291597

>  <r_i_glide_gscore>  (98) 
-1.33654

>  <r_i_glide_lipo>  (98) 
-0.428325

>  <r_i_glide_hbond>  (98) 
0

>  <r_i_glide_metal>  (98) 
-0

>  <r_i_glide_rewards>  (98) 
-0.282775

>  <r_i_glide_evdw>  (98) 
-15.7066

>  <r_i_glide_ecoul>  (98) 
-0.563028

>  <r_i_glide_erotb>  (98) 
0.26036

>  <r_i_glide_esite>  (98) 
-0.0160137

>  <r_i_glide_emodel>  (98) 
-16.8006

>  <r_i_glide_energy>  (98) 
-16.2697

>  <r_i_glide_einternal>  (98) 
0.544003

>  <r_i_glide_intrahb_reward>  (98) 
-0

>  <i_i_glide_confnum>  (98) 
3

>  <i_i_glide_posenum>  (98) 
2

>  <r_i_glide_eff_state_penalty>  (98) 
0

>  <ligand_id>  (98) 
25

>  <original_smiles>  (98) 
C=CCN1CN2CC1C1C3OC=CCC3n3c4ccccc4c4[nH]c5c(c43)CC2C1(CCC)CCC5

>  <smiles>  (98) 
[H]C([H])=C([H])C([H])([H])N1C2([H])C3([H])C4([H])OC([H])=C([H])C([H])([H])C4([H])n4c5c([H])c([H])c([H])c([H])c5c5c4c4c(n5[H])C([H])([H])C([H])([H])C([H])([H])C3(C([H])([H])C([H])([H])C([H])([H])[H])C([H])(C4([H])[H])[N+]([H])(C1([H])[H])C2([H])[H]

$$$$
25:5:0
     RDKit          3D

 75 82  0  0  1  0  0  0  0  0999 V2000
   -2.1156   -8.8824    2.5804 C   0  0  0  0  0  0  0  0  0  0  0  0
   -0.9566   -9.5287    2.7775 C   0  0  0  0  0  0  0  0  0  0  0  0
   -0.0770   -9.3731    4.0077 C   0  0  0  0  0  0  0  0  0  0  0  0
    1.3343   -9.1280    3.6817 N   0  0  0  0  0  0  0  0  0  0  0  0
    1.9647  -10.2214    2.9439 C   0  0  0  0  0  0  0  0  0  0  0  0
    3.1795  -10.5719    3.7178 N   0  0  2  0  0  0  0  0  0  0  0  0
    2.6832  -10.3734    5.0828 C   0  0  0  0  0  0  0  0  0  0  0  0
    2.1502   -8.9650    4.9012 C   0  0  1  0  0  0  0  0  0  0  0  0
    3.3201   -7.9280    4.6869 C   0  0  2  0  0  0  0  0  0  0  0  0
    2.9114   -6.7478    3.6549 C   0  0  1  0  0  0  0  0  0  0  0  0
    3.1780   -5.4690    4.2428 O   0  0  0  0  0  0  0  0  0  0  0  0
    2.5115   -4.4173    3.6613 C   0  0  0  0  0  0  0  0  0  0  0  0
    1.9894   -4.4747    2.4255 C   0  0  0  0  0  0  0  0  0  0  0  0
    2.1900   -5.6703    1.4953 C   0  0  0  0  0  0  0  0  0  0  0  0
    3.2017   -6.7125    2.0632 C   0  0  1  0  0  0  0  0  0  0  0  0
    4.6020   -6.4060    1.5469 N   0  0  0  0  0  0  0  0  0  0  0  0
    5.2450   -5.1479    1.2275 C   0  0  0  0  0  0  0  0  0  0  0  0
    4.8351   -3.8104    1.0195 C   0  0  0  0  0  0  0  0  0  0  0  0
    5.7957   -2.8001    0.7970 C   0  0  0  0  0  0  0  0  0  0  0  0
    7.1732   -3.1032    0.8016 C   0  0  0  0  0  0  0  0  0  0  0  0
    7.6099   -4.4196    1.0283 C   0  0  0  0  0  0  0  0  0  0  0  0
    6.6550   -5.4372    1.2124 C   0  0  0  0  0  0  0  0  0  0  0  0
    6.8437   -6.7816    1.4626 C   0  0  0  0  0  0  0  0  0  0  0  0
    7.9065   -7.5846    1.8711 N   0  0  0  0  0  0  0  0  0  0  0  0
    7.2223   -8.7490    2.2573 C   0  0  0  0  0  0  0  0  0  0  0  0
    5.8574   -8.6566    1.8687 C   0  0  0  0  0  0  0  0  0  0  0  0
    5.6109   -7.3341    1.5391 C   0  0  0  0  0  0  0  0  0  0  0  0
    4.7206   -9.5856    1.9673 C   0  0  0  0  0  0  0  0  0  0  0  0
    4.4178   -9.7491    3.4304 C   0  0  1  0  0  0  0  0  0  0  0  0
    4.7604   -8.5567    4.4815 C   0  0  1  0  0  0  0  0  0  0  0  0
    5.6608   -7.2100    4.4857 C   0  0  0  0  0  0  0  0  0  0  0  0
    5.8194   -6.4101    5.8156 C   0  0  0  0  0  0  0  0  0  0  0  0
    6.6599   -5.1358    5.6489 C   0  0  0  0  0  0  0  0  0  0  0  0
    5.7159   -9.3916    5.4278 C   0  0  0  0  0  0  0  0  0  0  0  0
    7.2036   -9.5694    4.8573 C   0  0  0  0  0  0  0  0  0  0  0  0
    7.5413   -9.8216    3.3138 C   0  0  0  0  0  0  0  0  0  0  0  0
    8.8753   -7.3254    2.0503 H   0  0  0  0  0  0  0  0  0  0  0  0
   -2.5118   -8.1847    3.3032 H   0  0  0  0  0  0  0  0  0  0  0  0
   -2.6900   -9.0550    1.6845 H   0  0  0  0  0  0  0  0  0  0  0  0
   -0.6241  -10.2263    2.0246 H   0  0  0  0  0  0  0  0  0  0  0  0
   -0.4616   -8.5480    4.6108 H   0  0  0  0  0  0  0  0  0  0  0  0
   -0.1744  -10.2697    4.6222 H   0  0  0  0  0  0  0  0  0  0  0  0
    1.3224  -11.1009    2.9494 H   0  0  0  0  0  0  0  0  0  0  0  0
    2.1099   -9.9658    1.9010 H   0  0  0  0  0  0  0  0  0  0  0  0
    1.8870  -11.0851    5.3085 H   0  0  0  0  0  0  0  0  0  0  0  0
    3.3901  -10.4745    5.8965 H   0  0  0  0  0  0  0  0  0  0  0  0
    1.5382   -8.6531    5.7516 H   0  0  0  0  0  0  0  0  0  0  0  0
    3.3559   -7.4589    5.6670 H   0  0  0  0  0  0  0  0  0  0  0  0
    1.8231   -6.7508    3.7237 H   0  0  0  0  0  0  0  0  0  0  0  0
    2.3995   -3.5693    4.3254 H   0  0  0  0  0  0  0  0  0  0  0  0
    1.4348   -3.6223    2.0587 H   0  0  0  0  0  0  0  0  0  0  0  0
    1.2122   -6.1273    1.3499 H   0  0  0  0  0  0  0  0  0  0  0  0
    2.4947   -5.3121    0.5093 H   0  0  0  0  0  0  0  0  0  0  0  0
    2.8682   -7.6472    1.6207 H   0  0  0  0  0  0  0  0  0  0  0  0
    3.8026   -3.5118    1.0064 H   0  0  0  0  0  0  0  0  0  0  0  0
    5.4796   -1.7816    0.6239 H   0  0  0  0  0  0  0  0  0  0  0  0
    7.9040   -2.3216    0.6319 H   0  0  0  0  0  0  0  0  0  0  0  0
    8.6581   -4.6583    1.0509 H   0  0  0  0  0  0  0  0  0  0  0  0
    3.9174   -9.3138    1.2961 H   0  0  0  0  0  0  0  0  0  0  0  0
    5.0575  -10.5387    1.5723 H   0  0  0  0  0  0  0  0  0  0  0  0
    5.1073  -10.5665    3.6006 H   0  0  0  0  0  0  0  0  0  0  0  0
    6.6753   -7.3279    4.1463 H   0  0  0  0  0  0  0  0  0  0  0  0
    5.3065   -6.4421    3.8293 H   0  0  0  0  0  0  0  0  0  0  0  0
    4.8525   -6.1081    6.2120 H   0  0  0  0  0  0  0  0  0  0  0  0
    6.3009   -6.9978    6.5946 H   0  0  0  0  0  0  0  0  0  0  0  0
    6.7596   -4.6181    6.6010 H   0  0  0  0  0  0  0  0  0  0  0  0
    6.2038   -4.4424    4.9438 H   0  0  0  0  0  0  0  0  0  0  0  0
    7.6641   -5.3662    5.2960 H   0  0  0  0  0  0  0  0  0  0  0  0
    5.7493   -8.9851    6.4327 H   0  0  0  0  0  0  0  0  0  0  0  0
    5.3875  -10.4076    5.6240 H   0  0  0  0  0  0  0  0  0  0  0  0
    7.8152   -8.7368    5.2065 H   0  0  0  0  0  0  0  0  0  0  0  0
    7.6436  -10.4017    5.4044 H   0  0  0  0  0  0  0  0  0  0  0  0
    7.2366  -10.8182    2.9882 H   0  0  0  0  0  0  0  0  0  0  0  0
    8.6260   -9.8729    3.3035 H   0  0  0  0  0  0  0  0  0  0  0  0
    3.3858  -11.5511    3.5565 H   0  0  0  0  0  0  0  0  0  0  0  0
  1  2  2  0
  1 38  1  0
  1 39  1  0
  2  3  1  0
  2 40  1  0
  3  4  1  0
  3 41  1  0
  3 42  1  0
  4  8  1  0
  4  5  1  0
  5  6  1  0
  5 43  1  0
  5 44  1  0
  6 29  1  0
  6  7  1  0
  6 75  1  1
  7  8  1  0
  7 45  1  0
  7 46  1  0
  8  9  1  0
  8 47  1  1
  9 30  1  0
  9 10  1  0
  9 48  1  1
 10 15  1  0
 10 11  1  0
 10 49  1  6
 11 12  1  0
 12 13  2  0
 12 50  1  0
 13 14  1  0
 13 51  1  0
 14 15  1  0
 14 52  1  0
 14 53  1  0
 15 16  1  0
 15 54  1  6
 16 27  1  0
 16 17  1  0
 17 22  2  0
 17 18  1  0
 18 19  2  0
 18 55  1  0
 19 20  1  0
 19 56  1  0
 20 21  2  0
 20 57  1  0
 21 22  1  0
 21 58  1  0
 22 23  1  0
 23 27  2  0
 23 24  1  0
 24 37  1  0
 24 25  1  0
 25 36  1  0
 25 26  2  0
 26 27  1  0
 26 28  1  0
 28 29  1  0
 28 59  1  0
 28 60  1  0
 29 30  1  0
 29 61  1  1
 30 31  1  6
 30 34  1  0
 31 32  1  0
 31 62  1  0
 31 63  1  0
 32 33  1  0
 32 64  1  0
 32 65  1  0
 33 66  1  0
 33 67  1  0
 33 68  1  0
 34 35  1  0
 34 69  1  0
 34 70  1  0
 35 36  1  0
 35 71  1  0
 35 72  1  0
 36 73  1  0
 36 74  1  0
M  CHG  1   6   1
M  END
>  <i_m_ct_stereo_status>  (99) 
1

>  <s_m_source_file>  (99) 
/var/tmp/pbs.5076255.sched01/tmpx9mnojvb/44r91_cmns.sdf

>  <i_m_source_file_index>  (99) 
12

>  <i_lp_mmshare_version>  (99) 
48012

>  <i_f3d_flags>  (99) 
0

>  <s_epik_input>  (99) 
W0NIM11bQ0gyXVtDSDJdW0NAQF0xMltDQEBIXTNbQ0BIXTROKFtDSDJdW0NIXT1bQ0gyXSlbQ0gyXU4oW0NIMl00KVtDSF0xW0NIMl1jNWMoW0NIMl1bQ0gyXVtDSDJdMilbbkhdYzZjN2MoW2NIXVtjSF1bY0hdW2NIXTcpbihjNTYpW0NASF04W0NAQEhdM09bQ0hdPVtDSF1bQ0gyXTg=

>  <s_epik_cmdline>  (99) 
J2VwaWtfcHl0aG9uJywgJy1waHQnLCAnMi4wJywgJy1waCcsICc3LjAnLCAnLXRuJywgJzgnLCAnLW1hJywgJzIwMCcsICctaW1hZScsICc8aW5maWxlLm1hZT4nLCAnLW9tYWUnLCAnPG91dGZpbGUubWFlPic=

>  <r_epik_Ionization_Penalty>  (99) 
1.19242

>  <r_epik_Ionization_Penalty_Charging>  (99) 
0.00218785

>  <r_epik_Ionization_Penalty_Neutral>  (99) 
1.19023

>  <r_epik_State_Penalty>  (99) 
1.48313

>  <r_epik_Charging_Adjusted_Penalty>  (99) 
1.48532

>  <i_epik_Tot_Q>  (99) 
1

>  <i_epik_Tot_abs_Q>  (99) 
1

>  <s_epik_Chemistry_Notes>  (99) 
This compound contains an acetal/aminal-like group ( X-CH(R)-Y where X, Y are N, S, or O) that may be acid/base labile, releasing an aldehyde.

>  <s_lp_Force_Field>  (99) 
OPLS3e

>  <r_lp_Energy>  (99) 
190.952

>  <b_lp_Chiralities_Consistent>  (99) 
1

>  <s_lp_Variant>  (99) 
25:0-6

>  <s_i_glide_gridfile>  (99) 
pfpi4k_grid

>  <i_i_glide_lignum>  (99) 
12

>  <i_i_glide_rotatable_bonds>  (99) 
4

>  <r_i_docking_score>  (99) 
-3.37397

>  <r_i_glide_ligand_efficiency>  (99) 
-0.0937213

>  <r_i_glide_ligand_efficiency_sa>  (99) 
-0.309461

>  <r_i_glide_ligand_efficiency_ln>  (99) 
-0.736108

>  <r_i_glide_gscore>  (99) 
-3.37397

>  <r_i_glide_lipo>  (99) 
-0.982218

>  <r_i_glide_hbond>  (99) 
-0.0701144

>  <r_i_glide_metal>  (99) 
-0

>  <r_i_glide_rewards>  (99) 
-0.289943

>  <r_i_glide_evdw>  (99) 
-25.6305

>  <r_i_glide_ecoul>  (99) 
-6.30952

>  <r_i_glide_erotb>  (99) 
0.26036

>  <r_i_glide_esite>  (99) 
-0.0640982

>  <r_i_glide_emodel>  (99) 
-40.4705

>  <r_i_glide_energy>  (99) 
-31.94

>  <r_i_glide_einternal>  (99) 
0.0078129

>  <r_i_glide_intrahb_reward>  (99) 
-0

>  <i_i_glide_confnum>  (99) 
1

>  <i_i_glide_posenum>  (99) 
30

>  <r_i_glide_eff_state_penalty>  (99) 
0

>  <ligand_id>  (99) 
25

>  <original_smiles>  (99) 
C=CCN1CN2CC1C1C3OC=CCC3n3c4ccccc4c4[nH]c5c(c43)CC2C1(CCC)CCC5

>  <smiles>  (99) 
[H]C([H])=C([H])C([H])([H])N1C2([H])C3([H])C4([H])OC([H])=C([H])C([H])([H])C4([H])n4c5c([H])c([H])c([H])c([H])c5c5c4c4c(n5[H])C([H])([H])C([H])([H])C([H])([H])C3(C([H])([H])C([H])([H])C([H])([H])[H])C([H])(C4([H])[H])[N+]([H])(C1([H])[H])C2([H])[H]

$$$$
25:5:1
     RDKit          3D

 75 82  0  0  1  0  0  0  0  0999 V2000
   -2.1501   -9.0796    2.7547 C   0  0  0  0  0  0  0  0  0  0  0  0
   -0.9636   -9.7062    2.7743 C   0  0  0  0  0  0  0  0  0  0  0  0
    0.0095   -9.6676    3.9393 C   0  0  0  0  0  0  0  0  0  0  0  0
    1.3362   -9.1649    3.5580 N   0  0  0  0  0  0  0  0  0  0  0  0
    2.0357  -10.0174    2.5962 C   0  0  0  0  0  0  0  0  0  0  0  0
    3.3586  -10.2949    3.2022 N   0  0  2  0  0  0  0  0  0  0  0  0
    2.9803  -10.3926    4.6139 C   0  0  0  0  0  0  0  0  0  0  0  0
    2.2397   -9.0714    4.7207 C   0  0  1  0  0  0  0  0  0  0  0  0
    3.2276   -7.8464    4.5998 C   0  0  2  0  0  0  0  0  0  0  0  0
    2.5584   -6.5977    3.8198 C   0  0  1  0  0  0  0  0  0  0  0  0
    2.6988   -5.4021    4.5965 O   0  0  0  0  0  0  0  0  0  0  0  0
    1.8426   -4.3845    4.2503 C   0  0  0  0  0  0  0  0  0  0  0  0
    1.2227   -4.3290    3.0625 C   0  0  0  0  0  0  0  0  0  0  0  0
    1.4954   -5.3287    1.9380 C   0  0  0  0  0  0  0  0  0  0  0  0
    2.6880   -6.2758    2.2416 C   0  0  1  0  0  0  0  0  0  0  0  0
    3.9716   -5.6768    1.6774 N   0  0  0  0  0  0  0  0  0  0  0  0
    4.3923   -4.2982    1.5269 C   0  0  0  0  0  0  0  0  0  0  0  0
    3.7808   -3.0209    1.5790 C   0  0  0  0  0  0  0  0  0  0  0  0
    4.5628   -1.8515    1.4608 C   0  0  0  0  0  0  0  0  0  0  0  0
    5.9630   -1.9328    1.3122 C   0  0  0  0  0  0  0  0  0  0  0  0
    6.5977   -3.1887    1.2713 C   0  0  0  0  0  0  0  0  0  0  0  0
    5.8212   -4.3606    1.3488 C   0  0  0  0  0  0  0  0  0  0  0  0
    6.2229   -5.6853    1.3458 C   0  0  0  0  0  0  0  0  0  0  0  0
    7.4259   -6.3692    1.5246 N   0  0  0  0  0  0  0  0  0  0  0  0
    6.9547   -7.6731    1.7523 C   0  0  0  0  0  0  0  0  0  0  0  0
    5.5544   -7.7299    1.5010 C   0  0  0  0  0  0  0  0  0  0  0  0
    5.0926   -6.4252    1.4259 C   0  0  0  0  0  0  0  0  0  0  0  0
    4.5676   -8.8274    1.5300 C   0  0  0  0  0  0  0  0  0  0  0  0
    4.4350   -9.2594    2.9653 C   0  0  1  0  0  0  0  0  0  0  0  0
    4.7117   -8.2052    4.1762 C   0  0  1  0  0  0  0  0  0  0  0  0
    5.4137   -6.7533    4.3418 C   0  0  0  0  0  0  0  0  0  0  0  0
    5.5828   -6.1541    5.7736 C   0  0  0  0  0  0  0  0  0  0  0  0
    6.2894   -4.7915    5.7695 C   0  0  0  0  0  0  0  0  0  0  0  0
    5.8637   -9.0209    4.8933 C   0  0  0  0  0  0  0  0  0  0  0  0
    7.2959   -8.8701    4.1933 C   0  0  0  0  0  0  0  0  0  0  0  0
    7.5139   -8.8188    2.6091 C   0  0  0  0  0  0  0  0  0  0  0  0
    8.3396   -5.9844    1.7328 H   0  0  0  0  0  0  0  0  0  0  0  0
   -2.4961   -8.4863    3.5884 H   0  0  0  0  0  0  0  0  0  0  0  0
   -2.7975   -9.1667    1.8973 H   0  0  0  0  0  0  0  0  0  0  0  0
   -0.6773  -10.2973    1.9186 H   0  0  0  0  0  0  0  0  0  0  0  0
   -0.4095   -9.0353    4.7240 H   0  0  0  0  0  0  0  0  0  0  0  0
    0.0806  -10.6700    4.3663 H   0  0  0  0  0  0  0  0  0  0  0  0
    1.5209  -10.9734    2.5017 H   0  0  0  0  0  0  0  0  0  0  0  0
    2.0364   -9.5822    1.6025 H   0  0  0  0  0  0  0  0  0  0  0  0
    2.3136  -11.2415    4.7791 H   0  0  0  0  0  0  0  0  0  0  0  0
    3.7700  -10.5067    5.3462 H   0  0  0  0  0  0  0  0  0  0  0  0
    1.6778   -8.9949    5.6557 H   0  0  0  0  0  0  0  0  0  0  0  0
    3.2976   -7.5341    5.6387 H   0  0  0  0  0  0  0  0  0  0  0  0
    1.4920   -6.7778    3.9650 H   0  0  0  0  0  0  0  0  0  0  0  0
    1.6781   -3.6751    5.0502 H   0  0  0  0  0  0  0  0  0  0  0  0
    0.5326   -3.5162    2.8759 H   0  0  0  0  0  0  0  0  0  0  0  0
    0.5766   -5.8966    1.7872 H   0  0  0  0  0  0  0  0  0  0  0  0
    1.6804   -4.7870    1.0089 H   0  0  0  0  0  0  0  0  0  0  0  0
    2.4390   -7.1647    1.6697 H   0  0  0  0  0  0  0  0  0  0  0  0
    2.7201   -2.8832    1.6912 H   0  0  0  0  0  0  0  0  0  0  0  0
    4.0916   -0.8795    1.4817 H   0  0  0  0  0  0  0  0  0  0  0  0
    6.5564   -1.0310    1.2268 H   0  0  0  0  0  0  0  0  0  0  0  0
    7.6657   -3.2638    1.1668 H   0  0  0  0  0  0  0  0  0  0  0  0
    3.6698   -8.5684    0.9872 H   0  0  0  0  0  0  0  0  0  0  0  0
    4.9707   -9.6485    0.9392 H   0  0  0  0  0  0  0  0  0  0  0  0
    5.2469   -9.9763    2.9438 H   0  0  0  0  0  0  0  0  0  0  0  0
    6.3948   -6.6627    3.9083 H   0  0  0  0  0  0  0  0  0  0  0  0
    4.8946   -5.9537    3.8548 H   0  0  0  0  0  0  0  0  0  0  0  0
    4.6178   -6.0183    6.2577 H   0  0  0  0  0  0  0  0  0  0  0  0
    6.1651   -6.7959    6.4302 H   0  0  0  0  0  0  0  0  0  0  0  0
    6.4041   -4.4184    6.7856 H   0  0  0  0  0  0  0  0  0  0  0  0
    5.7305   -4.0459    5.2055 H   0  0  0  0  0  0  0  0  0  0  0  0
    7.2864   -4.8681    5.3386 H   0  0  0  0  0  0  0  0  0  0  0  0
    5.9389   -8.7827    5.9488 H   0  0  0  0  0  0  0  0  0  0  0  0
    5.7015  -10.0939    4.9369 H   0  0  0  0  0  0  0  0  0  0  0  0
    7.8186   -8.0215    4.6351 H   0  0  0  0  0  0  0  0  0  0  0  0
    7.8996   -9.7009    4.5535 H   0  0  0  0  0  0  0  0  0  0  0  0
    7.3232   -9.7934    2.1518 H   0  0  0  0  0  0  0  0  0  0  0  0
    8.5863   -8.6573    2.5179 H   0  0  0  0  0  0  0  0  0  0  0  0
    3.6804  -11.1904    2.8500 H   0  0  0  0  0  0  0  0  0  0  0  0
  1  2  2  0
  1 38  1  0
  1 39  1  0
  2  3  1  0
  2 40  1  0
  3  4  1  0
  3 41  1  0
  3 42  1  0
  4  8  1  0
  4  5  1  0
  5  6  1  0
  5 43  1  0
  5 44  1  0
  6 29  1  0
  6  7  1  0
  6 75  1  6
  7  8  1  0
  7 45  1  0
  7 46  1  0
  8  9  1  0
  8 47  1  1
  9 30  1  0
  9 10  1  0
  9 48  1  1
 10 15  1  0
 10 11  1  0
 10 49  1  6
 11 12  1  0
 12 13  2  0
 12 50  1  0
 13 14  1  0
 13 51  1  0
 14 15  1  0
 14 52  1  0
 14 53  1  0
 15 16  1  0
 15 54  1  6
 16 27  1  0
 16 17  1  0
 17 22  2  0
 17 18  1  0
 18 19  2  0
 18 55  1  0
 19 20  1  0
 19 56  1  0
 20 21  2  0
 20 57  1  0
 21 22  1  0
 21 58  1  0
 22 23  1  0
 23 27  2  0
 23 24  1  0
 24 37  1  0
 24 25  1  0
 25 36  1  0
 25 26  2  0
 26 27  1  0
 26 28  1  0
 28 29  1  0
 28 59  1  0
 28 60  1  0
 29 30  1  0
 29 61  1  1
 30 31  1  6
 30 34  1  0
 31 32  1  0
 31 62  1  0
 31 63  1  0
 32 33  1  0
 32 64  1  0
 32 65  1  0
 33 66  1  0
 33 67  1  0
 33 68  1  0
 34 35  1  0
 34 69  1  0
 34 70  1  0
 35 36  1  0
 35 71  1  0
 35 72  1  0
 36 73  1  0
 36 74  1  0
M  CHG  1   6   1
M  END
>  <i_m_ct_stereo_status>  (100) 
1

>  <s_m_source_file>  (100) 
/var/tmp/pbs.5076255.sched01/tmpx9mnojvb/44r91_cmns.sdf

>  <i_m_source_file_index>  (100) 
12

>  <i_lp_mmshare_version>  (100) 
48012

>  <i_f3d_flags>  (100) 
0

>  <s_epik_input>  (100) 
W0NIM11bQ0gyXVtDSDJdW0NAQF0xMltDQEBIXTNbQ0BIXTROKFtDSDJdW0NIXT1bQ0gyXSlbQ0gyXU4oW0NIMl00KVtDSF0xW0NIMl1jNWMoW0NIMl1bQ0gyXVtDSDJdMilbbkhdYzZjN2MoW2NIXVtjSF1bY0hdW2NIXTcpbihjNTYpW0NASF04W0NAQEhdM09bQ0hdPVtDSF1bQ0gyXTg=

>  <s_epik_cmdline>  (100) 
J2VwaWtfcHl0aG9uJywgJy1waHQnLCAnMi4wJywgJy1waCcsICc3LjAnLCAnLXRuJywgJzgnLCAnLW1hJywgJzIwMCcsICctaW1hZScsICc8aW5maWxlLm1hZT4nLCAnLW9tYWUnLCAnPG91dGZpbGUubWFlPic=

>  <r_epik_Ionization_Penalty>  (100) 
1.19242

>  <r_epik_Ionization_Penalty_Charging>  (100) 
0.00218785

>  <r_epik_Ionization_Penalty_Neutral>  (100) 
1.19023

>  <r_epik_State_Penalty>  (100) 
1.48313

>  <r_epik_Charging_Adjusted_Penalty>  (100) 
1.48532

>  <i_epik_Tot_Q>  (100) 
1

>  <i_epik_Tot_abs_Q>  (100) 
1

>  <s_epik_Chemistry_Notes>  (100) 
This compound contains an acetal/aminal-like group ( X-CH(R)-Y where X, Y are N, S, or O) that may be acid/base labile, releasing an aldehyde.

>  <s_lp_Force_Field>  (100) 
OPLS3e

>  <r_lp_Energy>  (100) 
190.952

>  <b_lp_Chiralities_Consistent>  (100) 
1

>  <s_lp_Variant>  (100) 
25:0-6

>  <s_i_glide_gridfile>  (100) 
pfpi4k_grid

>  <i_i_glide_lignum>  (100) 
12

>  <i_i_glide_rotatable_bonds>  (100) 
4

>  <r_i_docking_score>  (100) 
-2.75893

>  <r_i_glide_ligand_efficiency>  (100) 
-0.076637

>  <r_i_glide_ligand_efficiency_sa>  (100) 
-0.25305

>  <r_i_glide_ligand_efficiency_ln>  (100) 
-0.601925

>  <r_i_glide_gscore>  (100) 
-2.75893

>  <r_i_glide_lipo>  (100) 
-0.737327

>  <r_i_glide_hbond>  (100) 
0

>  <r_i_glide_metal>  (100) 
-0

>  <r_i_glide_rewards>  (100) 
-0.244583

>  <r_i_glide_evdw>  (100) 
-25.6355

>  <r_i_glide_ecoul>  (100) 
-4.85932

>  <r_i_glide_erotb>  (100) 
0.26036

>  <r_i_glide_esite>  (100) 
-0.0267095

>  <r_i_glide_emodel>  (100) 
-37.2768

>  <r_i_glide_energy>  (100) 
-30.4948

>  <r_i_glide_einternal>  (100) 
0.123553

>  <r_i_glide_intrahb_reward>  (100) 
-0

>  <i_i_glide_confnum>  (100) 
1

>  <i_i_glide_posenum>  (100) 
31

>  <r_i_glide_eff_state_penalty>  (100) 
0

>  <ligand_id>  (100) 
25

>  <original_smiles>  (100) 
C=CCN1CN2CC1C1C3OC=CCC3n3c4ccccc4c4[nH]c5c(c43)CC2C1(CCC)CCC5

>  <smiles>  (100) 
[H]C([H])=C([H])C([H])([H])N1C2([H])C3([H])C4([H])OC([H])=C([H])C([H])([H])C4([H])n4c5c([H])c([H])c([H])c([H])c5c5c4c4c(n5[H])C([H])([H])C([H])([H])C([H])([H])C3(C([H])([H])C([H])([H])C([H])([H])[H])C([H])(C4([H])[H])[N+]([H])(C1([H])[H])C2([H])[H]

$$$$
25:5:2
     RDKit          3D

 75 82  0  0  1  0  0  0  0  0999 V2000
    1.8028   -5.6577   10.7993 C   0  0  0  0  0  0  0  0  0  0  0  0
    1.8050   -6.8371   10.1589 C   0  0  0  0  0  0  0  0  0  0  0  0
    3.0494   -7.6588    9.8664 C   0  0  0  0  0  0  0  0  0  0  0  0
    3.1233   -8.1271    8.4758 N   0  0  0  0  0  0  0  0  0  0  0  0
    2.0181   -9.0009    8.0756 C   0  0  0  0  0  0  0  0  0  0  0  0
    2.6509  -10.2208    7.5239 N   0  0  2  0  0  0  0  0  0  0  0  0
    3.8080  -10.3272    8.4080 C   0  0  0  0  0  0  0  0  0  0  0  0
    4.3418   -8.9181    8.2257 C   0  0  1  0  0  0  0  0  0  0  0  0
    4.8992   -8.7084    6.7665 C   0  0  2  0  0  0  0  0  0  0  0  0
    4.6241   -7.2083    6.2200 C   0  0  1  0  0  0  0  0  0  0  0  0
    5.8419   -6.6294    5.7319 O   0  0  0  0  0  0  0  0  0  0  0  0
    5.8307   -5.2573    5.6281 C   0  0  0  0  0  0  0  0  0  0  0  0
    4.6954   -4.5363    5.5769 C   0  0  0  0  0  0  0  0  0  0  0  0
    3.3142   -5.1789    5.5090 C   0  0  0  0  0  0  0  0  0  0  0  0
    3.3666   -6.7276    5.3219 C   0  0  1  0  0  0  0  0  0  0  0  0
    3.3140   -7.0672    3.8374 N   0  0  0  0  0  0  0  0  0  0  0  0
    3.8320   -6.3561    2.6883 C   0  0  0  0  0  0  0  0  0  0  0  0
    4.3271   -5.0606    2.4068 C   0  0  0  0  0  0  0  0  0  0  0  0
    4.8347   -4.7488    1.1274 C   0  0  0  0  0  0  0  0  0  0  0  0
    4.8888   -5.7344    0.1191 C   0  0  0  0  0  0  0  0  0  0  0  0
    4.4381   -7.0342    0.3842 C   0  0  0  0  0  0  0  0  0  0  0  0
    3.8769   -7.3367    1.6344 C   0  0  0  0  0  0  0  0  0  0  0  0
    3.3600   -8.5268    2.1009 C   0  0  0  0  0  0  0  0  0  0  0  0
    3.4169   -9.8596    1.6982 N   0  0  0  0  0  0  0  0  0  0  0  0
    2.9945  -10.5096    2.8741 C   0  0  0  0  0  0  0  0  0  0  0  0
    2.5364   -9.5438    3.8098 C   0  0  0  0  0  0  0  0  0  0  0  0
    2.9450   -8.3019    3.3701 C   0  0  0  0  0  0  0  0  0  0  0  0
    1.9518   -9.6533    5.1650 C   0  0  0  0  0  0  0  0  0  0  0  0
    3.0343  -10.1747    6.0682 C   0  0  1  0  0  0  0  0  0  0  0  0
    4.6000   -9.8834    5.7424 C   0  0  1  0  0  0  0  0  0  0  0  0
    5.4654   -9.3822    4.4704 C   0  0  0  0  0  0  0  0  0  0  0  0
    7.0211   -9.3960    4.5684 C   0  0  0  0  0  0  0  0  0  0  0  0
    7.6959   -8.8118    3.3204 C   0  0  0  0  0  0  0  0  0  0  0  0
    5.0697  -11.3939    5.6683 C   0  0  0  0  0  0  0  0  0  0  0  0
    4.7199  -12.1143    4.2826 C   0  0  0  0  0  0  0  0  0  0  0  0
    3.3527  -11.8853    3.4735 C   0  0  0  0  0  0  0  0  0  0  0  0
    3.8863  -10.3106    0.9146 H   0  0  0  0  0  0  0  0  0  0  0  0
    2.7133   -5.1946   11.1516 H   0  0  0  0  0  0  0  0  0  0  0  0
    0.8779   -5.1339   10.9863 H   0  0  0  0  0  0  0  0  0  0  0  0
    0.8595   -7.2482    9.8425 H   0  0  0  0  0  0  0  0  0  0  0  0
    3.9289   -7.0525   10.0881 H   0  0  0  0  0  0  0  0  0  0  0  0
    3.0754   -8.4985   10.5619 H   0  0  0  0  0  0  0  0  0  0  0  0
    1.4485   -9.3055    8.9547 H   0  0  0  0  0  0  0  0  0  0  0  0
    1.3151   -8.4788    7.4347 H   0  0  0  0  0  0  0  0  0  0  0  0
    3.4851  -10.5073    9.4368 H   0  0  0  0  0  0  0  0  0  0  0  0
    4.5311  -11.1066    8.2006 H   0  0  0  0  0  0  0  0  0  0  0  0
    5.1216   -8.6840    8.9523 H   0  0  0  0  0  0  0  0  0  0  0  0
    5.9668   -8.7609    6.9504 H   0  0  0  0  0  0  0  0  0  0  0  0
    4.5175   -6.6417    7.1467 H   0  0  0  0  0  0  0  0  0  0  0  0
    6.8232   -4.8279    5.6572 H   0  0  0  0  0  0  0  0  0  0  0  0
    4.7395   -3.4551    5.5487 H   0  0  0  0  0  0  0  0  0  0  0  0
    2.8048   -4.9188    6.4363 H   0  0  0  0  0  0  0  0  0  0  0  0
    2.7392   -4.6979    4.7173 H   0  0  0  0  0  0  0  0  0  0  0  0
    2.4463   -7.0667    5.7873 H   0  0  0  0  0  0  0  0  0  0  0  0
    4.3189   -4.2659    3.1327 H   0  0  0  0  0  0  0  0  0  0  0  0
    5.1849   -3.7530    0.9048 H   0  0  0  0  0  0  0  0  0  0  0  0
    5.2571   -5.4883   -0.8701 H   0  0  0  0  0  0  0  0  0  0  0  0
    4.4668   -7.7908   -0.3797 H   0  0  0  0  0  0  0  0  0  0  0  0
    1.4380   -8.7467    5.4445 H   0  0  0  0  0  0  0  0  0  0  0  0
    1.1427  -10.3788    5.1142 H   0  0  0  0  0  0  0  0  0  0  0  0
    2.8329  -11.2286    5.8954 H   0  0  0  0  0  0  0  0  0  0  0  0
    5.2617   -9.8916    3.5444 H   0  0  0  0  0  0  0  0  0  0  0  0
    5.2865   -8.3639    4.1976 H   0  0  0  0  0  0  0  0  0  0  0  0
    7.3751   -8.8210    5.4209 H   0  0  0  0  0  0  0  0  0  0  0  0
    7.4149  -10.4024    4.6905 H   0  0  0  0  0  0  0  0  0  0  0  0
    8.7815   -8.8578    3.4089 H   0  0  0  0  0  0  0  0  0  0  0  0
    7.4285   -7.7673    3.1645 H   0  0  0  0  0  0  0  0  0  0  0  0
    7.4105   -9.3660    2.4279 H   0  0  0  0  0  0  0  0  0  0  0  0
    6.1255  -11.4999    5.8926 H   0  0  0  0  0  0  0  0  0  0  0  0
    4.6321  -12.0448    6.4216 H   0  0  0  0  0  0  0  0  0  0  0  0
    5.5520  -11.9731    3.5927 H   0  0  0  0  0  0  0  0  0  0  0  0
    4.7827  -13.1827    4.4726 H   0  0  0  0  0  0  0  0  0  0  0  0
    2.5032  -12.3292    4.0002 H   0  0  0  0  0  0  0  0  0  0  0  0
    3.4698  -12.5267    2.5991 H   0  0  0  0  0  0  0  0  0  0  0  0
    2.0252  -11.0285    7.6667 H   0  0  0  0  0  0  0  0  0  0  0  0
  1  2  2  0
  1 38  1  0
  1 39  1  0
  2  3  1  0
  2 40  1  0
  3  4  1  0
  3 41  1  0
  3 42  1  0
  4  8  1  0
  4  5  1  0
  5  6  1  0
  5 43  1  0
  5 44  1  0
  6 29  1  0
  6  7  1  0
  6 75  1  6
  7  8  1  0
  7 45  1  0
  7 46  1  0
  8  9  1  0
  8 47  1  1
  9 30  1  0
  9 10  1  0
  9 48  1  1
 10 15  1  0
 10 11  1  0
 10 49  1  1
 11 12  1  0
 12 13  2  0
 12 50  1  0
 13 14  1  0
 13 51  1  0
 14 15  1  0
 14 52  1  0
 14 53  1  0
 15 16  1  0
 15 54  1  1
 16 27  1  0
 16 17  1  0
 17 22  2  0
 17 18  1  0
 18 19  2  0
 18 55  1  0
 19 20  1  0
 19 56  1  0
 20 21  2  0
 20 57  1  0
 21 22  1  0
 21 58  1  0
 22 23  1  0
 23 27  2  0
 23 24  1  0
 24 37  1  0
 24 25  1  0
 25 36  1  0
 25 26  2  0
 26 27  1  0
 26 28  1  0
 28 29  1  0
 28 59  1  0
 28 60  1  0
 29 30  1  0
 29 61  1  6
 30 31  1  6
 30 34  1  0
 31 32  1  0
 31 62  1  0
 31 63  1  0
 32 33  1  0
 32 64  1  0
 32 65  1  0
 33 66  1  0
 33 67  1  0
 33 68  1  0
 34 35  1  0
 34 69  1  0
 34 70  1  0
 35 36  1  0
 35 71  1  0
 35 72  1  0
 36 73  1  0
 36 74  1  0
M  CHG  1   6   1
M  END
>  <i_m_ct_stereo_status>  (101) 
1

>  <s_m_source_file>  (101) 
/var/tmp/pbs.5076255.sched01/tmpx9mnojvb/44r91_cmns.sdf

>  <i_m_source_file_index>  (101) 
12

>  <i_lp_mmshare_version>  (101) 
48012

>  <i_f3d_flags>  (101) 
0

>  <s_epik_input>  (101) 
W0NIM11bQ0gyXVtDSDJdW0NAQF0xMltDQEBIXTNbQ0BIXTROKFtDSDJdW0NIXT1bQ0gyXSlbQ0gyXU4oW0NIMl00KVtDSF0xW0NIMl1jNWMoW0NIMl1bQ0gyXVtDSDJdMilbbkhdYzZjN2MoW2NIXVtjSF1bY0hdW2NIXTcpbihjNTYpW0NASF04W0NAQEhdM09bQ0hdPVtDSF1bQ0gyXTg=

>  <s_epik_cmdline>  (101) 
J2VwaWtfcHl0aG9uJywgJy1waHQnLCAnMi4wJywgJy1waCcsICc3LjAnLCAnLXRuJywgJzgnLCAnLW1hJywgJzIwMCcsICctaW1hZScsICc8aW5maWxlLm1hZT4nLCAnLW9tYWUnLCAnPG91dGZpbGUubWFlPic=

>  <r_epik_Ionization_Penalty>  (101) 
1.19242

>  <r_epik_Ionization_Penalty_Charging>  (101) 
0.00218785

>  <r_epik_Ionization_Penalty_Neutral>  (101) 
1.19023

>  <r_epik_State_Penalty>  (101) 
1.48313

>  <r_epik_Charging_Adjusted_Penalty>  (101) 
1.48532

>  <i_epik_Tot_Q>  (101) 
1

>  <i_epik_Tot_abs_Q>  (101) 
1

>  <s_epik_Chemistry_Notes>  (101) 
This compound contains an acetal/aminal-like group ( X-CH(R)-Y where X, Y are N, S, or O) that may be acid/base labile, releasing an aldehyde.

>  <s_lp_Force_Field>  (101) 
OPLS3e

>  <r_lp_Energy>  (101) 
190.952

>  <b_lp_Chiralities_Consistent>  (101) 
1

>  <s_lp_Variant>  (101) 
25:0-6

>  <s_i_glide_gridfile>  (101) 
pfpi4k_grid

>  <i_i_glide_lignum>  (101) 
12

>  <i_i_glide_rotatable_bonds>  (101) 
4

>  <r_i_docking_score>  (101) 
-2.73943

>  <r_i_glide_ligand_efficiency>  (101) 
-0.0760954

>  <r_i_glide_ligand_efficiency_sa>  (101) 
-0.251261

>  <r_i_glide_ligand_efficiency_ln>  (101) 
-0.597671

>  <r_i_glide_gscore>  (101) 
-2.73943

>  <r_i_glide_lipo>  (101) 
-0.318375

>  <r_i_glide_hbond>  (101) 
-0.29179

>  <r_i_glide_metal>  (101) 
-0

>  <r_i_glide_rewards>  (101) 
-0.111358

>  <r_i_glide_evdw>  (101) 
-16.1835

>  <r_i_glide_ecoul>  (101) 
-8.22866

>  <r_i_glide_erotb>  (101) 
0.26036

>  <r_i_glide_esite>  (101) 
-0.234797

>  <r_i_glide_emodel>  (101) 
-31.2472

>  <r_i_glide_energy>  (101) 
-24.4122

>  <r_i_glide_einternal>  (101) 
0.0296287

>  <r_i_glide_intrahb_reward>  (101) 
-0

>  <i_i_glide_confnum>  (101) 
1

>  <i_i_glide_posenum>  (101) 
16

>  <r_i_glide_eff_state_penalty>  (101) 
0

>  <ligand_id>  (101) 
25

>  <original_smiles>  (101) 
C=CCN1CN2CC1C1C3OC=CCC3n3c4ccccc4c4[nH]c5c(c43)CC2C1(CCC)CCC5

>  <smiles>  (101) 
[H]C([H])=C([H])C([H])([H])N1C2([H])C3([H])C4([H])OC([H])=C([H])C([H])([H])C4([H])n4c5c([H])c([H])c([H])c([H])c5c5c4c4c(n5[H])C([H])([H])C([H])([H])C([H])([H])C3(C([H])([H])C([H])([H])C([H])([H])[H])C([H])(C4([H])[H])[N+]([H])(C1([H])[H])C2([H])[H]

$$$$
26:0:0
     RDKit          3D

 73 77  0  0  1  0  0  0  0  0999 V2000
    1.4619  -11.0194    3.9071 C   0  0  0  0  0  0  0  0  0  0  0  0
    2.8619  -10.4041    4.1887 C   0  0  0  0  0  0  0  0  0  0  0  0
    3.0938  -10.5976    5.7046 C   0  0  0  0  0  0  0  0  0  0  0  0
    3.9482  -11.2081    3.4454 C   0  0  0  0  0  0  0  0  0  0  0  0
    3.7152  -12.3323    3.0120 O   0  0  0  0  0  0  0  0  0  0  0  0
    5.3568  -10.6123    3.3890 C   0  0  1  0  0  0  0  0  0  0  0  0
    6.2758  -11.3946    2.5447 C   0  0  0  0  0  0  0  0  0  0  0  0
    7.0091  -11.9977    1.8829 N   0  0  0  0  0  0  0  0  0  0  0  0
    5.3175   -9.1244    2.9588 C   0  0  0  0  0  0  0  0  0  0  0  0
    4.3422   -8.2209    3.7811 C   0  0  2  0  0  0  0  0  0  0  0  0
    4.9640   -8.1563    5.2096 C   0  0  0  0  0  0  0  0  0  0  0  0
    2.9114   -8.8800    3.7597 C   0  0  1  0  0  0  0  0  0  0  0  0
    2.2520   -8.6459    2.3685 C   0  0  0  0  0  0  0  0  0  0  0  0
    2.2222   -7.1803    1.8863 C   0  0  0  0  0  0  0  0  0  0  0  0
    3.6056   -6.4652    1.8387 C   0  0  2  0  0  0  0  0  0  0  0  0
    4.4418   -7.1161    0.6969 C   0  0  0  0  0  0  0  0  0  0  0  0
    4.2581   -6.7127    3.2613 C   0  0  1  0  0  0  0  0  0  0  0  0
    3.5430   -5.8172    4.3234 C   0  0  0  0  0  0  0  0  0  0  0  0
    3.5844   -4.3382    3.9799 C   0  0  0  0  0  0  0  0  0  0  0  0
    2.8676   -4.0588    2.6592 C   0  0  1  0  0  0  0  0  0  0  0  0
    2.8598   -2.5618    2.3614 C   0  0  0  0  0  0  0  0  0  0  0  0
    1.8103   -1.7376    2.4659 C   0  0  0  0  0  0  0  0  0  0  0  0
    2.1004   -0.3584    1.9355 C   0  0  1  0  0  0  0  0  0  0  0  0
    2.2697    0.5481    3.0047 O   0  0  0  0  0  0  0  0  0  0  0  0
    3.3884   -0.6250    1.1242 C   0  0  1  0  0  0  0  0  0  0  0  0
    4.2041    0.4998    0.8777 O   0  0  0  0  0  0  0  0  0  0  0  0
    4.0764   -1.8613    1.7727 C   0  0  1  0  0  0  0  0  0  0  0  0
    5.0485   -1.4371    2.8941 C   0  0  0  0  0  0  0  0  0  0  0  0
    4.7872   -2.7537    0.7330 C   0  0  0  0  0  0  0  0  0  0  0  0
    4.8549   -4.2479    1.1246 C   0  0  0  0  0  0  0  0  0  0  0  0
    3.4691   -4.8952    1.4840 C   0  0  1  0  0  0  0  0  0  0  0  0
    2.5170   -4.7073    0.2670 C   0  0  0  0  0  0  0  0  0  0  0  0
    0.6608  -10.4046    4.3264 H   0  0  0  0  0  0  0  0  0  0  0  0
    1.3635  -12.0167    4.3444 H   0  0  0  0  0  0  0  0  0  0  0  0
    1.2734  -11.1463    2.8390 H   0  0  0  0  0  0  0  0  0  0  0  0
    2.5789   -9.8378    6.2940 H   0  0  0  0  0  0  0  0  0  0  0  0
    4.1433  -10.6007    5.9864 H   0  0  0  0  0  0  0  0  0  0  0  0
    2.7167  -11.5647    6.0402 H   0  0  0  0  0  0  0  0  0  0  0  0
    5.7732  -10.7145    4.3860 H   0  0  0  0  0  0  0  0  0  0  0  0
    6.3307   -8.7079    2.9706 H   0  0  0  0  0  0  0  0  0  0  0  0
    5.0261   -9.1893    1.9205 H   0  0  0  0  0  0  0  0  0  0  0  0
    4.2108   -7.9689    5.9766 H   0  0  0  0  0  0  0  0  0  0  0  0
    5.7145   -7.3660    5.2711 H   0  0  0  0  0  0  0  0  0  0  0  0
    5.5026   -9.0510    5.5108 H   0  0  0  0  0  0  0  0  0  0  0  0
    2.2873   -8.3499    4.4812 H   0  0  0  0  0  0  0  0  0  0  0  0
    2.7153   -9.2833    1.6183 H   0  0  0  0  0  0  0  0  0  0  0  0
    1.2107   -8.9572    2.3949 H   0  0  0  0  0  0  0  0  0  0  0  0
    1.7631   -7.1916    0.8977 H   0  0  0  0  0  0  0  0  0  0  0  0
    1.5347   -6.6323    2.5280 H   0  0  0  0  0  0  0  0  0  0  0  0
    5.5029   -7.1448    0.9437 H   0  0  0  0  0  0  0  0  0  0  0  0
    4.3675   -6.6019   -0.2572 H   0  0  0  0  0  0  0  0  0  0  0  0
    4.1182   -8.1216    0.4434 H   0  0  0  0  0  0  0  0  0  0  0  0
    5.2877   -6.3584    3.2018 H   0  0  0  0  0  0  0  0  0  0  0  0
    2.5026   -6.1166    4.4606 H   0  0  0  0  0  0  0  0  0  0  0  0
    3.9981   -5.8871    5.3106 H   0  0  0  0  0  0  0  0  0  0  0  0
    3.1204   -3.7642    4.7839 H   0  0  0  0  0  0  0  0  0  0  0  0
    4.6282   -4.0349    3.9467 H   0  0  0  0  0  0  0  0  0  0  0  0
    1.8194   -4.3342    2.7978 H   0  0  0  0  0  0  0  0  0  0  0  0
    0.8327   -2.0079    2.8351 H   0  0  0  0  0  0  0  0  0  0  0  0
    1.2954   -0.0044    1.2888 H   0  0  0  0  0  0  0  0  0  0  0  0
    2.3497    1.4193    2.6317 H   0  0  0  0  0  0  0  0  0  0  0  0
    3.0295   -0.9192    0.1400 H   0  0  0  0  0  0  0  0  0  0  0  0
    4.6729    0.3774    0.0684 H   0  0  0  0  0  0  0  0  0  0  0  0
    5.7927   -0.7286    2.5283 H   0  0  0  0  0  0  0  0  0  0  0  0
    5.6031   -2.2782    3.3069 H   0  0  0  0  0  0  0  0  0  0  0  0
    4.5136   -0.9559    3.7147 H   0  0  0  0  0  0  0  0  0  0  0  0
    4.3021   -2.6674   -0.2374 H   0  0  0  0  0  0  0  0  0  0  0  0
    5.7958   -2.3751    0.5689 H   0  0  0  0  0  0  0  0  0  0  0  0
    5.3358   -4.7560    0.2917 H   0  0  0  0  0  0  0  0  0  0  0  0
    5.5447   -4.3601    1.9562 H   0  0  0  0  0  0  0  0  0  0  0  0
    2.3818   -3.6642   -0.0083 H   0  0  0  0  0  0  0  0  0  0  0  0
    1.5161   -5.0747    0.4772 H   0  0  0  0  0  0  0  0  0  0  0  0
    2.8634   -5.2049   -0.6317 H   0  0  0  0  0  0  0  0  0  0  0  0
  1  2  1  0
  1 33  1  0
  1 34  1  0
  1 35  1  0
  2 12  1  0
  2  3  1  0
  2  4  1  0
  3 36  1  0
  3 37  1  0
  3 38  1  0
  4  5  2  0
  4  6  1  0
  6  7  1  0
  6  9  1  0
  6 39  1  1
  7  8  3  0
  9 10  1  0
  9 40  1  0
  9 41  1  0
 10 17  1  0
 10 11  1  1
 10 12  1  0
 11 42  1  0
 11 43  1  0
 11 44  1  0
 12 13  1  0
 12 45  1  1
 13 14  1  0
 13 46  1  0
 13 47  1  0
 14 15  1  0
 14 48  1  0
 14 49  1  0
 15 31  1  0
 15 16  1  6
 15 17  1  0
 16 50  1  0
 16 51  1  0
 16 52  1  0
 17 18  1  0
 17 53  1  6
 18 19  1  0
 18 54  1  0
 18 55  1  0
 19 20  1  0
 19 56  1  0
 19 57  1  0
 20 31  1  0
 20 21  1  0
 20 58  1  1
 21 27  1  0
 21 22  2  0
 22 23  1  0
 22 59  1  0
 23 24  1  0
 23 25  1  0
 23 60  1  6
 24 61  1  0
 25 26  1  0
 25 27  1  0
 25 62  1  6
 26 63  1  0
 27 28  1  1
 27 29  1  0
 28 64  1  0
 28 65  1  0
 28 66  1  0
 29 30  1  0
 29 67  1  0
 29 68  1  0
 30 31  1  0
 30 69  1  0
 30 70  1  0
 31 32  1  6
 32 71  1  0
 32 72  1  0
 32 73  1  0
M  END
>  <i_m_ct_stereo_status>  (102) 
1

>  <s_m_source_file>  (102) 
/var/tmp/pbs.5076255.sched01/tmpx9mnojvb/44r91_cmns.sdf

>  <i_m_source_file_index>  (102) 
13

>  <i_lp_mmshare_version>  (102) 
48012

>  <i_f3d_flags>  (102) 
0

>  <s_epik_input>  (102) 
TiNDW0NAQEhdKFtDSDJdMSlDKD1PKUMoW0NIM10pKFtDSDNdKVtDQEBIXShbQ0BAXTEyW0NIM10pW0NIMl1bQ0gyXVtDQF0zKFtDSDNdKVtDQEhdMltDSDJdW0NIMl1bQ0BIXTRDPTVbQ0BdKFtDSDNdKShbQ0BIXShbT0hdKVtDQEBIXShbQ0hdNSlbT0hdKVtDSDJdW0NIMl1bQ0BAXTM0W0NIM10=

>  <s_epik_cmdline>  (102) 
J2VwaWtfcHl0aG9uJywgJy1waHQnLCAnMi4wJywgJy1waCcsICc3LjAnLCAnLXRuJywgJzgnLCAnLW1hJywgJzIwMCcsICctaW1hZScsICc8aW5maWxlLm1hZT4nLCAnLW9tYWUnLCAnPG91dGZpbGUubWFlPic=

>  <r_lp_tautomer_probability>  (102) 
1

>  <r_epik_Ionization_Penalty>  (102) 
2.36445e-07

>  <r_epik_Ionization_Penalty_Charging>  (102) 
0

>  <r_epik_Ionization_Penalty_Neutral>  (102) 
2.36445e-07

>  <r_epik_State_Penalty>  (102) 
-0

>  <r_epik_Charging_Adjusted_Penalty>  (102) 
0

>  <i_epik_Tot_Q>  (102) 
0

>  <i_epik_Tot_abs_Q>  (102) 
0

>  <s_lp_Force_Field>  (102) 
OPLS3e

>  <r_lp_Energy>  (102) 
79.1949

>  <b_lp_Chiralities_Consistent>  (102) 
1

>  <s_lp_Variant>  (102) 
26:0-1

>  <s_i_glide_gridfile>  (102) 
pfpi4k_grid

>  <i_i_glide_lignum>  (102) 
13

>  <i_i_glide_rotatable_bonds>  (102) 
3

>  <r_i_docking_score>  (102) 
-2.86922

>  <r_i_glide_ligand_efficiency>  (102) 
-0.0896631

>  <r_i_glide_ligand_efficiency_sa>  (102) 
-0.284663

>  <r_i_glide_ligand_efficiency_ln>  (102) 
-0.642497

>  <r_i_glide_gscore>  (102) 
-2.86922

>  <r_i_glide_lipo>  (102) 
-0.401097

>  <r_i_glide_hbond>  (102) 
0

>  <r_i_glide_metal>  (102) 
-0

>  <r_i_glide_rewards>  (102) 
-0.411613

>  <r_i_glide_evdw>  (102) 
-27.9935

>  <r_i_glide_ecoul>  (102) 
-3.76485

>  <r_i_glide_erotb>  (102) 
0

>  <r_i_glide_esite>  (102) 
-0.0921103

>  <r_i_glide_emodel>  (102) 
-36.5833

>  <r_i_glide_energy>  (102) 
-31.7583

>  <r_i_glide_einternal>  (102) 
1.63287

>  <r_i_glide_intrahb_reward>  (102) 
-0

>  <i_i_glide_confnum>  (102) 
2

>  <i_i_glide_posenum>  (102) 
23

>  <r_i_glide_eff_state_penalty>  (102) 
0

>  <ligand_id>  (102) 
26

>  <original_smiles>  (102) 
CC1(C)C(=O)C(C#N)CC2(C)C1CCC1(C)C2CCC2C3=CC(O)C(O)C3(C)CCC21C

>  <smiles>  (102) 
[H]OC1([H])C([H])=C2C3([H])C([H])([H])C([H])([H])C4([H])C5(C([H])([H])[H])C([H])([H])C([H])(C#N)C(=O)C(C([H])([H])[H])(C([H])([H])[H])C5([H])C([H])([H])C([H])([H])C4(C([H])([H])[H])C3(C([H])([H])[H])C([H])([H])C([H])([H])C2(C([H])([H])[H])C1([H])O[H]

$$$$
26:0:1
     RDKit          3D

 73 77  0  0  1  0  0  0  0  0999 V2000
   -1.0251   -4.7176    7.0018 C   0  0  0  0  0  0  0  0  0  0  0  0
    0.4118   -4.2131    7.2980 C   0  0  0  0  0  0  0  0  0  0  0  0
    0.2241   -2.9123    8.1191 C   0  0  0  0  0  0  0  0  0  0  0  0
    1.1508   -5.2456    8.1747 C   0  0  0  0  0  0  0  0  0  0  0  0
    0.5494   -6.1664    8.7293 O   0  0  0  0  0  0  0  0  0  0  0  0
    2.6534   -5.0284    8.3718 C   0  0  1  0  0  0  0  0  0  0  0  0
    3.2760   -6.1263    9.1298 C   0  0  0  0  0  0  0  0  0  0  0  0
    3.7757   -6.9836    9.7240 N   0  0  0  0  0  0  0  0  0  0  0  0
    3.3641   -4.8052    7.0162 C   0  0  0  0  0  0  0  0  0  0  0  0
    2.7523   -3.6769    6.1274 C   0  0  2  0  0  0  0  0  0  0  0  0
    3.0416   -2.3549    6.9032 C   0  0  0  0  0  0  0  0  0  0  0  0
    1.2133   -3.9645    5.9525 C   0  0  1  0  0  0  0  0  0  0  0  0
    1.0166   -5.1221    4.9280 C   0  0  0  0  0  0  0  0  0  0  0  0
    1.7348   -4.9476    3.5723 C   0  0  0  0  0  0  0  0  0  0  0  0
    3.2707   -4.7039    3.6584 C   0  0  2  0  0  0  0  0  0  0  0  0
    3.9392   -6.0228    4.1612 C   0  0  0  0  0  0  0  0  0  0  0  0
    3.4478   -3.5183    4.6975 C   0  0  1  0  0  0  0  0  0  0  0  0
    3.0100   -2.1734    4.0281 C   0  0  0  0  0  0  0  0  0  0  0  0
    3.7747   -1.8691    2.7514 C   0  0  0  0  0  0  0  0  0  0  0  0
    3.5311   -2.9482    1.6927 C   0  0  1  0  0  0  0  0  0  0  0  0
    4.2469   -2.5975    0.3866 C   0  0  0  0  0  0  0  0  0  0  0  0
    3.6727   -2.1610   -0.7428 C   0  0  0  0  0  0  0  0  0  0  0  0
    4.6488   -2.0589   -1.8870 C   0  0  1  0  0  0  0  0  0  0  0  0
    5.0093   -0.7085   -2.1073 O   0  0  0  0  0  0  0  0  0  0  0  0
    5.8259   -2.9026   -1.3470 C   0  0  1  0  0  0  0  0  0  0  0  0
    7.0949   -2.6315   -1.9218 O   0  0  0  0  0  0  0  0  0  0  0  0
    5.7383   -2.8362    0.2096 C   0  0  1  0  0  0  0  0  0  0  0  0
    6.5521   -1.6424    0.7625 C   0  0  0  0  0  0  0  0  0  0  0  0
    6.1722   -4.1597    0.8825 C   0  0  0  0  0  0  0  0  0  0  0  0
    5.4840   -4.4336    2.2408 C   0  0  0  0  0  0  0  0  0  0  0  0
    3.9142   -4.3734    2.2123 C   0  0  1  0  0  0  0  0  0  0  0  0
    3.3977   -5.3943    1.1470 C   0  0  0  0  0  0  0  0  0  0  0  0
   -1.5162   -4.0578    6.2874 H   0  0  0  0  0  0  0  0  0  0  0  0
   -1.6494   -4.7522    7.8976 H   0  0  0  0  0  0  0  0  0  0  0  0
   -1.0293   -5.7329    6.5978 H   0  0  0  0  0  0  0  0  0  0  0  0
    0.0084   -2.0575    7.4759 H   0  0  0  0  0  0  0  0  0  0  0  0
    1.0878   -2.6598    8.7281 H   0  0  0  0  0  0  0  0  0  0  0  0
   -0.5945   -3.0055    8.8320 H   0  0  0  0  0  0  0  0  0  0  0  0
    2.7713   -4.1669    9.0234 H   0  0  0  0  0  0  0  0  0  0  0  0
    4.4302   -4.6314    7.1789 H   0  0  0  0  0  0  0  0  0  0  0  0
    3.2877   -5.7720    6.5414 H   0  0  0  0  0  0  0  0  0  0  0  0
    2.3142   -1.5751    6.6708 H   0  0  0  0  0  0  0  0  0  0  0  0
    4.0337   -1.9686    6.6608 H   0  0  0  0  0  0  0  0  0  0  0  0
    3.0592   -2.4541    7.9844 H   0  0  0  0  0  0  0  0  0  0  0  0
    0.7624   -3.0845    5.4915 H   0  0  0  0  0  0  0  0  0  0  0  0
    1.2917   -6.0744    5.3780 H   0  0  0  0  0  0  0  0  0  0  0  0
   -0.0368   -5.2227    4.6787 H   0  0  0  0  0  0  0  0  0  0  0  0
    1.5286   -5.8443    2.9883 H   0  0  0  0  0  0  0  0  0  0  0  0
    1.2531   -4.1306    3.0383 H   0  0  0  0  0  0  0  0  0  0  0  0
    4.8033   -5.8201    4.7946 H   0  0  0  0  0  0  0  0  0  0  0  0
    4.2986   -6.6681    3.3652 H   0  0  0  0  0  0  0  0  0  0  0  0
    3.2605   -6.6779    4.7006 H   0  0  0  0  0  0  0  0  0  0  0  0
    4.5173   -3.4268    4.8907 H   0  0  0  0  0  0  0  0  0  0  0  0
    1.9418   -2.1661    3.8076 H   0  0  0  0  0  0  0  0  0  0  0  0
    3.1786   -1.3097    4.6680 H   0  0  0  0  0  0  0  0  0  0  0  0
    3.4675   -0.8959    2.3654 H   0  0  0  0  0  0  0  0  0  0  0  0
    4.8254   -1.7757    3.0101 H   0  0  0  0  0  0  0  0  0  0  0  0
    2.4646   -2.9297    1.4629 H   0  0  0  0  0  0  0  0  0  0  0  0
    2.6239   -1.9453   -0.8625 H   0  0  0  0  0  0  0  0  0  0  0  0
    4.2303   -2.4815   -2.8017 H   0  0  0  0  0  0  0  0  0  0  0  0
    4.2202   -0.2113   -2.2656 H   0  0  0  0  0  0  0  0  0  0  0  0
    5.5896   -3.9259   -1.6392 H   0  0  0  0  0  0  0  0  0  0  0  0
    7.1447   -3.0173   -2.7839 H   0  0  0  0  0  0  0  0  0  0  0  0
    7.5900   -1.6858    0.4347 H   0  0  0  0  0  0  0  0  0  0  0  0
    6.5804   -1.6263    1.8491 H   0  0  0  0  0  0  0  0  0  0  0  0
    6.1380   -0.6910    0.4271 H   0  0  0  0  0  0  0  0  0  0  0  0
    5.9815   -5.0050    0.2233 H   0  0  0  0  0  0  0  0  0  0  0  0
    7.2547   -4.1583    1.0114 H   0  0  0  0  0  0  0  0  0  0  0  0
    5.8533   -5.3996    2.5759 H   0  0  0  0  0  0  0  0  0  0  0  0
    5.8615   -3.7237    2.9713 H   0  0  0  0  0  0  0  0  0  0  0  0
    3.8178   -5.2216    0.1586 H   0  0  0  0  0  0  0  0  0  0  0  0
    2.3205   -5.3256    1.0030 H   0  0  0  0  0  0  0  0  0  0  0  0
    3.6324   -6.4282    1.3920 H   0  0  0  0  0  0  0  0  0  0  0  0
  1  2  1  0
  1 33  1  0
  1 34  1  0
  1 35  1  0
  2 12  1  0
  2  3  1  0
  2  4  1  0
  3 36  1  0
  3 37  1  0
  3 38  1  0
  4  5  2  0
  4  6  1  0
  6  7  1  0
  6  9  1  0
  6 39  1  1
  7  8  3  0
  9 10  1  0
  9 40  1  0
  9 41  1  0
 10 17  1  0
 10 11  1  1
 10 12  1  0
 11 42  1  0
 11 43  1  0
 11 44  1  0
 12 13  1  0
 12 45  1  6
 13 14  1  0
 13 46  1  0
 13 47  1  0
 14 15  1  0
 14 48  1  0
 14 49  1  0
 15 31  1  0
 15 16  1  1
 15 17  1  0
 16 50  1  0
 16 51  1  0
 16 52  1  0
 17 18  1  0
 17 53  1  1
 18 19  1  0
 18 54  1  0
 18 55  1  0
 19 20  1  0
 19 56  1  0
 19 57  1  0
 20 31  1  0
 20 21  1  0
 20 58  1  6
 21 27  1  0
 21 22  2  0
 22 23  1  0
 22 59  1  0
 23 24  1  0
 23 25  1  0
 23 60  1  6
 24 61  1  0
 25 26  1  0
 25 27  1  0
 25 62  1  1
 26 63  1  0
 27 28  1  1
 27 29  1  0
 28 64  1  0
 28 65  1  0
 28 66  1  0
 29 30  1  0
 29 67  1  0
 29 68  1  0
 30 31  1  0
 30 69  1  0
 30 70  1  0
 31 32  1  6
 32 71  1  0
 32 72  1  0
 32 73  1  0
M  END
>  <i_m_ct_stereo_status>  (103) 
1

>  <s_m_source_file>  (103) 
/var/tmp/pbs.5076255.sched01/tmpx9mnojvb/44r91_cmns.sdf

>  <i_m_source_file_index>  (103) 
13

>  <i_lp_mmshare_version>  (103) 
48012

>  <i_f3d_flags>  (103) 
0

>  <s_epik_input>  (103) 
TiNDW0NAQEhdKFtDSDJdMSlDKD1PKUMoW0NIM10pKFtDSDNdKVtDQEBIXShbQ0BAXTEyW0NIM10pW0NIMl1bQ0gyXVtDQF0zKFtDSDNdKVtDQEhdMltDSDJdW0NIMl1bQ0BIXTRDPTVbQ0BdKFtDSDNdKShbQ0BIXShbT0hdKVtDQEBIXShbQ0hdNSlbT0hdKVtDSDJdW0NIMl1bQ0BAXTM0W0NIM10=

>  <s_epik_cmdline>  (103) 
J2VwaWtfcHl0aG9uJywgJy1waHQnLCAnMi4wJywgJy1waCcsICc3LjAnLCAnLXRuJywgJzgnLCAnLW1hJywgJzIwMCcsICctaW1hZScsICc8aW5maWxlLm1hZT4nLCAnLW9tYWUnLCAnPG91dGZpbGUubWFlPic=

>  <r_lp_tautomer_probability>  (103) 
1

>  <r_epik_Ionization_Penalty>  (103) 
2.36445e-07

>  <r_epik_Ionization_Penalty_Charging>  (103) 
0

>  <r_epik_Ionization_Penalty_Neutral>  (103) 
2.36445e-07

>  <r_epik_State_Penalty>  (103) 
-0

>  <r_epik_Charging_Adjusted_Penalty>  (103) 
0

>  <i_epik_Tot_Q>  (103) 
0

>  <i_epik_Tot_abs_Q>  (103) 
0

>  <s_lp_Force_Field>  (103) 
OPLS3e

>  <r_lp_Energy>  (103) 
79.1949

>  <b_lp_Chiralities_Consistent>  (103) 
1

>  <s_lp_Variant>  (103) 
26:0-1

>  <s_i_glide_gridfile>  (103) 
pfpi4k_grid

>  <i_i_glide_lignum>  (103) 
13

>  <i_i_glide_rotatable_bonds>  (103) 
3

>  <r_i_docking_score>  (103) 
-2.77601

>  <r_i_glide_ligand_efficiency>  (103) 
-0.0867503

>  <r_i_glide_ligand_efficiency_sa>  (103) 
-0.275415

>  <r_i_glide_ligand_efficiency_ln>  (103) 
-0.621625

>  <r_i_glide_gscore>  (103) 
-2.77601

>  <r_i_glide_lipo>  (103) 
-0.245988

>  <r_i_glide_hbond>  (103) 
0

>  <r_i_glide_metal>  (103) 
-0

>  <r_i_glide_rewards>  (103) 
-0.411613

>  <r_i_glide_evdw>  (103) 
-26.0639

>  <r_i_glide_ecoul>  (103) 
-5.43476

>  <r_i_glide_erotb>  (103) 
0

>  <r_i_glide_esite>  (103) 
0

>  <r_i_glide_emodel>  (103) 
-36.4243

>  <r_i_glide_energy>  (103) 
-31.4987

>  <r_i_glide_einternal>  (103) 
1.28028

>  <r_i_glide_intrahb_reward>  (103) 
-0

>  <i_i_glide_confnum>  (103) 
1

>  <i_i_glide_posenum>  (103) 
33

>  <r_i_glide_eff_state_penalty>  (103) 
0

>  <ligand_id>  (103) 
26

>  <original_smiles>  (103) 
CC1(C)C(=O)C(C#N)CC2(C)C1CCC1(C)C2CCC2C3=CC(O)C(O)C3(C)CCC21C

>  <smiles>  (103) 
[H]OC1([H])C([H])=C2C3([H])C([H])([H])C([H])([H])C4([H])C5(C([H])([H])[H])C([H])([H])C([H])(C#N)C(=O)C(C([H])([H])[H])(C([H])([H])[H])C5([H])C([H])([H])C([H])([H])C4(C([H])([H])[H])C3(C([H])([H])[H])C([H])([H])C([H])([H])C2(C([H])([H])[H])C1([H])O[H]

$$$$
26:0:2
     RDKit          3D

 73 77  0  0  1  0  0  0  0  0999 V2000
   -0.6823   -5.0301    6.9649 C   0  0  0  0  0  0  0  0  0  0  0  0
    0.6249   -4.1893    6.9910 C   0  0  0  0  0  0  0  0  0  0  0  0
    0.2221   -2.8255    7.6071 C   0  0  0  0  0  0  0  0  0  0  0  0
    1.6556   -4.8599    7.9232 C   0  0  0  0  0  0  0  0  0  0  0  0
    1.3307   -5.7687    8.6916 O   0  0  0  0  0  0  0  0  0  0  0  0
    3.0827   -4.3098    7.8941 C   0  0  1  0  0  0  0  0  0  0  0  0
    4.0014   -5.0972    8.7377 C   0  0  0  0  0  0  0  0  0  0  0  0
    4.7298   -5.7075    9.3957 N   0  0  0  0  0  0  0  0  0  0  0  0
    3.6050   -4.2025    6.4418 C   0  0  0  0  0  0  0  0  0  0  0  0
    2.6777   -3.4110    5.4653 C   0  0  2  0  0  0  0  0  0  0  0  0
    2.7305   -1.9377    5.9729 C   0  0  0  0  0  0  0  0  0  0  0  0
    1.2322   -4.0345    5.5344 C   0  0  1  0  0  0  0  0  0  0  0  0
    1.2130   -5.3807    4.7483 C   0  0  0  0  0  0  0  0  0  0  0  0
    1.7544   -5.3204    3.3037 C   0  0  0  0  0  0  0  0  0  0  0  0
    3.1977   -4.7535    3.1566 C   0  0  2  0  0  0  0  0  0  0  0  0
    4.1844   -5.7909    3.7793 C   0  0  0  0  0  0  0  0  0  0  0  0
    3.1932   -3.3843    3.9547 C   0  0  1  0  0  0  0  0  0  0  0  0
    2.4085   -2.3083    3.1341 C   0  0  0  0  0  0  0  0  0  0  0  0
    2.9735   -2.0975    1.7396 C   0  0  0  0  0  0  0  0  0  0  0  0
    2.8937   -3.3850    0.9142 C   0  0  1  0  0  0  0  0  0  0  0  0
    3.3867   -3.1498   -0.5131 C   0  0  0  0  0  0  0  0  0  0  0  0
    2.6365   -3.0573   -1.6160 C   0  0  0  0  0  0  0  0  0  0  0  0
    3.4558   -2.9690   -2.8770 C   0  0  1  0  0  0  0  0  0  0  0  0
    3.4940   -1.6370   -3.3474 O   0  0  0  0  0  0  0  0  0  0  0  0
    4.8266   -3.4489   -2.3527 C   0  0  1  0  0  0  0  0  0  0  0  0
    5.9340   -3.0534   -3.1140 O   0  0  0  0  0  0  0  0  0  0  0  0
    4.8713   -3.1067   -0.8328 C   0  0  1  0  0  0  0  0  0  0  0  0
    5.4394   -1.6871   -0.5895 C   0  0  0  0  0  0  0  0  0  0  0  0
    5.6504   -4.1587   -0.0123 C   0  0  0  0  0  0  0  0  0  0  0  0
    5.1684   -4.3065    1.4495 C   0  0  0  0  0  0  0  0  0  0  0  0
    3.6265   -4.5748    1.6104 C   0  0  1  0  0  0  0  0  0  0  0  0
    3.2577   -5.8588    0.7992 C   0  0  0  0  0  0  0  0  0  0  0  0
   -1.3777   -4.6548    6.2137 H   0  0  0  0  0  0  0  0  0  0  0  0
   -1.2007   -5.0156    7.9269 H   0  0  0  0  0  0  0  0  0  0  0  0
   -0.4865   -6.0827    6.7485 H   0  0  0  0  0  0  0  0  0  0  0  0
   -0.2314   -2.1670    6.8646 H   0  0  0  0  0  0  0  0  0  0  0  0
    1.0575   -2.2942    8.0557 H   0  0  0  0  0  0  0  0  0  0  0  0
   -0.4962   -2.9521    8.4185 H   0  0  0  0  0  0  0  0  0  0  0  0
    3.0618   -3.3373    8.3794 H   0  0  0  0  0  0  0  0  0  0  0  0
    4.6159   -3.7859    6.4399 H   0  0  0  0  0  0  0  0  0  0  0  0
    3.7032   -5.2374    6.1476 H   0  0  0  0  0  0  0  0  0  0  0  0
    1.8292   -1.3813    5.7082 H   0  0  0  0  0  0  0  0  0  0  0  0
    3.5869   -1.4113    5.5467 H   0  0  0  0  0  0  0  0  0  0  0  0
    2.8640   -1.8296    7.0454 H   0  0  0  0  0  0  0  0  0  0  0  0
    0.5548   -3.3694    4.9971 H   0  0  0  0  0  0  0  0  0  0  0  0
    1.7331   -6.1552    5.3116 H   0  0  0  0  0  0  0  0  0  0  0  0
    0.1904   -5.7409    4.6530 H   0  0  0  0  0  0  0  0  0  0  0  0
    1.7030   -6.3347    2.9064 H   0  0  0  0  0  0  0  0  0  0  0  0
    1.0565   -4.7329    2.7115 H   0  0  0  0  0  0  0  0  0  0  0  0
    5.0340   -5.3000    4.2559 H   0  0  0  0  0  0  0  0  0  0  0  0
    4.6068   -6.4863    3.0588 H   0  0  0  0  0  0  0  0  0  0  0  0
    3.7182   -6.4578    4.4995 H   0  0  0  0  0  0  0  0  0  0  0  0
    4.2272   -3.0420    3.9963 H   0  0  0  0  0  0  0  0  0  0  0  0
    1.3515   -2.5625    3.0497 H   0  0  0  0  0  0  0  0  0  0  0  0
    2.4347   -1.3237    3.5979 H   0  0  0  0  0  0  0  0  0  0  0  0
    2.4181   -1.3007    1.2382 H   0  0  0  0  0  0  0  0  0  0  0  0
    3.9945   -1.7399    1.8451 H   0  0  0  0  0  0  0  0  0  0  0  0
    1.8371   -3.6299    0.8146 H   0  0  0  0  0  0  0  0  0  0  0  0
    1.5582   -3.0882   -1.6447 H   0  0  0  0  0  0  0  0  0  0  0  0
    3.0645   -3.6302   -3.6546 H   0  0  0  0  0  0  0  0  0  0  0  0
    2.6171   -1.2783   -3.2927 H   0  0  0  0  0  0  0  0  0  0  0  0
    4.7984   -4.5360   -2.4443 H   0  0  0  0  0  0  0  0  0  0  0  0
    6.6962   -3.5164   -2.8140 H   0  0  0  0  0  0  0  0  0  0  0  0
    6.4256   -1.5833   -1.0388 H   0  0  0  0  0  0  0  0  0  0  0  0
    5.5593   -1.4594    0.4681 H   0  0  0  0  0  0  0  0  0  0  0  0
    4.7937   -0.9222   -1.0250 H   0  0  0  0  0  0  0  0  0  0  0  0
    5.5892   -5.1333   -0.4933 H   0  0  0  0  0  0  0  0  0  0  0  0
    6.7124   -3.9132   -0.0251 H   0  0  0  0  0  0  0  0  0  0  0  0
    5.7688   -5.1011    1.8878 H   0  0  0  0  0  0  0  0  0  0  0  0
    5.4489   -3.4098    1.9983 H   0  0  0  0  0  0  0  0  0  0  0  0
    3.5405   -5.7901   -0.2495 H   0  0  0  0  0  0  0  0  0  0  0  0
    2.1831   -6.0410    0.7807 H   0  0  0  0  0  0  0  0  0  0  0  0
    3.7377   -6.7597    1.1767 H   0  0  0  0  0  0  0  0  0  0  0  0
  1  2  1  0
  1 33  1  0
  1 34  1  0
  1 35  1  0
  2 12  1  0
  2  3  1  0
  2  4  1  0
  3 36  1  0
  3 37  1  0
  3 38  1  0
  4  5  2  0
  4  6  1  0
  6  7  1  0
  6  9  1  0
  6 39  1  1
  7  8  3  0
  9 10  1  0
  9 40  1  0
  9 41  1  0
 10 17  1  0
 10 11  1  1
 10 12  1  0
 11 42  1  0
 11 43  1  0
 11 44  1  0
 12 13  1  0
 12 45  1  6
 13 14  1  0
 13 46  1  0
 13 47  1  0
 14 15  1  0
 14 48  1  0
 14 49  1  0
 15 31  1  0
 15 16  1  1
 15 17  1  0
 16 50  1  0
 16 51  1  0
 16 52  1  0
 17 18  1  0
 17 53  1  1
 18 19  1  0
 18 54  1  0
 18 55  1  0
 19 20  1  0
 19 56  1  0
 19 57  1  0
 20 31  1  0
 20 21  1  0
 20 58  1  6
 21 27  1  0
 21 22  2  0
 22 23  1  0
 22 59  1  0
 23 24  1  0
 23 25  1  0
 23 60  1  6
 24 61  1  0
 25 26  1  0
 25 27  1  0
 25 62  1  1
 26 63  1  0
 27 28  1  6
 27 29  1  0
 28 64  1  0
 28 65  1  0
 28 66  1  0
 29 30  1  0
 29 67  1  0
 29 68  1  0
 30 31  1  0
 30 69  1  0
 30 70  1  0
 31 32  1  6
 32 71  1  0
 32 72  1  0
 32 73  1  0
M  END
>  <i_m_ct_stereo_status>  (104) 
1

>  <s_m_source_file>  (104) 
/var/tmp/pbs.5076255.sched01/tmpx9mnojvb/44r91_cmns.sdf

>  <i_m_source_file_index>  (104) 
13

>  <i_lp_mmshare_version>  (104) 
48012

>  <i_f3d_flags>  (104) 
0

>  <s_epik_input>  (104) 
TiNDW0NAQEhdKFtDSDJdMSlDKD1PKUMoW0NIM10pKFtDSDNdKVtDQEBIXShbQ0BAXTEyW0NIM10pW0NIMl1bQ0gyXVtDQF0zKFtDSDNdKVtDQEhdMltDSDJdW0NIMl1bQ0BIXTRDPTVbQ0BdKFtDSDNdKShbQ0BIXShbT0hdKVtDQEBIXShbQ0hdNSlbT0hdKVtDSDJdW0NIMl1bQ0BAXTM0W0NIM10=

>  <s_epik_cmdline>  (104) 
J2VwaWtfcHl0aG9uJywgJy1waHQnLCAnMi4wJywgJy1waCcsICc3LjAnLCAnLXRuJywgJzgnLCAnLW1hJywgJzIwMCcsICctaW1hZScsICc8aW5maWxlLm1hZT4nLCAnLW9tYWUnLCAnPG91dGZpbGUubWFlPic=

>  <r_lp_tautomer_probability>  (104) 
1

>  <r_epik_Ionization_Penalty>  (104) 
2.36445e-07

>  <r_epik_Ionization_Penalty_Charging>  (104) 
0

>  <r_epik_Ionization_Penalty_Neutral>  (104) 
2.36445e-07

>  <r_epik_State_Penalty>  (104) 
-0

>  <r_epik_Charging_Adjusted_Penalty>  (104) 
0

>  <i_epik_Tot_Q>  (104) 
0

>  <i_epik_Tot_abs_Q>  (104) 
0

>  <s_lp_Force_Field>  (104) 
OPLS3e

>  <r_lp_Energy>  (104) 
79.1949

>  <b_lp_Chiralities_Consistent>  (104) 
1

>  <s_lp_Variant>  (104) 
26:0-1

>  <s_i_glide_gridfile>  (104) 
pfpi4k_grid

>  <i_i_glide_lignum>  (104) 
13

>  <i_i_glide_rotatable_bonds>  (104) 
3

>  <r_i_docking_score>  (104) 
-2.67594

>  <r_i_glide_ligand_efficiency>  (104) 
-0.0836231

>  <r_i_glide_ligand_efficiency_sa>  (104) 
-0.265487

>  <r_i_glide_ligand_efficiency_ln>  (104) 
-0.599216

>  <r_i_glide_gscore>  (104) 
-2.67594

>  <r_i_glide_lipo>  (104) 
-0.272871

>  <r_i_glide_hbond>  (104) 
0

>  <r_i_glide_metal>  (104) 
-0

>  <r_i_glide_rewards>  (104) 
-0.411613

>  <r_i_glide_evdw>  (104) 
-28.4703

>  <r_i_glide_ecoul>  (104) 
-3.78627

>  <r_i_glide_erotb>  (104) 
0

>  <r_i_glide_esite>  (104) 
0

>  <r_i_glide_emodel>  (104) 
-36.9124

>  <r_i_glide_energy>  (104) 
-32.2566

>  <r_i_glide_einternal>  (104) 
1.32127

>  <r_i_glide_intrahb_reward>  (104) 
-0

>  <i_i_glide_confnum>  (104) 
1

>  <i_i_glide_posenum>  (104) 
12

>  <r_i_glide_eff_state_penalty>  (104) 
0

>  <ligand_id>  (104) 
26

>  <original_smiles>  (104) 
CC1(C)C(=O)C(C#N)CC2(C)C1CCC1(C)C2CCC2C3=CC(O)C(O)C3(C)CCC21C

>  <smiles>  (104) 
[H]OC1([H])C([H])=C2C3([H])C([H])([H])C([H])([H])C4([H])C5(C([H])([H])[H])C([H])([H])C([H])(C#N)C(=O)C(C([H])([H])[H])(C([H])([H])[H])C5([H])C([H])([H])C([H])([H])C4(C([H])([H])[H])C3(C([H])([H])[H])C([H])([H])C([H])([H])C2(C([H])([H])[H])C1([H])O[H]

$$$$
27:0:0
     RDKit          3D

 30 32  0  0  1  0  0  0  0  0999 V2000
    4.2160   -0.1563   -4.2570 O   0  0  0  0  0  0  0  0  0  0  0  0
    3.7810   -1.0812   -3.5741 C   0  0  0  0  0  0  0  0  0  0  0  0
    2.7388   -1.8548   -3.9496 N   0  0  0  0  0  0  0  0  0  0  0  0
    2.2609   -2.9575   -3.1964 C   0  0  0  0  0  0  0  0  0  0  0  0
    2.7521   -3.3520   -2.0559 N   0  0  0  0  0  0  0  0  0  0  0  0
    3.8236   -2.5744   -1.6564 C   0  0  0  0  0  0  0  0  0  0  0  0
    4.3747   -1.5020   -2.2831 C   0  0  0  0  0  0  0  0  0  0  0  0
    5.4452   -0.9972   -1.5554 N   0  0  0  0  0  0  0  0  0  0  0  0
    5.4776   -1.7973   -0.4847 C   0  0  0  0  0  0  0  0  0  0  0  0
    4.5611   -2.7635   -0.4812 N   0  0  0  0  0  0  0  0  0  0  0  0
    4.3729   -3.8112    0.5589 C   0  0  2  0  0  0  0  0  0  0  0  0
    4.7430   -5.1902    0.0165 C   0  0  0  0  0  0  0  0  0  0  0  0
    3.8421   -6.0728    0.8466 C   0  0  1  0  0  0  0  0  0  0  0  0
    4.4946   -6.3935    2.0580 O   0  0  0  0  0  0  0  0  0  0  0  0
    2.5876   -5.1894    1.0269 C   0  0  1  0  0  0  0  0  0  0  0  0
    1.7681   -5.4132    2.3170 C   0  0  0  0  0  0  0  0  0  0  0  0
    1.1324   -6.6744    2.2400 O   0  0  0  0  0  0  0  0  0  0  0  0
    3.0277   -3.8399    0.9279 O   0  0  0  0  0  0  0  0  0  0  0  0
    2.2779   -1.6476   -4.8356 H   0  0  0  0  0  0  0  0  0  0  0  0
    1.4246   -3.4408   -3.6793 H   0  0  0  0  0  0  0  0  0  0  0  0
    6.2125   -1.6519    0.3066 H   0  0  0  0  0  0  0  0  0  0  0  0
    4.9803   -3.4932    1.4091 H   0  0  0  0  0  0  0  0  0  0  0  0
    4.4760   -5.2614   -1.0374 H   0  0  0  0  0  0  0  0  0  0  0  0
    5.8050   -5.3940    0.1378 H   0  0  0  0  0  0  0  0  0  0  0  0
    3.6056   -7.0119    0.3481 H   0  0  0  0  0  0  0  0  0  0  0  0
    3.8615   -6.7654    2.6476 H   0  0  0  0  0  0  0  0  0  0  0  0
    1.9516   -5.3211    0.1484 H   0  0  0  0  0  0  0  0  0  0  0  0
    2.3845   -5.3323    3.2105 H   0  0  0  0  0  0  0  0  0  0  0  0
    1.0050   -4.6488    2.4504 H   0  0  0  0  0  0  0  0  0  0  0  0
    1.7872   -7.3506    2.1379 H   0  0  0  0  0  0  0  0  0  0  0  0
  1  2  2  0
  2  7  1  0
  2  3  1  0
  3 19  1  0
  3  4  1  0
  4  5  2  0
  4 20  1  0
  5  6  1  0
  6 10  1  0
  6  7  2  0
  7  8  1  0
  8  9  2  0
  9 10  1  0
  9 21  1  0
 10 11  1  0
 11 18  1  0
 11 12  1  0
 11 22  1  1
 12 13  1  0
 12 23  1  0
 12 24  1  0
 13 14  1  0
 13 15  1  0
 13 25  1  6
 14 26  1  0
 15 16  1  0
 15 18  1  0
 15 27  1  6
 16 17  1  0
 16 28  1  0
 16 29  1  0
 17 30  1  0
M  END
>  <i_m_ct_stereo_status>  (105) 
1

>  <s_m_source_file>  (105) 
/var/tmp/pbs.5076255.sched01/tmpx9mnojvb/44r91_cmns.sdf

>  <i_m_source_file_index>  (105) 
14

>  <i_lp_mmshare_version>  (105) 
48012

>  <i_f3d_flags>  (105) 
0

>  <s_epik_input>  (105) 
bjFbY0hdW25IXWMoPU8pYyhjMTIpbltjSF1uMltDQEBIXTNbQ0gyXVtDQEBIXShbT0hdKVtDQEhdKE8zKVtDSDJdW09IXQ==

>  <s_epik_cmdline>  (105) 
J2VwaWtfcHl0aG9uJywgJy1waHQnLCAnMi4wJywgJy1waCcsICc3LjAnLCAnLXRuJywgJzgnLCAnLW1hJywgJzIwMCcsICctaW1hZScsICc8aW5maWxlLm1hZT4nLCAnLW9tYWUnLCAnPG91dGZpbGUubWFlPic=

>  <r_lp_tautomer_probability>  (105) 
0.85571

>  <r_epik_Ionization_Penalty>  (105) 
0.00806703

>  <r_epik_Ionization_Penalty_Charging>  (105) 
0.00799906

>  <r_epik_Ionization_Penalty_Neutral>  (105) 
6.797e-05

>  <r_epik_State_Penalty>  (105) 
0.0826172

>  <r_epik_Charging_Adjusted_Penalty>  (105) 
0.0906163

>  <i_epik_Tot_Q>  (105) 
0

>  <i_epik_Tot_abs_Q>  (105) 
0

>  <s_epik_Chemistry_Notes>  (105) 
This compound contains an acetal/aminal-like group ( X-CH(R)-Y where X, Y are N, S, or O) that may be acid/base labile, releasing an aldehyde.

>  <s_lp_Force_Field>  (105) 
OPLS3e

>  <r_lp_Energy>  (105) 
18.8944

>  <b_lp_Chiralities_Consistent>  (105) 
1

>  <s_lp_Variant>  (105) 
27:0-1

>  <s_i_glide_gridfile>  (105) 
pfpi4k_grid

>  <i_i_glide_lignum>  (105) 
14

>  <i_i_glide_rotatable_bonds>  (105) 
4

>  <r_i_docking_score>  (105) 
-3.85628

>  <r_i_glide_ligand_efficiency>  (105) 
-0.214238

>  <r_i_glide_ligand_efficiency_sa>  (105) 
-0.561462

>  <r_i_glide_ligand_efficiency_ln>  (105) 
-0.991238

>  <r_i_glide_gscore>  (105) 
-3.85628

>  <r_i_glide_lipo>  (105) 
-0.291549

>  <r_i_glide_hbond>  (105) 
-0.333771

>  <r_i_glide_metal>  (105) 
-0

>  <r_i_glide_rewards>  (105) 
-1.96278

>  <r_i_glide_evdw>  (105) 
-22.2301

>  <r_i_glide_ecoul>  (105) 
-4.33677

>  <r_i_glide_erotb>  (105) 
0.551547

>  <r_i_glide_esite>  (105) 
-0.0577159

>  <r_i_glide_emodel>  (105) 
-33.218

>  <r_i_glide_energy>  (105) 
-26.5669

>  <r_i_glide_einternal>  (105) 
1.49264

>  <r_i_glide_intrahb_reward>  (105) 
-0

>  <i_i_glide_confnum>  (105) 
4

>  <i_i_glide_posenum>  (105) 
5

>  <r_i_glide_eff_state_penalty>  (105) 
0

>  <ligand_id>  (105) 
27

>  <original_smiles>  (105) 
O=c1[nH]cnc2c1ncn2C1CC(O)C(CO)O1

>  <smiles>  (105) 
[H]OC([H])([H])C1([H])OC([H])(n2c([H])nc3c(=O)n([H])c([H])nc32)C([H])([H])C1([H])O[H]

$$$$
27:0:1
     RDKit          3D

 30 32  0  0  1  0  0  0  0  0999 V2000
    2.1063   -4.2005    4.5962 O   0  0  0  0  0  0  0  0  0  0  0  0
    2.2425   -4.6131    3.4482 C   0  0  0  0  0  0  0  0  0  0  0  0
    2.0577   -5.9088    3.0919 N   0  0  0  0  0  0  0  0  0  0  0  0
    2.1967   -6.3940    1.7717 C   0  0  0  0  0  0  0  0  0  0  0  0
    2.4994   -5.6587    0.7347 N   0  0  0  0  0  0  0  0  0  0  0  0
    2.7146   -4.3324    1.0676 C   0  0  0  0  0  0  0  0  0  0  0  0
    2.6179   -3.7487    2.3032 C   0  0  0  0  0  0  0  0  0  0  0  0
    2.9038   -2.3899    2.2486 N   0  0  0  0  0  0  0  0  0  0  0  0
    3.1695   -2.2024    0.9560 C   0  0  0  0  0  0  0  0  0  0  0  0
    3.0848   -3.3070    0.1916 N   0  0  0  0  0  0  0  0  0  0  0  0
    3.3465   -3.3979   -1.2731 C   0  0  2  0  0  0  0  0  0  0  0  0
    4.7679   -3.8950   -1.5338 C   0  0  0  0  0  0  0  0  0  0  0  0
    5.0795   -3.2077   -2.8434 C   0  0  1  0  0  0  0  0  0  0  0  0
    4.5448   -3.9589   -3.9156 O   0  0  0  0  0  0  0  0  0  0  0  0
    4.3668   -1.8552   -2.6760 C   0  0  1  0  0  0  0  0  0  0  0  0
    3.8830   -1.2296   -3.9924 C   0  0  0  0  0  0  0  0  0  0  0  0
    3.8064    0.1731   -3.9125 O   0  0  0  0  0  0  0  0  0  0  0  0
    3.2581   -2.1181   -1.8230 O   0  0  0  0  0  0  0  0  0  0  0  0
    1.8186   -6.5575    3.8262 H   0  0  0  0  0  0  0  0  0  0  0  0
    2.0194   -7.4674    1.6903 H   0  0  0  0  0  0  0  0  0  0  0  0
    3.4403   -1.2352    0.5543 H   0  0  0  0  0  0  0  0  0  0  0  0
    2.5550   -4.0324   -1.6691 H   0  0  0  0  0  0  0  0  0  0  0  0
    5.4277   -3.5346   -0.7443 H   0  0  0  0  0  0  0  0  0  0  0  0
    4.8152   -4.9834   -1.5727 H   0  0  0  0  0  0  0  0  0  0  0  0
    6.1496   -3.0722   -3.0084 H   0  0  0  0  0  0  0  0  0  0  0  0
    3.7524   -4.3777   -3.5937 H   0  0  0  0  0  0  0  0  0  0  0  0
    5.0340   -1.1747   -2.1409 H   0  0  0  0  0  0  0  0  0  0  0  0
    4.6061   -1.4378   -4.7765 H   0  0  0  0  0  0  0  0  0  0  0  0
    2.9258   -1.6560   -4.2938 H   0  0  0  0  0  0  0  0  0  0  0  0
    3.1048    0.4144   -3.3199 H   0  0  0  0  0  0  0  0  0  0  0  0
  1  2  2  0
  2  7  1  0
  2  3  1  0
  3 19  1  0
  3  4  1  0
  4  5  2  0
  4 20  1  0
  5  6  1  0
  6 10  1  0
  6  7  2  0
  7  8  1  0
  8  9  2  0
  9 10  1  0
  9 21  1  0
 10 11  1  0
 11 18  1  0
 11 12  1  0
 11 22  1  6
 12 13  1  0
 12 23  1  0
 12 24  1  0
 13 14  1  0
 13 15  1  0
 13 25  1  6
 14 26  1  0
 15 16  1  0
 15 18  1  0
 15 27  1  1
 16 17  1  0
 16 28  1  0
 16 29  1  0
 17 30  1  0
M  END
>  <i_m_ct_stereo_status>  (106) 
1

>  <s_m_source_file>  (106) 
/var/tmp/pbs.5076255.sched01/tmpx9mnojvb/44r91_cmns.sdf

>  <i_m_source_file_index>  (106) 
14

>  <i_lp_mmshare_version>  (106) 
48012

>  <i_f3d_flags>  (106) 
0

>  <s_epik_input>  (106) 
bjFbY0hdW25IXWMoPU8pYyhjMTIpbltjSF1uMltDQEBIXTNbQ0gyXVtDQEBIXShbT0hdKVtDQEhdKE8zKVtDSDJdW09IXQ==

>  <s_epik_cmdline>  (106) 
J2VwaWtfcHl0aG9uJywgJy1waHQnLCAnMi4wJywgJy1waCcsICc3LjAnLCAnLXRuJywgJzgnLCAnLW1hJywgJzIwMCcsICctaW1hZScsICc8aW5maWxlLm1hZT4nLCAnLW9tYWUnLCAnPG91dGZpbGUubWFlPic=

>  <r_lp_tautomer_probability>  (106) 
0.85571

>  <r_epik_Ionization_Penalty>  (106) 
0.00806703

>  <r_epik_Ionization_Penalty_Charging>  (106) 
0.00799906

>  <r_epik_Ionization_Penalty_Neutral>  (106) 
6.797e-05

>  <r_epik_State_Penalty>  (106) 
0.0826172

>  <r_epik_Charging_Adjusted_Penalty>  (106) 
0.0906163

>  <i_epik_Tot_Q>  (106) 
0

>  <i_epik_Tot_abs_Q>  (106) 
0

>  <s_epik_Chemistry_Notes>  (106) 
This compound contains an acetal/aminal-like group ( X-CH(R)-Y where X, Y are N, S, or O) that may be acid/base labile, releasing an aldehyde.

>  <s_lp_Force_Field>  (106) 
OPLS3e

>  <r_lp_Energy>  (106) 
18.8944

>  <b_lp_Chiralities_Consistent>  (106) 
1

>  <s_lp_Variant>  (106) 
27:0-1

>  <s_i_glide_gridfile>  (106) 
pfpi4k_grid

>  <i_i_glide_lignum>  (106) 
14

>  <i_i_glide_rotatable_bonds>  (106) 
4

>  <r_i_docking_score>  (106) 
-3.4145

>  <r_i_glide_ligand_efficiency>  (106) 
-0.189694

>  <r_i_glide_ligand_efficiency_sa>  (106) 
-0.49714

>  <r_i_glide_ligand_efficiency_ln>  (106) 
-0.87768

>  <r_i_glide_gscore>  (106) 
-3.4145

>  <r_i_glide_lipo>  (106) 
-0.296332

>  <r_i_glide_hbond>  (106) 
0

>  <r_i_glide_metal>  (106) 
-0

>  <r_i_glide_rewards>  (106) 
-1.78808

>  <r_i_glide_evdw>  (106) 
-23.3322

>  <r_i_glide_ecoul>  (106) 
-4.21069

>  <r_i_glide_erotb>  (106) 
0.551547

>  <r_i_glide_esite>  (106) 
-0.0834246

>  <r_i_glide_emodel>  (106) 
-33.3256

>  <r_i_glide_energy>  (106) 
-27.5429

>  <r_i_glide_einternal>  (106) 
1.43032

>  <r_i_glide_intrahb_reward>  (106) 
-0

>  <i_i_glide_confnum>  (106) 
3

>  <i_i_glide_posenum>  (106) 
28

>  <r_i_glide_eff_state_penalty>  (106) 
0

>  <ligand_id>  (106) 
27

>  <original_smiles>  (106) 
O=c1[nH]cnc2c1ncn2C1CC(O)C(CO)O1

>  <smiles>  (106) 
[H]OC([H])([H])C1([H])OC([H])(n2c([H])nc3c(=O)n([H])c([H])nc32)C([H])([H])C1([H])O[H]

$$$$
27:0:2
     RDKit          3D

 30 32  0  0  1  0  0  0  0  0999 V2000
    2.5604   -7.2312    4.0567 O   0  0  0  0  0  0  0  0  0  0  0  0
    3.0957   -6.8893    3.0047 C   0  0  0  0  0  0  0  0  0  0  0  0
    3.6135   -7.7598    2.1030 N   0  0  0  0  0  0  0  0  0  0  0  0
    4.2271   -7.3761    0.8888 C   0  0  0  0  0  0  0  0  0  0  0  0
    4.3775   -6.1429    0.4922 N   0  0  0  0  0  0  0  0  0  0  0  0
    3.8509   -5.2240    1.3810 C   0  0  0  0  0  0  0  0  0  0  0  0
    3.2392   -5.4757    2.5828 C   0  0  0  0  0  0  0  0  0  0  0  0
    2.8643   -4.3014    3.2192 N   0  0  0  0  0  0  0  0  0  0  0  0
    3.2675   -3.3656    2.3596 C   0  0  0  0  0  0  0  0  0  0  0  0
    3.8246   -3.8317    1.2239 N   0  0  0  0  0  0  0  0  0  0  0  0
    4.3589   -3.0146    0.0899 C   0  0  2  0  0  0  0  0  0  0  0  0
    3.6354   -1.6710    0.0002 C   0  0  0  0  0  0  0  0  0  0  0  0
    3.7403   -1.3741   -1.4681 C   0  0  1  0  0  0  0  0  0  0  0  0
    4.9991   -0.7722   -1.7282 O   0  0  0  0  0  0  0  0  0  0  0  0
    3.6049   -2.7813   -2.0837 C   0  0  1  0  0  0  0  0  0  0  0  0
    4.3125   -2.9601   -3.4352 C   0  0  0  0  0  0  0  0  0  0  0  0
    3.8139   -2.0111   -4.3503 O   0  0  0  0  0  0  0  0  0  0  0  0
    4.1080   -3.6874   -1.1061 O   0  0  0  0  0  0  0  0  0  0  0  0
    3.5567   -8.7412    2.3175 H   0  0  0  0  0  0  0  0  0  0  0  0
    4.5777   -8.2207    0.2945 H   0  0  0  0  0  0  0  0  0  0  0  0
    3.1433   -2.3094    2.5698 H   0  0  0  0  0  0  0  0  0  0  0  0
    5.4308   -2.9363    0.2668 H   0  0  0  0  0  0  0  0  0  0  0  0
    2.5934   -1.8107    0.2710 H   0  0  0  0  0  0  0  0  0  0  0  0
    4.0876   -0.9237    0.6484 H   0  0  0  0  0  0  0  0  0  0  0  0
    2.9380   -0.7238   -1.8198 H   0  0  0  0  0  0  0  0  0  0  0  0
    4.9658    0.1303   -1.4353 H   0  0  0  0  0  0  0  0  0  0  0  0
    2.5435   -3.0279   -2.1868 H   0  0  0  0  0  0  0  0  0  0  0  0
    5.3860   -2.8130   -3.3254 H   0  0  0  0  0  0  0  0  0  0  0  0
    4.1755   -3.9645   -3.8351 H   0  0  0  0  0  0  0  0  0  0  0  0
    2.8642   -2.0653   -4.3711 H   0  0  0  0  0  0  0  0  0  0  0  0
  1  2  2  0
  2  7  1  0
  2  3  1  0
  3 19  1  0
  3  4  1  0
  4  5  2  0
  4 20  1  0
  5  6  1  0
  6 10  1  0
  6  7  2  0
  7  8  1  0
  8  9  2  0
  9 10  1  0
  9 21  1  0
 10 11  1  0
 11 18  1  0
 11 12  1  0
 11 22  1  1
 12 13  1  0
 12 23  1  0
 12 24  1  0
 13 14  1  0
 13 15  1  0
 13 25  1  6
 14 26  1  0
 15 16  1  0
 15 18  1  0
 15 27  1  6
 16 17  1  0
 16 28  1  0
 16 29  1  0
 17 30  1  0
M  END
>  <i_m_ct_stereo_status>  (107) 
1

>  <s_m_source_file>  (107) 
/var/tmp/pbs.5076255.sched01/tmpx9mnojvb/44r91_cmns.sdf

>  <i_m_source_file_index>  (107) 
14

>  <i_lp_mmshare_version>  (107) 
48012

>  <i_f3d_flags>  (107) 
0

>  <s_epik_input>  (107) 
bjFbY0hdW25IXWMoPU8pYyhjMTIpbltjSF1uMltDQEBIXTNbQ0gyXVtDQEBIXShbT0hdKVtDQEhdKE8zKVtDSDJdW09IXQ==

>  <s_epik_cmdline>  (107) 
J2VwaWtfcHl0aG9uJywgJy1waHQnLCAnMi4wJywgJy1waCcsICc3LjAnLCAnLXRuJywgJzgnLCAnLW1hJywgJzIwMCcsICctaW1hZScsICc8aW5maWxlLm1hZT4nLCAnLW9tYWUnLCAnPG91dGZpbGUubWFlPic=

>  <r_lp_tautomer_probability>  (107) 
0.85571

>  <r_epik_Ionization_Penalty>  (107) 
0.00806703

>  <r_epik_Ionization_Penalty_Charging>  (107) 
0.00799906

>  <r_epik_Ionization_Penalty_Neutral>  (107) 
6.797e-05

>  <r_epik_State_Penalty>  (107) 
0.0826172

>  <r_epik_Charging_Adjusted_Penalty>  (107) 
0.0906163

>  <i_epik_Tot_Q>  (107) 
0

>  <i_epik_Tot_abs_Q>  (107) 
0

>  <s_epik_Chemistry_Notes>  (107) 
This compound contains an acetal/aminal-like group ( X-CH(R)-Y where X, Y are N, S, or O) that may be acid/base labile, releasing an aldehyde.

>  <s_lp_Force_Field>  (107) 
OPLS3e

>  <r_lp_Energy>  (107) 
18.8944

>  <b_lp_Chiralities_Consistent>  (107) 
1

>  <s_lp_Variant>  (107) 
27:0-1

>  <s_i_glide_gridfile>  (107) 
pfpi4k_grid

>  <i_i_glide_lignum>  (107) 
14

>  <i_i_glide_rotatable_bonds>  (107) 
4

>  <r_i_docking_score>  (107) 
-3.40492

>  <r_i_glide_ligand_efficiency>  (107) 
-0.189162

>  <r_i_glide_ligand_efficiency_sa>  (107) 
-0.495746

>  <r_i_glide_ligand_efficiency_ln>  (107) 
-0.875218

>  <r_i_glide_gscore>  (107) 
-3.40492

>  <r_i_glide_lipo>  (107) 
-0.167759

>  <r_i_glide_hbond>  (107) 
0

>  <r_i_glide_metal>  (107) 
-0

>  <r_i_glide_rewards>  (107) 
-1.91787

>  <r_i_glide_evdw>  (107) 
-18.9194

>  <r_i_glide_ecoul>  (107) 
-6.16563

>  <r_i_glide_erotb>  (107) 
0.551547

>  <r_i_glide_esite>  (107) 
-2.68243e-05

>  <r_i_glide_emodel>  (107) 
-30.5067

>  <r_i_glide_energy>  (107) 
-25.0851

>  <r_i_glide_einternal>  (107) 
2.08558

>  <r_i_glide_intrahb_reward>  (107) 
-0

>  <i_i_glide_confnum>  (107) 
6

>  <i_i_glide_posenum>  (107) 
32

>  <r_i_glide_eff_state_penalty>  (107) 
0

>  <ligand_id>  (107) 
27

>  <original_smiles>  (107) 
O=c1[nH]cnc2c1ncn2C1CC(O)C(CO)O1

>  <smiles>  (107) 
[H]OC([H])([H])C1([H])OC([H])(n2c([H])nc3c(=O)n([H])c([H])nc32)C([H])([H])C1([H])O[H]

$$$$
27:1:0
     RDKit          3D

 30 32  0  0  1  0  0  0  0  0999 V2000
   -2.1350   -1.0376    4.9388 O   0  0  0  0  0  0  0  0  0  0  0  0
   -1.7807    0.0500    5.3849 C   0  0  0  0  0  0  0  0  0  0  0  0
   -1.8371    0.5234    6.6929 N   0  0  0  0  0  0  0  0  0  0  0  0
   -1.3911    1.7946    7.0298 C   0  0  0  0  0  0  0  0  0  0  0  0
   -0.8860    2.6810    6.2343 N   0  0  0  0  0  0  0  0  0  0  0  0
   -0.8049    2.2773    4.9002 C   0  0  0  0  0  0  0  0  0  0  0  0
   -1.2002    1.0482    4.4342 C   0  0  0  0  0  0  0  0  0  0  0  0
   -0.9883    0.9198    3.0901 N   0  0  0  0  0  0  0  0  0  0  0  0
   -0.4798    2.1103    2.7927 C   0  0  0  0  0  0  0  0  0  0  0  0
   -0.3341    2.9848    3.8300 N   0  0  0  0  0  0  0  0  0  0  0  0
    0.2462    4.3571    3.7542 C   0  0  2  0  0  0  0  0  0  0  0  0
    1.7787    4.2875    3.7728 C   0  0  0  0  0  0  0  0  0  0  0  0
    2.1392    5.5729    4.4841 C   0  0  1  0  0  0  0  0  0  0  0  0
    2.1954    6.5827    3.5189 O   0  0  0  0  0  0  0  0  0  0  0  0
    0.9487    5.7530    5.4560 C   0  0  1  0  0  0  0  0  0  0  0  0
    0.5462    7.1600    6.0011 C   0  0  0  0  0  0  0  0  0  0  0  0
   -0.1448    7.9342    5.0442 O   0  0  0  0  0  0  0  0  0  0  0  0
   -0.1582    5.0829    4.8703 O   0  0  0  0  0  0  0  0  0  0  0  0
   -1.1811    0.1605    2.4544 H   0  0  0  0  0  0  0  0  0  0  0  0
   -1.5020    2.0346    8.0886 H   0  0  0  0  0  0  0  0  0  0  0  0
   -0.1973    2.3664    1.8082 H   0  0  0  0  0  0  0  0  0  0  0  0
   -0.1840    4.8517    2.8800 H   0  0  0  0  0  0  0  0  0  0  0  0
    2.0942    3.4294    4.3675 H   0  0  0  0  0  0  0  0  0  0  0  0
    2.1743    4.2169    2.7536 H   0  0  0  0  0  0  0  0  0  0  0  0
    3.0964    5.5229    5.0154 H   0  0  0  0  0  0  0  0  0  0  0  0
    1.3213    6.6882    3.1648 H   0  0  0  0  0  0  0  0  0  0  0  0
    1.2163    5.1084    6.3023 H   0  0  0  0  0  0  0  0  0  0  0  0
   -0.0400    7.0999    6.9271 H   0  0  0  0  0  0  0  0  0  0  0  0
    1.4602    7.6925    6.2328 H   0  0  0  0  0  0  0  0  0  0  0  0
    0.3561    7.9382    4.2319 H   0  0  0  0  0  0  0  0  0  0  0  0
  1  2  2  0
  2  7  1  0
  2  3  1  0
  3  4  1  0
  4 20  1  0
  4  5  2  0
  5  6  1  0
  6 10  1  0
  6  7  2  0
  7  8  1  0
  8  9  2  0
  8 19  1  0
  9 10  1  0
  9 21  1  0
 10 11  1  0
 11 18  1  0
 11 12  1  0
 11 22  1  6
 12 13  1  0
 12 23  1  0
 12 24  1  0
 13 14  1  0
 13 15  1  0
 13 25  1  1
 14 26  1  0
 15 16  1  0
 15 18  1  0
 15 27  1  1
 16 17  1  0
 16 28  1  0
 16 29  1  0
 17 30  1  0
M  CHG  2   3  -1   8   1
M  END
>  <i_m_ct_stereo_status>  (108) 
1

>  <s_m_source_file>  (108) 
/var/tmp/pbs.5076255.sched01/tmpx9mnojvb/44r91_cmns.sdf

>  <i_m_source_file_index>  (108) 
15

>  <i_lp_mmshare_version>  (108) 
48012

>  <i_f3d_flags>  (108) 
0

>  <s_epik_input>  (108) 
bjFbY0hdW25IXWMoPU8pYyhjMTIpbltjSF1uMltDQEBIXTNbQ0gyXVtDQEBIXShbT0hdKVtDQEhdKE8zKVtDSDJdW09IXQ==

>  <s_epik_cmdline>  (108) 
J2VwaWtfcHl0aG9uJywgJy1waHQnLCAnMi4wJywgJy1waCcsICc3LjAnLCAnLXRuJywgJzgnLCAnLW1hJywgJzIwMCcsICctaW1hZScsICc8aW5maWxlLm1hZT4nLCAnLW9tYWUnLCAnPG91dGZpbGUubWFlPic=

>  <r_lp_tautomer_probability>  (108) 
0.144281

>  <r_epik_Ionization_Penalty>  (108) 
5.64721

>  <r_epik_Ionization_Penalty_Charging>  (108) 
5.59752

>  <r_epik_Ionization_Penalty_Neutral>  (108) 
0.0496903

>  <r_epik_State_Penalty>  (108) 
1.20809

>  <r_epik_Charging_Adjusted_Penalty>  (108) 
6.80561

>  <i_epik_Tot_Q>  (108) 
0

>  <i_epik_Tot_abs_Q>  (108) 
2

>  <s_epik_Chemistry_Notes>  (108) 
This compound contains an acetal/aminal-like group ( X-CH(R)-Y where X, Y are N, S, or O) that may be acid/base labile, releasing an aldehyde.

>  <s_lp_Force_Field>  (108) 
OPLS3e

>  <r_lp_Energy>  (108) 
25.0829

>  <b_lp_Chiralities_Consistent>  (108) 
1

>  <s_lp_Variant>  (108) 
27:0-2

>  <s_i_glide_gridfile>  (108) 
pfpi4k_grid

>  <i_i_glide_lignum>  (108) 
15

>  <i_i_glide_rotatable_bonds>  (108) 
4

>  <r_i_docking_score>  (108) 
-4.95725

>  <r_i_glide_ligand_efficiency>  (108) 
-0.275403

>  <r_i_glide_ligand_efficiency_sa>  (108) 
-0.72176

>  <r_i_glide_ligand_efficiency_ln>  (108) 
-1.27424

>  <r_i_glide_gscore>  (108) 
-4.95725

>  <r_i_glide_lipo>  (108) 
0

>  <r_i_glide_hbond>  (108) 
-0.2

>  <r_i_glide_metal>  (108) 
-0

>  <r_i_glide_rewards>  (108) 
-1.98936

>  <r_i_glide_evdw>  (108) 
-13.4999

>  <r_i_glide_ecoul>  (108) 
-14.4578

>  <r_i_glide_erotb>  (108) 
0.386083

>  <r_i_glide_esite>  (108) 
-0.310305

>  <r_i_glide_emodel>  (108) 
-39.4601

>  <r_i_glide_energy>  (108) 
-27.9577

>  <r_i_glide_einternal>  (108) 
8.10338

>  <r_i_glide_intrahb_reward>  (108) 
-0

>  <i_i_glide_confnum>  (108) 
5

>  <i_i_glide_posenum>  (108) 
40

>  <r_i_glide_eff_state_penalty>  (108) 
0

>  <ligand_id>  (108) 
27

>  <original_smiles>  (108) 
O=c1[nH]cnc2c1ncn2C1CC(O)C(CO)O1

>  <smiles>  (108) 
[H]OC([H])([H])C1([H])OC([H])(n2c([H])[n+]([H])c3c(=O)[n-]c([H])nc32)C([H])([H])C1([H])O[H]

$$$$
27:1:1
     RDKit          3D

 30 32  0  0  1  0  0  0  0  0999 V2000
    4.1809    0.3642   -3.4254 O   0  0  0  0  0  0  0  0  0  0  0  0
    3.9105   -0.7870   -3.1424 C   0  0  0  0  0  0  0  0  0  0  0  0
    3.4599   -1.7730   -3.9887 N   0  0  0  0  0  0  0  0  0  0  0  0
    3.0745   -3.0182   -3.4948 C   0  0  0  0  0  0  0  0  0  0  0  0
    3.2056   -3.4455   -2.2903 N   0  0  0  0  0  0  0  0  0  0  0  0
    3.8140   -2.5605   -1.4118 C   0  0  0  0  0  0  0  0  0  0  0  0
    4.1598   -1.2821   -1.7598 C   0  0  0  0  0  0  0  0  0  0  0  0
    4.7357   -0.6604   -0.6812 N   0  0  0  0  0  0  0  0  0  0  0  0
    4.6869   -1.5825    0.2712 C   0  0  0  0  0  0  0  0  0  0  0  0
    4.1577   -2.7851   -0.1124 N   0  0  0  0  0  0  0  0  0  0  0  0
    3.9865   -4.0132    0.7149 C   0  0  2  0  0  0  0  0  0  0  0  0
    4.7892   -5.1593    0.0960 C   0  0  0  0  0  0  0  0  0  0  0  0
    3.9398   -6.3373    0.4699 C   0  0  1  0  0  0  0  0  0  0  0  0
    4.2708   -6.7543    1.7802 O   0  0  0  0  0  0  0  0  0  0  0  0
    2.5074   -5.7651    0.3798 C   0  0  1  0  0  0  0  0  0  0  0  0
    1.5033   -6.4262    1.3398 C   0  0  0  0  0  0  0  0  0  0  0  0
    0.1774   -6.2982    0.8797 O   0  0  0  0  0  0  0  0  0  0  0  0
    2.6418   -4.3770    0.6714 O   0  0  0  0  0  0  0  0  0  0  0  0
    5.0252    0.3061   -0.6142 H   0  0  0  0  0  0  0  0  0  0  0  0
    2.5997   -3.6555   -4.2529 H   0  0  0  0  0  0  0  0  0  0  0  0
    5.0219   -1.4025    1.2740 H   0  0  0  0  0  0  0  0  0  0  0  0
    4.2782   -3.7726    1.7409 H   0  0  0  0  0  0  0  0  0  0  0  0
    4.8207   -5.0793   -0.9904 H   0  0  0  0  0  0  0  0  0  0  0  0
    5.8117   -5.1899    0.4730 H   0  0  0  0  0  0  0  0  0  0  0  0
    4.1010   -7.1745   -0.2062 H   0  0  0  0  0  0  0  0  0  0  0  0
    3.6933   -7.4622    2.0237 H   0  0  0  0  0  0  0  0  0  0  0  0
    2.1484   -5.8286   -0.6486 H   0  0  0  0  0  0  0  0  0  0  0  0
    1.6993   -7.4963    1.3947 H   0  0  0  0  0  0  0  0  0  0  0  0
    1.6257   -6.0128    2.3414 H   0  0  0  0  0  0  0  0  0  0  0  0
   -0.0716   -7.1288    0.4945 H   0  0  0  0  0  0  0  0  0  0  0  0
  1  2  2  0
  2  7  1  0
  2  3  1  0
  3  4  1  0
  4 20  1  0
  4  5  2  0
  5  6  1  0
  6 10  1  0
  6  7  2  0
  7  8  1  0
  8  9  2  0
  8 19  1  0
  9 10  1  0
  9 21  1  0
 10 11  1  0
 11 18  1  0
 11 12  1  0
 11 22  1  1
 12 13  1  0
 12 23  1  0
 12 24  1  0
 13 14  1  0
 13 15  1  0
 13 25  1  6
 14 26  1  0
 15 16  1  0
 15 18  1  0
 15 27  1  6
 16 17  1  0
 16 28  1  0
 16 29  1  0
 17 30  1  0
M  CHG  2   3  -1   8   1
M  END
>  <i_m_ct_stereo_status>  (109) 
1

>  <s_m_source_file>  (109) 
/var/tmp/pbs.5076255.sched01/tmpx9mnojvb/44r91_cmns.sdf

>  <i_m_source_file_index>  (109) 
15

>  <i_lp_mmshare_version>  (109) 
48012

>  <i_f3d_flags>  (109) 
0

>  <s_epik_input>  (109) 
bjFbY0hdW25IXWMoPU8pYyhjMTIpbltjSF1uMltDQEBIXTNbQ0gyXVtDQEBIXShbT0hdKVtDQEhdKE8zKVtDSDJdW09IXQ==

>  <s_epik_cmdline>  (109) 
J2VwaWtfcHl0aG9uJywgJy1waHQnLCAnMi4wJywgJy1waCcsICc3LjAnLCAnLXRuJywgJzgnLCAnLW1hJywgJzIwMCcsICctaW1hZScsICc8aW5maWxlLm1hZT4nLCAnLW9tYWUnLCAnPG91dGZpbGUubWFlPic=

>  <r_lp_tautomer_probability>  (109) 
0.144281

>  <r_epik_Ionization_Penalty>  (109) 
5.64721

>  <r_epik_Ionization_Penalty_Charging>  (109) 
5.59752

>  <r_epik_Ionization_Penalty_Neutral>  (109) 
0.0496903

>  <r_epik_State_Penalty>  (109) 
1.20809

>  <r_epik_Charging_Adjusted_Penalty>  (109) 
6.80561

>  <i_epik_Tot_Q>  (109) 
0

>  <i_epik_Tot_abs_Q>  (109) 
2

>  <s_epik_Chemistry_Notes>  (109) 
This compound contains an acetal/aminal-like group ( X-CH(R)-Y where X, Y are N, S, or O) that may be acid/base labile, releasing an aldehyde.

>  <s_lp_Force_Field>  (109) 
OPLS3e

>  <r_lp_Energy>  (109) 
25.0829

>  <b_lp_Chiralities_Consistent>  (109) 
1

>  <s_lp_Variant>  (109) 
27:0-2

>  <s_i_glide_gridfile>  (109) 
pfpi4k_grid

>  <i_i_glide_lignum>  (109) 
15

>  <i_i_glide_rotatable_bonds>  (109) 
4

>  <r_i_docking_score>  (109) 
-4.14104

>  <r_i_glide_ligand_efficiency>  (109) 
-0.230058

>  <r_i_glide_ligand_efficiency_sa>  (109) 
-0.602922

>  <r_i_glide_ligand_efficiency_ln>  (109) 
-1.06443

>  <r_i_glide_gscore>  (109) 
-4.14104

>  <r_i_glide_lipo>  (109) 
-0.266071

>  <r_i_glide_hbond>  (109) 
-0.0275745

>  <r_i_glide_metal>  (109) 
-0

>  <r_i_glide_rewards>  (109) 
-1.97537

>  <r_i_glide_evdw>  (109) 
-19.3215

>  <r_i_glide_ecoul>  (109) 
-9.21304

>  <r_i_glide_erotb>  (109) 
0.551547

>  <r_i_glide_esite>  (109) 
-0.0755386

>  <r_i_glide_emodel>  (109) 
-40.8255

>  <r_i_glide_energy>  (109) 
-28.5346

>  <r_i_glide_einternal>  (109) 
1.67554

>  <r_i_glide_intrahb_reward>  (109) 
-0

>  <i_i_glide_confnum>  (109) 
2

>  <i_i_glide_posenum>  (109) 
28

>  <r_i_glide_eff_state_penalty>  (109) 
0

>  <ligand_id>  (109) 
27

>  <original_smiles>  (109) 
O=c1[nH]cnc2c1ncn2C1CC(O)C(CO)O1

>  <smiles>  (109) 
[H]OC([H])([H])C1([H])OC([H])(n2c([H])[n+]([H])c3c(=O)[n-]c([H])nc32)C([H])([H])C1([H])O[H]

$$$$
27:1:2
     RDKit          3D

 30 32  0  0  1  0  0  0  0  0999 V2000
    4.3881   -4.2216   -4.2722 O   0  0  0  0  0  0  0  0  0  0  0  0
    4.2179   -3.1358   -3.7197 C   0  0  0  0  0  0  0  0  0  0  0  0
    3.9508   -1.9299   -4.3146 N   0  0  0  0  0  0  0  0  0  0  0  0
    3.8158   -0.7740   -3.5592 C   0  0  0  0  0  0  0  0  0  0  0  0
    3.9670   -0.6578   -2.2933 N   0  0  0  0  0  0  0  0  0  0  0  0
    4.2209   -1.8414   -1.6036 C   0  0  0  0  0  0  0  0  0  0  0  0
    4.3541   -3.0488   -2.2317 C   0  0  0  0  0  0  0  0  0  0  0  0
    4.6414   -4.0241   -1.3227 N   0  0  0  0  0  0  0  0  0  0  0  0
    4.6528   -3.3561   -0.1720 C   0  0  0  0  0  0  0  0  0  0  0  0
    4.3699   -2.0204   -0.2596 N   0  0  0  0  0  0  0  0  0  0  0  0
    4.2949   -1.0148    0.8526 C   0  0  2  0  0  0  0  0  0  0  0  0
    4.2350   -1.6665    2.2364 C   0  0  0  0  0  0  0  0  0  0  0  0
    3.4278   -0.6590    3.0119 C   0  0  1  0  0  0  0  0  0  0  0  0
    4.2724    0.3888    3.4429 O   0  0  0  0  0  0  0  0  0  0  0  0
    2.4191   -0.1634    1.9621 C   0  0  1  0  0  0  0  0  0  0  0  0
    1.9498    1.2930    2.1796 C   0  0  0  0  0  0  0  0  0  0  0  0
    0.6563    1.5300    1.6778 O   0  0  0  0  0  0  0  0  0  0  0  0
    3.1164   -0.2866    0.7240 O   0  0  0  0  0  0  0  0  0  0  0  0
    4.7657   -5.0173   -1.4811 H   0  0  0  0  0  0  0  0  0  0  0  0
    3.5725    0.1061   -4.1597 H   0  0  0  0  0  0  0  0  0  0  0  0
    4.8631   -3.8464    0.7587 H   0  0  0  0  0  0  0  0  0  0  0  0
    5.1494   -0.3527    0.7114 H   0  0  0  0  0  0  0  0  0  0  0  0
    3.6465   -2.5820    2.2030 H   0  0  0  0  0  0  0  0  0  0  0  0
    5.2334   -1.8539    2.6376 H   0  0  0  0  0  0  0  0  0  0  0  0
    2.9213   -1.1103    3.8675 H   0  0  0  0  0  0  0  0  0  0  0  0
    4.2598    1.0604    2.7722 H   0  0  0  0  0  0  0  0  0  0  0  0
    1.5715   -0.8554    1.9194 H   0  0  0  0  0  0  0  0  0  0  0  0
    1.9007    1.5145    3.2440 H   0  0  0  0  0  0  0  0  0  0  0  0
    2.6630    1.9818    1.7327 H   0  0  0  0  0  0  0  0  0  0  0  0
    0.5601    2.4587    1.4855 H   0  0  0  0  0  0  0  0  0  0  0  0
  1  2  2  0
  2  7  1  0
  2  3  1  0
  3  4  1  0
  4 20  1  0
  4  5  2  0
  5  6  1  0
  6 10  1  0
  6  7  2  0
  7  8  1  0
  8  9  2  0
  8 19  1  0
  9 10  1  0
  9 21  1  0
 10 11  1  0
 11 18  1  0
 11 12  1  0
 11 22  1  1
 12 13  1  0
 12 23  1  0
 12 24  1  0
 13 14  1  0
 13 15  1  0
 13 25  1  1
 14 26  1  0
 15 16  1  0
 15 18  1  0
 15 27  1  6
 16 17  1  0
 16 28  1  0
 16 29  1  0
 17 30  1  0
M  CHG  2   3  -1   8   1
M  END
>  <i_m_ct_stereo_status>  (110) 
1

>  <s_m_source_file>  (110) 
/var/tmp/pbs.5076255.sched01/tmpx9mnojvb/44r91_cmns.sdf

>  <i_m_source_file_index>  (110) 
15

>  <i_lp_mmshare_version>  (110) 
48012

>  <i_f3d_flags>  (110) 
0

>  <s_epik_input>  (110) 
bjFbY0hdW25IXWMoPU8pYyhjMTIpbltjSF1uMltDQEBIXTNbQ0gyXVtDQEBIXShbT0hdKVtDQEhdKE8zKVtDSDJdW09IXQ==

>  <s_epik_cmdline>  (110) 
J2VwaWtfcHl0aG9uJywgJy1waHQnLCAnMi4wJywgJy1waCcsICc3LjAnLCAnLXRuJywgJzgnLCAnLW1hJywgJzIwMCcsICctaW1hZScsICc8aW5maWxlLm1hZT4nLCAnLW9tYWUnLCAnPG91dGZpbGUubWFlPic=

>  <r_lp_tautomer_probability>  (110) 
0.144281

>  <r_epik_Ionization_Penalty>  (110) 
5.64721

>  <r_epik_Ionization_Penalty_Charging>  (110) 
5.59752

>  <r_epik_Ionization_Penalty_Neutral>  (110) 
0.0496903

>  <r_epik_State_Penalty>  (110) 
1.20809

>  <r_epik_Charging_Adjusted_Penalty>  (110) 
6.80561

>  <i_epik_Tot_Q>  (110) 
0

>  <i_epik_Tot_abs_Q>  (110) 
2

>  <s_epik_Chemistry_Notes>  (110) 
This compound contains an acetal/aminal-like group ( X-CH(R)-Y where X, Y are N, S, or O) that may be acid/base labile, releasing an aldehyde.

>  <s_lp_Force_Field>  (110) 
OPLS3e

>  <r_lp_Energy>  (110) 
25.0829

>  <b_lp_Chiralities_Consistent>  (110) 
1

>  <s_lp_Variant>  (110) 
27:0-2

>  <s_i_glide_gridfile>  (110) 
pfpi4k_grid

>  <i_i_glide_lignum>  (110) 
15

>  <i_i_glide_rotatable_bonds>  (110) 
4

>  <r_i_docking_score>  (110) 
-4.01657

>  <r_i_glide_ligand_efficiency>  (110) 
-0.223143

>  <r_i_glide_ligand_efficiency_sa>  (110) 
-0.5848

>  <r_i_glide_ligand_efficiency_ln>  (110) 
-1.03244

>  <r_i_glide_gscore>  (110) 
-4.01657

>  <r_i_glide_lipo>  (110) 
-0.183873

>  <r_i_glide_hbond>  (110) 
-0.155652

>  <r_i_glide_metal>  (110) 
-0

>  <r_i_glide_rewards>  (110) 
-2.10022

>  <r_i_glide_evdw>  (110) 
-22.8234

>  <r_i_glide_ecoul>  (110) 
-6.05276

>  <r_i_glide_erotb>  (110) 
0.551547

>  <r_i_glide_esite>  (110) 
-0.0792874

>  <r_i_glide_emodel>  (110) 
-39.623

>  <r_i_glide_energy>  (110) 
-28.8761

>  <r_i_glide_einternal>  (110) 
3.56181

>  <r_i_glide_intrahb_reward>  (110) 
-0

>  <i_i_glide_confnum>  (110) 
3

>  <i_i_glide_posenum>  (110) 
5

>  <r_i_glide_eff_state_penalty>  (110) 
0

>  <ligand_id>  (110) 
27

>  <original_smiles>  (110) 
O=c1[nH]cnc2c1ncn2C1CC(O)C(CO)O1

>  <smiles>  (110) 
[H]OC([H])([H])C1([H])OC([H])(n2c([H])[n+]([H])c3c(=O)[n-]c([H])nc32)C([H])([H])C1([H])O[H]

$$$$
28:0:0
     RDKit          3D

 33 37  0  0  1  0  0  0  0  0999 V2000
    2.9124   -5.9037    1.4538 C   0  0  0  0  0  0  0  0  0  0  0  0
    3.8210   -4.7575    1.1662 N   0  0  1  0  0  0  0  0  0  0  0  0
    4.9436   -5.1561    0.2724 C   0  0  0  0  0  0  0  0  0  0  0  0
    5.8402   -3.9552   -0.0059 C   0  0  0  0  0  0  0  0  0  0  0  0
    4.9838   -2.7259   -0.2562 C   0  0  2  0  0  0  0  0  0  0  0  0
    4.3743   -2.5795   -1.5657 C   0  0  0  0  0  0  0  0  0  0  0  0
    3.1598   -3.1633   -1.9419 C   0  0  0  0  0  0  0  0  0  0  0  0
    2.5509   -2.6973   -3.1192 C   0  0  0  0  0  0  0  0  0  0  0  0
    3.1369   -1.6142   -3.8038 C   0  0  0  0  0  0  0  0  0  0  0  0
    4.2139   -0.9076   -3.2170 C   0  0  0  0  0  0  0  0  0  0  0  0
    4.7868   -1.3600   -2.0106 C   0  0  0  0  0  0  0  0  0  0  0  0
    5.3823   -0.6645   -1.0073 O   0  0  0  0  0  0  0  0  0  0  0  0
    5.3453   -1.4518    0.2100 C   0  0  1  0  0  0  0  0  0  0  0  0
    4.0504   -2.2323    0.8047 C   0  0  2  0  0  0  0  0  0  0  0  0
    4.4465   -2.2548    2.1588 O   0  0  0  0  0  0  0  0  0  0  0  0
    3.1208   -3.5073    0.6762 C   0  0  1  0  0  0  0  0  0  0  0  0
    2.4719   -3.7779   -0.7316 C   0  0  0  0  0  0  0  0  0  0  0  0
    2.5097   -6.3653    0.5512 H   0  0  0  0  0  0  0  0  0  0  0  0
    2.0696   -5.6141    2.0848 H   0  0  0  0  0  0  0  0  0  0  0  0
    3.4527   -6.6936    1.9790 H   0  0  0  0  0  0  0  0  0  0  0  0
    5.5130   -5.9565    0.7461 H   0  0  0  0  0  0  0  0  0  0  0  0
    4.5763   -5.5594   -0.6698 H   0  0  0  0  0  0  0  0  0  0  0  0
    6.4249   -3.7724    0.8948 H   0  0  0  0  0  0  0  0  0  0  0  0
    6.5494   -4.1410   -0.8143 H   0  0  0  0  0  0  0  0  0  0  0  0
    1.5679   -3.0640   -3.4335 H   0  0  0  0  0  0  0  0  0  0  0  0
    2.6632   -1.2262   -4.6951 H   0  0  0  0  0  0  0  0  0  0  0  0
    4.5175    0.0293   -3.6394 H   0  0  0  0  0  0  0  0  0  0  0  0
    6.2766   -1.4226    0.7716 H   0  0  0  0  0  0  0  0  0  0  0  0
    3.7229   -1.9150    2.6640 H   0  0  0  0  0  0  0  0  0  0  0  0
    2.3107   -3.3436    1.3890 H   0  0  0  0  0  0  0  0  0  0  0  0
    1.4458   -3.4041   -0.7154 H   0  0  0  0  0  0  0  0  0  0  0  0
    2.3774   -4.8386   -0.9235 H   0  0  0  0  0  0  0  0  0  0  0  0
    4.2312   -4.4966    2.0521 H   0  0  0  0  0  0  0  0  0  0  0  0
  1  2  1  0
  1 18  1  0
  1 19  1  0
  1 20  1  0
  2 16  1  0
  2  3  1  0
  2 33  1  1
  3  4  1  0
  3 21  1  0
  3 22  1  0
  5  4  1  1
  4 23  1  0
  4 24  1  0
  5 13  1  0
  5 14  1  0
  5  6  1  0
  6 11  2  0
  6  7  1  0
  7 17  1  0
  7  8  2  0
  8  9  1  0
  8 25  1  0
  9 10  2  0
  9 26  1  0
 10 11  1  0
 10 27  1  0
 11 12  1  0
 12 13  1  0
 13 14  1  0
 13 28  1  1
 14 15  1  1
 14 16  1  0
 15 29  1  0
 16 17  1  0
 16 30  1  1
 17 31  1  0
 17 32  1  0
M  CHG  1   2   1
M  END
>  <i_m_ct_stereo_status>  (111) 
1

>  <s_m_source_file>  (111) 
/var/tmp/pbs.5076255.sched01/tmpx9mnojvb/44r91_cmns.sdf

>  <i_m_source_file_index>  (111) 
16

>  <i_lp_mmshare_version>  (111) 
48012

>  <i_f3d_flags>  (111) 
0

>  <s_epik_input>  (111) 
W0NIMl0xW0NIMl1OKFtDSDNdKVtDQEhdKFtDSDJdMilDMyhbT0hdKVtDQEBIXTRPYzVbY0hdW2NIXVtjSF1jMmM1W0NAXTEzNA==

>  <s_epik_cmdline>  (111) 
J2VwaWtfcHl0aG9uJywgJy1waHQnLCAnMi4wJywgJy1waCcsICc3LjAnLCAnLXRuJywgJzgnLCAnLW1hJywgJzIwMCcsICctaW1hZScsICc8aW5maWxlLm1hZT4nLCAnLW9tYWUnLCAnPG91dGZpbGUubWFlPic=

>  <r_lp_tautomer_probability>  (111) 
1

>  <r_epik_Ionization_Penalty>  (111) 
0.11094

>  <r_epik_Ionization_Penalty_Charging>  (111) 
0.110938

>  <r_epik_Ionization_Penalty_Neutral>  (111) 
1.82343e-06

>  <r_epik_State_Penalty>  (111) 
0.100674

>  <r_epik_Charging_Adjusted_Penalty>  (111) 
0.211612

>  <i_epik_Tot_Q>  (111) 
1

>  <i_epik_Tot_abs_Q>  (111) 
1

>  <s_lp_Force_Field>  (111) 
OPLS3e

>  <r_lp_Energy>  (111) 
144.586

>  <b_lp_Chiralities_Consistent>  (111) 
1

>  <s_lp_Variant>  (111) 
28:0-1

>  <s_i_glide_gridfile>  (111) 
pfpi4k_grid

>  <i_i_glide_lignum>  (111) 
16

>  <i_i_glide_rotatable_bonds>  (111) 
1

>  <r_i_docking_score>  (111) 
-3.74415

>  <r_i_glide_ligand_efficiency>  (111) 
-0.220244

>  <r_i_glide_ligand_efficiency_sa>  (111) 
-0.56631

>  <r_i_glide_ligand_efficiency_ln>  (111) 
-0.976766

>  <r_i_glide_gscore>  (111) 
-3.74415

>  <r_i_glide_lipo>  (111) 
-0.558007

>  <r_i_glide_hbond>  (111) 
0

>  <r_i_glide_metal>  (111) 
-0

>  <r_i_glide_rewards>  (111) 
-1.83898

>  <r_i_glide_evdw>  (111) 
-18.441

>  <r_i_glide_ecoul>  (111) 
-2.83407

>  <r_i_glide_erotb>  (111) 
0

>  <r_i_glide_esite>  (111) 
0

>  <r_i_glide_emodel>  (111) 
-25.2365

>  <r_i_glide_energy>  (111) 
-21.275

>  <r_i_glide_einternal>  (111) 
0.526097

>  <r_i_glide_intrahb_reward>  (111) 
-0

>  <i_i_glide_confnum>  (111) 
1

>  <i_i_glide_posenum>  (111) 
10

>  <r_i_glide_eff_state_penalty>  (111) 
0

>  <ligand_id>  (111) 
28

>  <original_smiles>  (111) 
CN1CCC23c4c5cccc4OC2C3(O)C1C5

>  <smiles>  (111) 
[H]OC12C3([H])Oc4c([H])c([H])c([H])c5c4C31C([H])([H])C([H])([H])[N+]([H])(C([H])([H])[H])C2([H])C5([H])[H]

$$$$
28:0:1
     RDKit          3D

 33 37  0  0  1  0  0  0  0  0999 V2000
    2.8129   -5.8865    1.4098 C   0  0  0  0  0  0  0  0  0  0  0  0
    3.7349   -4.7479    1.1344 N   0  0  1  0  0  0  0  0  0  0  0  0
    4.8629   -5.1565    0.2542 C   0  0  0  0  0  0  0  0  0  0  0  0
    5.7775   -3.9702   -0.0171 C   0  0  0  0  0  0  0  0  0  0  0  0
    4.9384   -2.7249   -0.2725 C   0  0  2  0  0  0  0  0  0  0  0  0
    4.3378   -2.5682   -1.5898 C   0  0  0  0  0  0  0  0  0  0  0  0
    3.1333   -3.1496   -1.9787 C   0  0  0  0  0  0  0  0  0  0  0  0
    2.5418   -2.6803   -3.1648 C   0  0  0  0  0  0  0  0  0  0  0  0
    3.1410   -1.6002   -3.8379 C   0  0  0  0  0  0  0  0  0  0  0  0
    4.2141   -0.8903   -3.2361 C   0  0  0  0  0  0  0  0  0  0  0  0
    4.7553   -1.3515   -2.0232 C   0  0  0  0  0  0  0  0  0  0  0  0
    5.3499   -0.6545   -1.0109 O   0  0  0  0  0  0  0  0  0  0  0  0
    5.3022   -1.4528    0.2058 C   0  0  1  0  0  0  0  0  0  0  0  0
    4.0188   -2.2345    0.7999 C   0  0  2  0  0  0  0  0  0  0  0  0
    4.4646   -2.2790    2.1399 O   0  0  0  0  0  0  0  0  0  0  0  0
    3.0663   -3.4860    0.6499 C   0  0  1  0  0  0  0  0  0  0  0  0
    2.4346   -3.7540   -0.7710 C   0  0  0  0  0  0  0  0  0  0  0  0
    2.4160   -6.3453    0.5019 H   0  0  0  0  0  0  0  0  0  0  0  0
    1.9650   -5.5931    2.0294 H   0  0  0  0  0  0  0  0  0  0  0  0
    3.3405   -6.6834    1.9376 H   0  0  0  0  0  0  0  0  0  0  0  0
    5.4187   -5.9599    0.7299 H   0  0  0  0  0  0  0  0  0  0  0  0
    4.5030   -5.5551   -0.6924 H   0  0  0  0  0  0  0  0  0  0  0  0
    6.3491   -3.7903    0.8931 H   0  0  0  0  0  0  0  0  0  0  0  0
    6.4946   -4.1596   -0.8147 H   0  0  0  0  0  0  0  0  0  0  0  0
    1.5647   -3.0438   -3.4894 H   0  0  0  0  0  0  0  0  0  0  0  0
    2.6848   -1.1983   -4.7233 H   0  0  0  0  0  0  0  0  0  0  0  0
    4.5269    0.0454   -3.6505 H   0  0  0  0  0  0  0  0  0  0  0  0
    6.2389   -1.4266    0.7618 H   0  0  0  0  0  0  0  0  0  0  0  0
    4.7481   -1.4034    2.3604 H   0  0  0  0  0  0  0  0  0  0  0  0
    2.2505   -3.3159    1.3488 H   0  0  0  0  0  0  0  0  0  0  0  0
    1.4213   -3.3643   -0.7599 H   0  0  0  0  0  0  0  0  0  0  0  0
    2.3138   -4.8100   -0.9744 H   0  0  0  0  0  0  0  0  0  0  0  0
    4.1306   -4.4857    2.0305 H   0  0  0  0  0  0  0  0  0  0  0  0
  1  2  1  0
  1 18  1  0
  1 19  1  0
  1 20  1  0
  2 16  1  0
  2  3  1  0
  2 33  1  1
  3  4  1  0
  3 21  1  0
  3 22  1  0
  5  4  1  1
  4 23  1  0
  4 24  1  0
  5 13  1  0
  5 14  1  0
  5  6  1  0
  6 11  2  0
  6  7  1  0
  7 17  1  0
  7  8  2  0
  8  9  1  0
  8 25  1  0
  9 10  2  0
  9 26  1  0
 10 11  1  0
 10 27  1  0
 11 12  1  0
 12 13  1  0
 13 14  1  0
 13 28  1  1
 14 15  1  1
 14 16  1  0
 15 29  1  0
 16 17  1  0
 16 30  1  1
 17 31  1  0
 17 32  1  0
M  CHG  1   2   1
M  END
>  <i_m_ct_stereo_status>  (112) 
1

>  <s_m_source_file>  (112) 
/var/tmp/pbs.5076255.sched01/tmpx9mnojvb/44r91_cmns.sdf

>  <i_m_source_file_index>  (112) 
16

>  <i_lp_mmshare_version>  (112) 
48012

>  <i_f3d_flags>  (112) 
0

>  <s_epik_input>  (112) 
W0NIMl0xW0NIMl1OKFtDSDNdKVtDQEhdKFtDSDJdMilDMyhbT0hdKVtDQEBIXTRPYzVbY0hdW2NIXVtjSF1jMmM1W0NAXTEzNA==

>  <s_epik_cmdline>  (112) 
J2VwaWtfcHl0aG9uJywgJy1waHQnLCAnMi4wJywgJy1waCcsICc3LjAnLCAnLXRuJywgJzgnLCAnLW1hJywgJzIwMCcsICctaW1hZScsICc8aW5maWxlLm1hZT4nLCAnLW9tYWUnLCAnPG91dGZpbGUubWFlPic=

>  <r_lp_tautomer_probability>  (112) 
1

>  <r_epik_Ionization_Penalty>  (112) 
0.11094

>  <r_epik_Ionization_Penalty_Charging>  (112) 
0.110938

>  <r_epik_Ionization_Penalty_Neutral>  (112) 
1.82343e-06

>  <r_epik_State_Penalty>  (112) 
0.100674

>  <r_epik_Charging_Adjusted_Penalty>  (112) 
0.211612

>  <i_epik_Tot_Q>  (112) 
1

>  <i_epik_Tot_abs_Q>  (112) 
1

>  <s_lp_Force_Field>  (112) 
OPLS3e

>  <r_lp_Energy>  (112) 
144.586

>  <b_lp_Chiralities_Consistent>  (112) 
1

>  <s_lp_Variant>  (112) 
28:0-1

>  <s_i_glide_gridfile>  (112) 
pfpi4k_grid

>  <i_i_glide_lignum>  (112) 
16

>  <i_i_glide_rotatable_bonds>  (112) 
1

>  <r_i_docking_score>  (112) 
-3.69862

>  <r_i_glide_ligand_efficiency>  (112) 
-0.217566

>  <r_i_glide_ligand_efficiency_sa>  (112) 
-0.559423

>  <r_i_glide_ligand_efficiency_ln>  (112) 
-0.964888

>  <r_i_glide_gscore>  (112) 
-3.69862

>  <r_i_glide_lipo>  (112) 
-0.550099

>  <r_i_glide_hbond>  (112) 
0

>  <r_i_glide_metal>  (112) 
-0

>  <r_i_glide_rewards>  (112) 
-1.83898

>  <r_i_glide_evdw>  (112) 
-18.5833

>  <r_i_glide_ecoul>  (112) 
-2.53582

>  <r_i_glide_erotb>  (112) 
0

>  <r_i_glide_esite>  (112) 
0

>  <r_i_glide_emodel>  (112) 
-25.1363

>  <r_i_glide_energy>  (112) 
-21.1191

>  <r_i_glide_einternal>  (112) 
0.332838

>  <r_i_glide_intrahb_reward>  (112) 
-0

>  <i_i_glide_confnum>  (112) 
2

>  <i_i_glide_posenum>  (112) 
6

>  <r_i_glide_eff_state_penalty>  (112) 
0

>  <ligand_id>  (112) 
28

>  <original_smiles>  (112) 
CN1CCC23c4c5cccc4OC2C3(O)C1C5

>  <smiles>  (112) 
[H]OC12C3([H])Oc4c([H])c([H])c([H])c5c4C31C([H])([H])C([H])([H])[N+]([H])(C([H])([H])[H])C2([H])C5([H])[H]

$$$$
28:0:2
     RDKit          3D

 33 37  0  0  1  0  0  0  0  0999 V2000
    3.8573   -6.3595    1.6238 C   0  0  0  0  0  0  0  0  0  0  0  0
    4.6063   -5.0981    1.3618 N   0  0  1  0  0  0  0  0  0  0  0  0
    5.7036   -5.2943    0.3727 C   0  0  0  0  0  0  0  0  0  0  0  0
    6.4346   -3.9823    0.1142 C   0  0  0  0  0  0  0  0  0  0  0  0
    5.4237   -2.8540    0.0112 C   0  0  2  0  0  0  0  0  0  0  0  0
    4.7061   -2.6972   -1.2450 C   0  0  0  0  0  0  0  0  0  0  0  0
    3.5414   -3.4033   -1.5813 C   0  0  0  0  0  0  0  0  0  0  0  0
    2.8016   -2.9473   -2.6810 C   0  0  0  0  0  0  0  0  0  0  0  0
    3.2145   -1.7622   -3.3330 C   0  0  0  0  0  0  0  0  0  0  0  0
    4.2391   -0.9596   -2.7659 C   0  0  0  0  0  0  0  0  0  0  0  0
    4.9348   -1.4137   -1.6236 C   0  0  0  0  0  0  0  0  0  0  0  0
    5.5013   -0.6921   -0.6079 O   0  0  0  0  0  0  0  0  0  0  0  0
    5.6611   -1.5759    0.5460 C   0  0  1  0  0  0  0  0  0  0  0  0
    4.5322   -2.5415    1.1822 C   0  0  2  0  0  0  0  0  0  0  0  0
    5.0250   -2.4857    2.5146 O   0  0  0  0  0  0  0  0  0  0  0  0
    3.7460   -3.9049    1.0225 C   0  0  1  0  0  0  0  0  0  0  0  0
    3.0313   -4.1673   -0.3617 C   0  0  0  0  0  0  0  0  0  0  0  0
    3.4488   -6.8162    0.7199 H   0  0  0  0  0  0  0  0  0  0  0  0
    3.0372   -6.2088    2.3304 H   0  0  0  0  0  0  0  0  0  0  0  0
    4.5288   -7.1008    2.0642 H   0  0  0  0  0  0  0  0  0  0  0  0
    6.3952   -6.0388    0.7549 H   0  0  0  0  0  0  0  0  0  0  0  0
    5.3184   -5.6813   -0.5681 H   0  0  0  0  0  0  0  0  0  0  0  0
    7.0506   -3.7717    0.9857 H   0  0  0  0  0  0  0  0  0  0  0  0
    7.1017   -4.0230   -0.7480 H   0  0  0  0  0  0  0  0  0  0  0  0
    1.8491   -3.4093   -2.9539 H   0  0  0  0  0  0  0  0  0  0  0  0
    2.6473   -1.3896   -4.1690 H   0  0  0  0  0  0  0  0  0  0  0  0
    4.4008    0.0339   -3.1325 H   0  0  0  0  0  0  0  0  0  0  0  0
    6.6179   -1.4574    1.0581 H   0  0  0  0  0  0  0  0  0  0  0  0
    5.5894   -3.2200    2.6907 H   0  0  0  0  0  0  0  0  0  0  0  0
    2.9772   -3.8777    1.7900 H   0  0  0  0  0  0  0  0  0  0  0  0
    1.9720   -3.9467   -0.2269 H   0  0  0  0  0  0  0  0  0  0  0  0
    3.0761   -5.2130   -0.6481 H   0  0  0  0  0  0  0  0  0  0  0  0
    5.0284   -4.8994    2.2523 H   0  0  0  0  0  0  0  0  0  0  0  0
  1  2  1  0
  1 18  1  0
  1 19  1  0
  1 20  1  0
  2 16  1  0
  2  3  1  0
  2 33  1  1
  3  4  1  0
  3 21  1  0
  3 22  1  0
  5  4  1  1
  4 23  1  0
  4 24  1  0
  5 13  1  0
  5 14  1  0
  5  6  1  0
  6 11  2  0
  6  7  1  0
  7 17  1  0
  7  8  2  0
  8  9  1  0
  8 25  1  0
  9 10  2  0
  9 26  1  0
 10 11  1  0
 10 27  1  0
 11 12  1  0
 12 13  1  0
 13 14  1  0
 13 28  1  1
 14 15  1  1
 14 16  1  0
 15 29  1  0
 16 17  1  0
 16 30  1  1
 17 31  1  0
 17 32  1  0
M  CHG  1   2   1
M  END
>  <i_m_ct_stereo_status>  (113) 
1

>  <s_m_source_file>  (113) 
/var/tmp/pbs.5076255.sched01/tmpx9mnojvb/44r91_cmns.sdf

>  <i_m_source_file_index>  (113) 
16

>  <i_lp_mmshare_version>  (113) 
48012

>  <i_f3d_flags>  (113) 
0

>  <s_epik_input>  (113) 
W0NIMl0xW0NIMl1OKFtDSDNdKVtDQEhdKFtDSDJdMilDMyhbT0hdKVtDQEBIXTRPYzVbY0hdW2NIXVtjSF1jMmM1W0NAXTEzNA==

>  <s_epik_cmdline>  (113) 
J2VwaWtfcHl0aG9uJywgJy1waHQnLCAnMi4wJywgJy1waCcsICc3LjAnLCAnLXRuJywgJzgnLCAnLW1hJywgJzIwMCcsICctaW1hZScsICc8aW5maWxlLm1hZT4nLCAnLW9tYWUnLCAnPG91dGZpbGUubWFlPic=

>  <r_lp_tautomer_probability>  (113) 
1

>  <r_epik_Ionization_Penalty>  (113) 
0.11094

>  <r_epik_Ionization_Penalty_Charging>  (113) 
0.110938

>  <r_epik_Ionization_Penalty_Neutral>  (113) 
1.82343e-06

>  <r_epik_State_Penalty>  (113) 
0.100674

>  <r_epik_Charging_Adjusted_Penalty>  (113) 
0.211612

>  <i_epik_Tot_Q>  (113) 
1

>  <i_epik_Tot_abs_Q>  (113) 
1

>  <s_lp_Force_Field>  (113) 
OPLS3e

>  <r_lp_Energy>  (113) 
144.586

>  <b_lp_Chiralities_Consistent>  (113) 
1

>  <s_lp_Variant>  (113) 
28:0-1

>  <s_i_glide_gridfile>  (113) 
pfpi4k_grid

>  <i_i_glide_lignum>  (113) 
16

>  <i_i_glide_rotatable_bonds>  (113) 
1

>  <r_i_docking_score>  (113) 
-3.58529

>  <r_i_glide_ligand_efficiency>  (113) 
-0.210899

>  <r_i_glide_ligand_efficiency_sa>  (113) 
-0.542282

>  <r_i_glide_ligand_efficiency_ln>  (113) 
-0.935322

>  <r_i_glide_gscore>  (113) 
-3.58529

>  <r_i_glide_lipo>  (113) 
-0.573357

>  <r_i_glide_hbond>  (113) 
0

>  <r_i_glide_metal>  (113) 
-0

>  <r_i_glide_rewards>  (113) 
-1.83898

>  <r_i_glide_evdw>  (113) 
-18.0147

>  <r_i_glide_ecoul>  (113) 
-1.81476

>  <r_i_glide_erotb>  (113) 
0

>  <r_i_glide_esite>  (113) 
0

>  <r_i_glide_emodel>  (113) 
-23.7885

>  <r_i_glide_energy>  (113) 
-19.8294

>  <r_i_glide_einternal>  (113) 
0.00252276

>  <r_i_glide_intrahb_reward>  (113) 
-0

>  <i_i_glide_confnum>  (113) 
1

>  <i_i_glide_posenum>  (113) 
39

>  <r_i_glide_eff_state_penalty>  (113) 
0

>  <ligand_id>  (113) 
28

>  <original_smiles>  (113) 
CN1CCC23c4c5cccc4OC2C3(O)C1C5

>  <smiles>  (113) 
[H]OC12C3([H])Oc4c([H])c([H])c([H])c5c4C31C([H])([H])C([H])([H])[N+]([H])(C([H])([H])[H])C2([H])C5([H])[H]

$$$$
28:1:0
     RDKit          3D

 32 36  0  0  1  0  0  0  0  0999 V2000
    4.0851   -2.0970    3.8401 C   0  0  0  0  0  0  0  0  0  0  0  0
    3.7447   -2.5521    2.5011 N   0  0  0  0  0  0  0  0  0  0  0  0
    4.0635   -3.9571    2.2320 C   0  0  0  0  0  0  0  0  0  0  0  0
    5.4381   -4.1161    1.6009 C   0  0  0  0  0  0  0  0  0  0  0  0
    5.5960   -3.0506    0.5378 C   0  0  2  0  0  0  0  0  0  0  0  0
    4.8368   -3.1896   -0.7086 C   0  0  0  0  0  0  0  0  0  0  0  0
    3.5256   -2.7521   -0.9115 C   0  0  0  0  0  0  0  0  0  0  0  0
    3.0495   -2.7245   -2.2367 C   0  0  0  0  0  0  0  0  0  0  0  0
    3.9248   -3.0599   -3.2875 C   0  0  0  0  0  0  0  0  0  0  0  0
    5.3104   -3.2410   -3.0310 C   0  0  0  0  0  0  0  0  0  0  0  0
    5.7748   -3.1903   -1.7040 C   0  0  0  0  0  0  0  0  0  0  0  0
    6.9758   -2.7391   -1.2221 O   0  0  0  0  0  0  0  0  0  0  0  0
    6.8279   -2.4790    0.2156 C   0  0  1  0  0  0  0  0  0  0  0  0
    5.6265   -1.6164    0.9333 C   0  0  2  0  0  0  0  0  0  0  0  0
    6.3599   -1.1082    2.0330 O   0  0  0  0  0  0  0  0  0  0  0  0
    4.0993   -1.6292    1.3867 C   0  0  1  0  0  0  0  0  0  0  0  0
    3.0636   -1.8784    0.2482 C   0  0  0  0  0  0  0  0  0  0  0  0
    3.5866   -2.7139    4.5877 H   0  0  0  0  0  0  0  0  0  0  0  0
    3.7386   -1.0734    3.9972 H   0  0  0  0  0  0  0  0  0  0  0  0
    5.1569   -2.1368    4.0276 H   0  0  0  0  0  0  0  0  0  0  0  0
    3.9890   -4.5476    3.1447 H   0  0  0  0  0  0  0  0  0  0  0  0
    3.3290   -4.3742    1.5478 H   0  0  0  0  0  0  0  0  0  0  0  0
    6.1892   -3.9422    2.3761 H   0  0  0  0  0  0  0  0  0  0  0  0
    5.6142   -5.1194    1.2066 H   0  0  0  0  0  0  0  0  0  0  0  0
    2.0576   -2.3516   -2.4558 H   0  0  0  0  0  0  0  0  0  0  0  0
    3.5686   -3.0504   -4.3064 H   0  0  0  0  0  0  0  0  0  0  0  0
    6.0120   -3.3183   -3.8361 H   0  0  0  0  0  0  0  0  0  0  0  0
    7.6733   -2.8465    0.7991 H   0  0  0  0  0  0  0  0  0  0  0  0
    6.9685   -0.4476    1.7174 H   0  0  0  0  0  0  0  0  0  0  0  0
    3.8939   -0.6182    1.7453 H   0  0  0  0  0  0  0  0  0  0  0  0
    2.8023   -0.8946   -0.1423 H   0  0  0  0  0  0  0  0  0  0  0  0
    2.1411   -2.3023    0.6426 H   0  0  0  0  0  0  0  0  0  0  0  0
  1  2  1  0
  1 18  1  0
  1 19  1  0
  1 20  1  0
  2 16  1  0
  2  3  1  0
  3  4  1  0
  3 21  1  0
  3 22  1  0
  5  4  1  1
  4 23  1  0
  4 24  1  0
  5 13  1  0
  5 14  1  0
  5  6  1  0
  6 11  2  0
  6  7  1  0
  7 17  1  0
  7  8  2  0
  8  9  1  0
  8 25  1  0
  9 10  2  0
  9 26  1  0
 10 11  1  0
 10 27  1  0
 11 12  1  0
 12 13  1  0
 13 14  1  0
 13 28  1  1
 14 15  1  1
 14 16  1  0
 15 29  1  0
 16 17  1  0
 16 30  1  1
 17 31  1  0
 17 32  1  0
M  END
>  <i_m_ct_stereo_status>  (114) 
1

>  <s_m_source_file>  (114) 
/var/tmp/pbs.5076255.sched01/tmpx9mnojvb/44r91_cmns.sdf

>  <i_m_source_file_index>  (114) 
17

>  <i_lp_mmshare_version>  (114) 
48012

>  <i_f3d_flags>  (114) 
0

>  <s_epik_input>  (114) 
W0NIMl0xW0NIMl1OKFtDSDNdKVtDQEhdKFtDSDJdMilDMyhbT0hdKVtDQEBIXTRPYzVbY0hdW2NIXVtjSF1jMmM1W0NAXTEzNA==

>  <s_epik_cmdline>  (114) 
J2VwaWtfcHl0aG9uJywgJy1waHQnLCAnMi4wJywgJy1waCcsICc3LjAnLCAnLXRuJywgJzgnLCAnLW1hJywgJzIwMCcsICctaW1hZScsICc8aW5maWxlLm1hZT4nLCAnLW9tYWUnLCAnPG91dGZpbGUubWFlPic=

>  <r_lp_tautomer_probability>  (114) 
1

>  <r_epik_Ionization_Penalty>  (114) 
1.04723

>  <r_epik_Ionization_Penalty_Charging>  (114) 
0

>  <r_epik_Ionization_Penalty_Neutral>  (114) 
1.04723

>  <r_epik_State_Penalty>  (114) 
1.09977

>  <r_epik_Charging_Adjusted_Penalty>  (114) 
1.09977

>  <i_epik_Tot_Q>  (114) 
0

>  <i_epik_Tot_abs_Q>  (114) 
0

>  <s_lp_Force_Field>  (114) 
OPLS3e

>  <r_lp_Energy>  (114) 
141.847

>  <b_lp_Chiralities_Consistent>  (114) 
1

>  <s_lp_Variant>  (114) 
28:0-2

>  <s_i_glide_gridfile>  (114) 
pfpi4k_grid

>  <i_i_glide_lignum>  (114) 
17

>  <i_i_glide_rotatable_bonds>  (114) 
1

>  <r_i_docking_score>  (114) 
-4.12349

>  <r_i_glide_ligand_efficiency>  (114) 
-0.242558

>  <r_i_glide_ligand_efficiency_sa>  (114) 
-0.623685

>  <r_i_glide_ligand_efficiency_ln>  (114) 
-1.07573

>  <r_i_glide_gscore>  (114) 
-4.12349

>  <r_i_glide_lipo>  (114) 
-0.769449

>  <r_i_glide_hbond>  (114) 
-0.368388

>  <r_i_glide_metal>  (114) 
-0

>  <r_i_glide_rewards>  (114) 
-1.84586

>  <r_i_glide_evdw>  (114) 
-16.5942

>  <r_i_glide_ecoul>  (114) 
-2.06722

>  <r_i_glide_erotb>  (114) 
0

>  <r_i_glide_esite>  (114) 
0

>  <r_i_glide_emodel>  (114) 
-22.6137

>  <r_i_glide_energy>  (114) 
-18.6614

>  <r_i_glide_einternal>  (114) 
0.742144

>  <r_i_glide_intrahb_reward>  (114) 
-0

>  <i_i_glide_confnum>  (114) 
1

>  <i_i_glide_posenum>  (114) 
15

>  <r_i_glide_eff_state_penalty>  (114) 
0

>  <ligand_id>  (114) 
28

>  <original_smiles>  (114) 
CN1CCC23c4c5cccc4OC2C3(O)C1C5

>  <smiles>  (114) 
[H]OC12C3([H])Oc4c([H])c([H])c([H])c5c4C31C([H])([H])C([H])([H])N(C([H])([H])[H])C2([H])C5([H])[H]

$$$$
28:1:1
     RDKit          3D

 32 36  0  0  1  0  0  0  0  0999 V2000
    4.1248   -5.3019    2.2888 C   0  0  0  0  0  0  0  0  0  0  0  0
    3.9279   -4.9340    0.8940 N   0  0  0  0  0  0  0  0  0  0  0  0
    5.0895   -5.1746    0.0253 C   0  0  0  0  0  0  0  0  0  0  0  0
    5.9706   -3.9400   -0.0960 C   0  0  0  0  0  0  0  0  0  0  0  0
    5.0689   -2.7430   -0.2964 C   0  0  2  0  0  0  0  0  0  0  0  0
    4.4111   -2.5974   -1.5919 C   0  0  0  0  0  0  0  0  0  0  0  0
    3.1919   -3.1740   -1.9562 C   0  0  0  0  0  0  0  0  0  0  0  0
    2.5612   -2.7004   -3.1215 C   0  0  0  0  0  0  0  0  0  0  0  0
    3.1368   -1.6128   -3.8105 C   0  0  0  0  0  0  0  0  0  0  0  0
    4.2116   -0.9065   -3.2281 C   0  0  0  0  0  0  0  0  0  0  0  0
    4.8101   -1.3657   -2.0355 C   0  0  0  0  0  0  0  0  0  0  0  0
    5.3807   -0.6551   -1.0221 O   0  0  0  0  0  0  0  0  0  0  0  0
    5.3814   -1.4707    0.1893 C   0  0  1  0  0  0  0  0  0  0  0  0
    4.1332   -2.3235    0.7916 C   0  0  2  0  0  0  0  0  0  0  0  0
    4.5359   -2.2446    2.1403 O   0  0  0  0  0  0  0  0  0  0  0  0
    3.2454   -3.6315    0.6368 C   0  0  1  0  0  0  0  0  0  0  0  0
    2.5024   -3.7685   -0.7318 C   0  0  0  0  0  0  0  0  0  0  0  0
    4.4111   -6.3521    2.3647 H   0  0  0  0  0  0  0  0  0  0  0  0
    3.1924   -5.1881    2.8471 H   0  0  0  0  0  0  0  0  0  0  0  0
    4.9009   -4.7052    2.7656 H   0  0  0  0  0  0  0  0  0  0  0  0
    5.6706   -6.0182    0.3959 H   0  0  0  0  0  0  0  0  0  0  0  0
    4.7558   -5.4533   -0.9728 H   0  0  0  0  0  0  0  0  0  0  0  0
    6.4983   -3.8069    0.8496 H   0  0  0  0  0  0  0  0  0  0  0  0
    6.7263   -4.0126   -0.8802 H   0  0  0  0  0  0  0  0  0  0  0  0
    1.5771   -3.0608   -3.4243 H   0  0  0  0  0  0  0  0  0  0  0  0
    2.6568   -1.2244   -4.6995 H   0  0  0  0  0  0  0  0  0  0  0  0
    4.5052    0.0392   -3.6413 H   0  0  0  0  0  0  0  0  0  0  0  0
    6.3167   -1.4075    0.7414 H   0  0  0  0  0  0  0  0  0  0  0  0
    3.7541   -2.0980    2.6547 H   0  0  0  0  0  0  0  0  0  0  0  0
    2.4559   -3.5396    1.3919 H   0  0  0  0  0  0  0  0  0  0  0  0
    1.5416   -3.2656   -0.6422 H   0  0  0  0  0  0  0  0  0  0  0  0
    2.2643   -4.8096   -0.9346 H   0  0  0  0  0  0  0  0  0  0  0  0
  1  2  1  0
  1 18  1  0
  1 19  1  0
  1 20  1  0
  2 16  1  0
  2  3  1  0
  3  4  1  0
  3 21  1  0
  3 22  1  0
  5  4  1  1
  4 23  1  0
  4 24  1  0
  5 13  1  0
  5 14  1  0
  5  6  1  0
  6 11  2  0
  6  7  1  0
  7 17  1  0
  7  8  2  0
  8  9  1  0
  8 25  1  0
  9 10  2  0
  9 26  1  0
 10 11  1  0
 10 27  1  0
 11 12  1  0
 12 13  1  0
 13 14  1  0
 13 28  1  1
 14 15  1  1
 14 16  1  0
 15 29  1  0
 16 17  1  0
 16 30  1  1
 17 31  1  0
 17 32  1  0
M  END
>  <i_m_ct_stereo_status>  (115) 
1

>  <s_m_source_file>  (115) 
/var/tmp/pbs.5076255.sched01/tmpx9mnojvb/44r91_cmns.sdf

>  <i_m_source_file_index>  (115) 
17

>  <i_lp_mmshare_version>  (115) 
48012

>  <i_f3d_flags>  (115) 
0

>  <s_epik_input>  (115) 
W0NIMl0xW0NIMl1OKFtDSDNdKVtDQEhdKFtDSDJdMilDMyhbT0hdKVtDQEBIXTRPYzVbY0hdW2NIXVtjSF1jMmM1W0NAXTEzNA==

>  <s_epik_cmdline>  (115) 
J2VwaWtfcHl0aG9uJywgJy1waHQnLCAnMi4wJywgJy1waCcsICc3LjAnLCAnLXRuJywgJzgnLCAnLW1hJywgJzIwMCcsICctaW1hZScsICc8aW5maWxlLm1hZT4nLCAnLW9tYWUnLCAnPG91dGZpbGUubWFlPic=

>  <r_lp_tautomer_probability>  (115) 
1

>  <r_epik_Ionization_Penalty>  (115) 
1.04723

>  <r_epik_Ionization_Penalty_Charging>  (115) 
0

>  <r_epik_Ionization_Penalty_Neutral>  (115) 
1.04723

>  <r_epik_State_Penalty>  (115) 
1.09977

>  <r_epik_Charging_Adjusted_Penalty>  (115) 
1.09977

>  <i_epik_Tot_Q>  (115) 
0

>  <i_epik_Tot_abs_Q>  (115) 
0

>  <s_lp_Force_Field>  (115) 
OPLS3e

>  <r_lp_Energy>  (115) 
141.847

>  <b_lp_Chiralities_Consistent>  (115) 
1

>  <s_lp_Variant>  (115) 
28:0-2

>  <s_i_glide_gridfile>  (115) 
pfpi4k_grid

>  <i_i_glide_lignum>  (115) 
17

>  <i_i_glide_rotatable_bonds>  (115) 
1

>  <r_i_docking_score>  (115) 
-3.43478

>  <r_i_glide_ligand_efficiency>  (115) 
-0.202046

>  <r_i_glide_ligand_efficiency_sa>  (115) 
-0.519518

>  <r_i_glide_ligand_efficiency_ln>  (115) 
-0.896059

>  <r_i_glide_gscore>  (115) 
-3.43478

>  <r_i_glide_lipo>  (115) 
-0.524679

>  <r_i_glide_hbond>  (115) 
0

>  <r_i_glide_metal>  (115) 
-0

>  <r_i_glide_rewards>  (115) 
-1.84586

>  <r_i_glide_evdw>  (115) 
-18.6178

>  <r_i_glide_ecoul>  (115) 
-0.889064

>  <r_i_glide_erotb>  (115) 
0

>  <r_i_glide_esite>  (115) 
0

>  <r_i_glide_emodel>  (115) 
-22.8299

>  <r_i_glide_energy>  (115) 
-19.5069

>  <r_i_glide_einternal>  (115) 
0.536857

>  <r_i_glide_intrahb_reward>  (115) 
-0

>  <i_i_glide_confnum>  (115) 
2

>  <i_i_glide_posenum>  (115) 
33

>  <r_i_glide_eff_state_penalty>  (115) 
0

>  <ligand_id>  (115) 
28

>  <original_smiles>  (115) 
CN1CCC23c4c5cccc4OC2C3(O)C1C5

>  <smiles>  (115) 
[H]OC12C3([H])Oc4c([H])c([H])c([H])c5c4C31C([H])([H])C([H])([H])N(C([H])([H])[H])C2([H])C5([H])[H]

$$$$
28:1:2
     RDKit          3D

 32 36  0  0  1  0  0  0  0  0999 V2000
    3.2881   -5.3388    2.0215 C   0  0  0  0  0  0  0  0  0  0  0  0
    3.2814   -4.9212    0.6300 N   0  0  0  0  0  0  0  0  0  0  0  0
    4.5333   -5.1848   -0.0897 C   0  0  0  0  0  0  0  0  0  0  0  0
    5.4605   -3.9798   -0.0922 C   0  0  0  0  0  0  0  0  0  0  0  0
    4.6341   -2.7533   -0.3610 C   0  0  2  0  0  0  0  0  0  0  0  0
    4.1541   -2.5572   -1.7196 C   0  0  0  0  0  0  0  0  0  0  0  0
    2.9738   -3.0923   -2.2601 C   0  0  0  0  0  0  0  0  0  0  0  0
    2.5092   -2.5635   -3.4752 C   0  0  0  0  0  0  0  0  0  0  0  0
    3.1888   -1.4636   -4.0330 C   0  0  0  0  0  0  0  0  0  0  0  0
    4.2059   -0.8061   -3.2982 C   0  0  0  0  0  0  0  0  0  0  0  0
    4.6374   -1.3267   -2.0615 C   0  0  0  0  0  0  0  0  0  0  0  0
    5.1118   -0.6577   -0.9700 O   0  0  0  0  0  0  0  0  0  0  0  0
    4.9253   -1.5011    0.2097 C   0  0  1  0  0  0  0  0  0  0  0  0
    3.5973   -2.3259    0.6389 C   0  0  2  0  0  0  0  0  0  0  0  0
    3.8916   -2.3448    2.0229 O   0  0  0  0  0  0  0  0  0  0  0  0
    2.6836   -3.5832    0.3302 C   0  0  1  0  0  0  0  0  0  0  0  0
    2.1130   -3.6540   -1.1291 C   0  0  0  0  0  0  0  0  0  0  0  0
    3.5280   -6.4007    2.0952 H   0  0  0  0  0  0  0  0  0  0  0  0
    2.2955   -5.2042    2.4639 H   0  0  0  0  0  0  0  0  0  0  0  0
    4.0188   -4.7869    2.6066 H   0  0  0  0  0  0  0  0  0  0  0  0
    5.0334   -6.0635    0.3180 H   0  0  0  0  0  0  0  0  0  0  0  0
    4.3161   -5.4284   -1.1176 H   0  0  0  0  0  0  0  0  0  0  0  0
    5.8680   -3.8903    0.9153 H   0  0  0  0  0  0  0  0  0  0  0  0
    6.3026   -4.0813   -0.7849 H   0  0  0  0  0  0  0  0  0  0  0  0
    1.5477   -2.8725   -3.9030 H   0  0  0  0  0  0  0  0  0  0  0  0
    2.8483   -1.0167   -4.9563 H   0  0  0  0  0  0  0  0  0  0  0  0
    4.5718    0.1368   -3.6393 H   0  0  0  0  0  0  0  0  0  0  0  0
    5.7841   -1.4965    0.8730 H   0  0  0  0  0  0  0  0  0  0  0  0
    4.0324   -1.4467    2.2923 H   0  0  0  0  0  0  0  0  0  0  0  0
    1.8247   -3.4731    0.9972 H   0  0  0  0  0  0  0  0  0  0  0  0
    1.1647   -3.1190   -1.1348 H   0  0  0  0  0  0  0  0  0  0  0  0
    1.8220   -4.6612   -1.3928 H   0  0  0  0  0  0  0  0  0  0  0  0
  1  2  1  0
  1 18  1  0
  1 19  1  0
  1 20  1  0
  2 16  1  0
  2  3  1  0
  3  4  1  0
  3 21  1  0
  3 22  1  0
  5  4  1  1
  4 23  1  0
  4 24  1  0
  5 13  1  0
  5 14  1  0
  5  6  1  0
  6 11  2  0
  6  7  1  0
  7 17  1  0
  7  8  2  0
  8  9  1  0
  8 25  1  0
  9 10  2  0
  9 26  1  0
 10 11  1  0
 10 27  1  0
 11 12  1  0
 12 13  1  0
 13 14  1  0
 13 28  1  1
 14 15  1  1
 14 16  1  0
 15 29  1  0
 16 17  1  0
 16 30  1  1
 17 31  1  0
 17 32  1  0
M  END
>  <i_m_ct_stereo_status>  (116) 
1

>  <s_m_source_file>  (116) 
/var/tmp/pbs.5076255.sched01/tmpx9mnojvb/44r91_cmns.sdf

>  <i_m_source_file_index>  (116) 
17

>  <i_lp_mmshare_version>  (116) 
48012

>  <i_f3d_flags>  (116) 
0

>  <s_epik_input>  (116) 
W0NIMl0xW0NIMl1OKFtDSDNdKVtDQEhdKFtDSDJdMilDMyhbT0hdKVtDQEBIXTRPYzVbY0hdW2NIXVtjSF1jMmM1W0NAXTEzNA==

>  <s_epik_cmdline>  (116) 
J2VwaWtfcHl0aG9uJywgJy1waHQnLCAnMi4wJywgJy1waCcsICc3LjAnLCAnLXRuJywgJzgnLCAnLW1hJywgJzIwMCcsICctaW1hZScsICc8aW5maWxlLm1hZT4nLCAnLW9tYWUnLCAnPG91dGZpbGUubWFlPic=

>  <r_lp_tautomer_probability>  (116) 
1

>  <r_epik_Ionization_Penalty>  (116) 
1.04723

>  <r_epik_Ionization_Penalty_Charging>  (116) 
0

>  <r_epik_Ionization_Penalty_Neutral>  (116) 
1.04723

>  <r_epik_State_Penalty>  (116) 
1.09977

>  <r_epik_Charging_Adjusted_Penalty>  (116) 
1.09977

>  <i_epik_Tot_Q>  (116) 
0

>  <i_epik_Tot_abs_Q>  (116) 
0

>  <s_lp_Force_Field>  (116) 
OPLS3e

>  <r_lp_Energy>  (116) 
141.847

>  <b_lp_Chiralities_Consistent>  (116) 
1

>  <s_lp_Variant>  (116) 
28:0-2

>  <s_i_glide_gridfile>  (116) 
pfpi4k_grid

>  <i_i_glide_lignum>  (116) 
17

>  <i_i_glide_rotatable_bonds>  (116) 
1

>  <r_i_docking_score>  (116) 
-3.43247

>  <r_i_glide_ligand_efficiency>  (116) 
-0.20191

>  <r_i_glide_ligand_efficiency_sa>  (116) 
-0.519168

>  <r_i_glide_ligand_efficiency_ln>  (116) 
-0.895456

>  <r_i_glide_gscore>  (116) 
-3.43247

>  <r_i_glide_lipo>  (116) 
-0.519747

>  <r_i_glide_hbond>  (116) 
0

>  <r_i_glide_metal>  (116) 
-0

>  <r_i_glide_rewards>  (116) 
-1.84586

>  <r_i_glide_evdw>  (116) 
-18.7309

>  <r_i_glide_ecoul>  (116) 
-0.868857

>  <r_i_glide_erotb>  (116) 
0

>  <r_i_glide_esite>  (116) 
0

>  <r_i_glide_emodel>  (116) 
-22.9658

>  <r_i_glide_energy>  (116) 
-19.5997

>  <r_i_glide_einternal>  (116) 
0.372196

>  <r_i_glide_intrahb_reward>  (116) 
-0

>  <i_i_glide_confnum>  (116) 
2

>  <i_i_glide_posenum>  (116) 
34

>  <r_i_glide_eff_state_penalty>  (116) 
0

>  <ligand_id>  (116) 
28

>  <original_smiles>  (116) 
CN1CCC23c4c5cccc4OC2C3(O)C1C5

>  <smiles>  (116) 
[H]OC12C3([H])Oc4c([H])c([H])c([H])c5c4C31C([H])([H])C([H])([H])N(C([H])([H])[H])C2([H])C5([H])[H]

$$$$
29:0:0
     RDKit          3D

 89 96  0  0  1  0  0  0  0  0999 V2000
    6.0446   -8.7342    4.1170 C   0  0  0  0  0  0  0  0  0  0  0  0
    4.8692   -7.8937    4.6081 C   0  0  0  0  0  0  0  0  0  0  0  0
    4.3087   -8.1603    5.6689 O   0  0  0  0  0  0  0  0  0  0  0  0
    4.5610   -6.8975    3.7158 O   0  0  0  0  0  0  0  0  0  0  0  0
    3.5324   -5.9597    3.9434 C   0  0  2  0  0  0  0  0  0  0  0  0
    3.4971   -5.6222    5.3050 O   0  0  0  0  0  0  0  0  0  0  0  0
    2.2379   -5.8388    5.9410 C   0  0  0  0  0  0  0  0  0  0  0  0
    1.2643   -6.0140    4.7969 C   0  0  2  0  0  0  0  0  0  0  0  0
    0.0012   -6.8382    5.1794 C   0  0  0  0  0  0  0  0  0  0  0  0
    0.0752   -8.3182    4.8157 C   0  0  0  0  0  0  0  0  0  0  0  0
    0.5181   -8.4985    3.3604 C   0  0  1  0  0  0  0  0  0  0  0  0
   -0.5421   -8.0496    2.3424 C   0  0  0  0  0  0  0  0  0  0  0  0
    1.8478   -7.8075    3.1127 C   0  0  0  0  0  0  0  0  0  0  0  0
    2.7382   -8.6076    2.1685 C   0  0  0  0  0  0  0  0  0  0  0  0
    2.1577   -6.6454    3.7704 C   0  0  0  0  0  0  0  0  0  0  0  0
    0.8255   -4.6445    4.3514 C   0  0  2  0  0  0  0  0  0  0  0  0
    1.0102   -4.4157    2.9441 O   0  0  0  0  0  0  0  0  0  0  0  0
    1.5930   -3.4734    3.8294 C   0  0  2  0  0  0  0  0  0  0  0  0
    3.0804   -3.1762    3.6657 C   0  0  2  0  0  0  0  0  0  0  0  0
    3.4816   -2.7817    5.1501 C   0  0  0  0  0  0  0  0  0  0  0  0
    3.1397   -1.6758    2.9377 C   0  0  1  0  0  0  0  0  0  0  0  0
    2.0847   -1.2436    1.8895 C   0  0  0  0  0  0  0  0  0  0  0  0
    2.6350   -0.7461    3.9063 O   0  0  0  0  0  0  0  0  0  0  0  0
    4.5109   -0.9638    2.6476 C   0  0  0  0  0  0  0  0  0  0  0  0
    5.1596   -1.0018    1.2258 C   0  0  0  0  0  0  0  0  0  0  0  0
    5.6243   -2.3159    0.4959 C   0  0  1  0  0  0  0  0  0  0  0  0
    6.4387   -3.2228    1.4474 C   0  0  1  0  0  0  0  0  0  0  0  0
    5.8181   -3.2250    2.7137 O   0  0  0  0  0  0  0  0  0  0  0  0
    5.4147   -4.3419    3.3722 C   0  0  1  0  0  0  0  0  0  0  0  0
    5.7605   -4.2444    4.7453 O   0  0  0  0  0  0  0  0  0  0  0  0
    3.8879   -4.5555    3.0627 C   0  0  1  0  0  0  0  0  0  0  0  0
    3.8493   -4.9318    1.4178 C   0  0  2  0  0  0  0  0  0  0  0  0
    2.6892   -5.7199    1.2286 O   0  0  0  0  0  0  0  0  0  0  0  0
    4.8841   -5.9293    0.8181 C   0  0  2  0  0  0  0  0  0  0  0  0
    5.9136   -6.5898    1.5641 O   0  0  0  0  0  0  0  0  0  0  0  0
    6.3707   -5.6772    0.5531 C   0  0  2  0  0  0  0  0  0  0  0  0
    7.2021   -4.5043    1.0082 C   0  0  1  0  0  0  0  0  0  0  0  0
    8.1782   -4.1757    0.0382 O   0  0  0  0  0  0  0  0  0  0  0  0
    3.5639   -3.9267    0.1978 C   0  0  1  0  0  0  0  0  0  0  0  0
    2.2664   -3.4320    0.1382 O   0  0  0  0  0  0  0  0  0  0  0  0
    4.6207   -2.9846   -0.4972 C   0  0  0  0  0  0  0  0  0  0  0  0
    3.9485   -1.9003   -1.4029 C   0  0  0  0  0  0  0  0  0  0  0  0
    5.3902   -3.7624   -1.6174 C   0  0  0  0  0  0  0  0  0  0  0  0
    5.7784   -9.2235    3.1818 H   0  0  0  0  0  0  0  0  0  0  0  0
    6.3012   -9.5017    4.8428 H   0  0  0  0  0  0  0  0  0  0  0  0
    6.9231   -8.1150    3.9396 H   0  0  0  0  0  0  0  0  0  0  0  0
    2.2827   -6.7427    6.5435 H   0  0  0  0  0  0  0  0  0  0  0  0
    1.9736   -5.0119    6.6002 H   0  0  0  0  0  0  0  0  0  0  0  0
   -0.1984   -6.7254    6.2451 H   0  0  0  0  0  0  0  0  0  0  0  0
   -0.8781   -6.4402    4.6706 H   0  0  0  0  0  0  0  0  0  0  0  0
    0.7831   -8.8181    5.4764 H   0  0  0  0  0  0  0  0  0  0  0  0
   -0.8889   -8.7968    4.9810 H   0  0  0  0  0  0  0  0  0  0  0  0
    0.6721   -9.5702    3.2257 H   0  0  0  0  0  0  0  0  0  0  0  0
   -0.2387   -8.2944    1.3256 H   0  0  0  0  0  0  0  0  0  0  0  0
   -0.6835   -6.9709    2.3632 H   0  0  0  0  0  0  0  0  0  0  0  0
   -1.5017   -8.5345    2.5291 H   0  0  0  0  0  0  0  0  0  0  0  0
    2.9954   -9.5769    2.6010 H   0  0  0  0  0  0  0  0  0  0  0  0
    3.6664   -8.1153    1.8959 H   0  0  0  0  0  0  0  0  0  0  0  0
    2.2074   -8.7972    1.2377 H   0  0  0  0  0  0  0  0  0  0  0  0
   -0.1572   -4.3614    4.7198 H   0  0  0  0  0  0  0  0  0  0  0  0
    0.9856   -2.5803    3.9610 H   0  0  0  0  0  0  0  0  0  0  0  0
    4.3434   -2.1156    5.1857 H   0  0  0  0  0  0  0  0  0  0  0  0
    3.7166   -3.5544    5.8558 H   0  0  0  0  0  0  0  0  0  0  0  0
    2.6654   -2.2790    5.6796 H   0  0  0  0  0  0  0  0  0  0  0  0
    2.5133   -1.2392    0.9108 H   0  0  0  0  0  0  0  0  0  0  0  0
    1.7474   -0.2059    1.9626 H   0  0  0  0  0  0  0  0  0  0  0  0
    1.1846   -1.8535    1.8638 H   0  0  0  0  0  0  0  0  0  0  0  0
    2.6327    0.1114    3.5238 H   0  0  0  0  0  0  0  0  0  0  0  0
    4.3821    0.1109    2.7925 H   0  0  0  0  0  0  0  0  0  0  0  0
    5.2325   -1.1718    3.4355 H   0  0  0  0  0  0  0  0  0  0  0  0
    4.5769   -0.3626    0.5690 H   0  0  0  0  0  0  0  0  0  0  0  0
    6.0713   -0.4154    1.3474 H   0  0  0  0  0  0  0  0  0  0  0  0
    6.3797   -1.9165   -0.1778 H   0  0  0  0  0  0  0  0  0  0  0  0
    7.2705   -2.5684    1.6684 H   0  0  0  0  0  0  0  0  0  0  0  0
    6.0633   -5.1422    3.1150 H   0  0  0  0  0  0  0  0  0  0  0  0
    6.6778   -4.4417    4.8404 H   0  0  0  0  0  0  0  0  0  0  0  0
    2.6539   -5.9989    0.3337 H   0  0  0  0  0  0  0  0  0  0  0  0
    4.4733   -6.5619    0.0414 H   0  0  0  0  0  0  0  0  0  0  0  0
    6.8286   -6.2382   -0.2378 H   0  0  0  0  0  0  0  0  0  0  0  0
    7.8201   -4.8573    1.8362 H   0  0  0  0  0  0  0  0  0  0  0  0
    7.7440   -3.8839   -0.7432 H   0  0  0  0  0  0  0  0  0  0  0  0
    3.4075   -4.6128   -0.6384 H   0  0  0  0  0  0  0  0  0  0  0  0
    2.2586   -2.6063   -0.3218 H   0  0  0  0  0  0  0  0  0  0  0  0
    3.2945   -2.3518   -2.1529 H   0  0  0  0  0  0  0  0  0  0  0  0
    4.7048   -1.3299   -1.9441 H   0  0  0  0  0  0  0  0  0  0  0  0
    3.3279   -1.1612   -0.9151 H   0  0  0  0  0  0  0  0  0  0  0  0
    4.9150   -3.6785   -2.5946 H   0  0  0  0  0  0  0  0  0  0  0  0
    5.4048   -4.8348   -1.4899 H   0  0  0  0  0  0  0  0  0  0  0  0
    6.4078   -3.4107   -1.7683 H   0  0  0  0  0  0  0  0  0  0  0  0
  1  2  1  0
  1 44  1  0
  1 45  1  0
  1 46  1  0
  2  3  2  0
  2  4  1  0
  5  4  1  1
  5 15  1  0
 31  5  1  1
  5  6  1  0
  6  7  1  0
  8  7  1  1
  7 47  1  0
  7 48  1  0
  8 15  1  0
  8  9  1  0
  8 16  1  0
  9 10  1  0
  9 49  1  0
  9 50  1  0
 10 11  1  0
 10 51  1  0
 10 52  1  0
 11 12  1  0
 11 13  1  0
 11 53  1  6
 12 54  1  0
 12 55  1  0
 12 56  1  0
 13 14  1  0
 13 15  2  0
 14 57  1  0
 14 58  1  0
 14 59  1  0
 16 18  1  0
 16 17  1  0
 16 60  1  6
 17 18  1  0
 18 19  1  0
 18 61  1  6
 19 31  1  0
 19 20  1  1
 19 21  1  0
 20 62  1  0
 20 63  1  0
 20 64  1  0
 21 22  1  0
 21 23  1  1
 21 24  1  0
 22 65  1  0
 22 66  1  0
 22 67  1  0
 23 68  1  0
 24 25  1  0
 24 69  1  0
 24 70  1  0
 25 26  1  0
 25 71  1  0
 25 72  1  0
 26 41  1  0
 26 27  1  0
 26 73  1  6
 27 37  1  0
 27 28  1  0
 27 74  1  1
 28 29  1  0
 29 30  1  0
 29 31  1  0
 29 75  1  6
 30 76  1  0
 31 32  1  0
 32 33  1  1
 32 34  1  0
 32 39  1  0
 33 77  1  0
 34 36  1  0
 34 35  1  0
 34 78  1  6
 35 36  1  0
 36 37  1  0
 36 79  1  6
 37 38  1  0
 37 80  1  1
 38 81  1  0
 39 40  1  0
 39 41  1  0
 39 82  1  6
 40 83  1  0
 41 42  1  0
 41 43  1  0
 42 84  1  0
 42 85  1  0
 42 86  1  0
 43 87  1  0
 43 88  1  0
 43 89  1  0
M  END
>  <i_m_ct_stereo_status>  (117) 
1

>  <s_m_source_file>  (117) 
/var/tmp/pbs.5076255.sched01/tmpx9mnojvb/44r91_cmns.sdf

>  <i_m_source_file_index>  (117) 
18

>  <i_lp_mmshare_version>  (117) 
48012

>  <i_f3d_flags>  (117) 
0

>  <s_epik_input>  (117) 
W0NIMl0xW0NIMl1bQ0BASF0oW0NIM10pQyhbQ0gzXSk9QyhbQ0BAXTEyMylbQ0BAXShPW0NIMl0yKShPQyg9TylbQ0gzXSlbQ0BAXTQ1W0NAXShbQ0gzXSkoW0NAQEhdNltDQEhdM082KVtDQEBdKFtDSDNdKShbT0hdKVtDSDJdW0NIMl1bQ0BIXTdbQ0BASF0oT1tDQEhdNFtPSF0pW0NASF0oW09IXSlbQ0BASF04W0NAQEhdKE84KVtDQF01KFtPSF0pW0NAQEhdKFtPSF0pQzcoW0NIM10pW0NIM10=

>  <s_epik_cmdline>  (117) 
J2VwaWtfcHl0aG9uJywgJy1waHQnLCAnMi4wJywgJy1waCcsICc3LjAnLCAnLXRuJywgJzgnLCAnLW1hJywgJzIwMCcsICctaW1hZScsICc8aW5maWxlLm1hZT4nLCAnLW9tYWUnLCAnPG91dGZpbGUubWFlPic=

>  <r_lp_tautomer_probability>  (117) 
1

>  <r_epik_Ionization_Penalty>  (117) 
1.08597e-06

>  <r_epik_Ionization_Penalty_Charging>  (117) 
0

>  <r_epik_Ionization_Penalty_Neutral>  (117) 
1.08597e-06

>  <r_epik_State_Penalty>  (117) 
-0

>  <r_epik_Charging_Adjusted_Penalty>  (117) 
0

>  <i_epik_Tot_Q>  (117) 
0

>  <i_epik_Tot_abs_Q>  (117) 
0

>  <s_epik_Chemistry_Notes>  (117) 
This compound has an ester and may undergo hydrolysis at high or low pH. This compound contains an acetal/aminal-like group ( X-CH(R)-Y where X, Y are N, S, or O) that may be acid/base labile, releasing an aldehyde.

>  <s_lp_Force_Field>  (117) 
OPLS3e

>  <r_lp_Energy>  (117) 
224.265

>  <b_lp_Chiralities_Consistent>  (117) 
1

>  <s_lp_Variant>  (117) 
29:0-1

>  <s_i_glide_gridfile>  (117) 
pfpi4k_grid

>  <i_i_glide_lignum>  (117) 
18

>  <i_i_glide_rotatable_bonds>  (117) 
7

>  <r_i_docking_score>  (117) 
-2.48216

>  <r_i_glide_ligand_efficiency>  (117) 
-0.0577246

>  <r_i_glide_ligand_efficiency_sa>  (117) 
-0.202232

>  <r_i_glide_ligand_efficiency_ln>  (117) 
-0.521331

>  <r_i_glide_gscore>  (117) 
-2.48216

>  <r_i_glide_lipo>  (117) 
-0.690602

>  <r_i_glide_hbond>  (117) 
0

>  <r_i_glide_metal>  (117) 
-0

>  <r_i_glide_rewards>  (117) 
-0.0124457

>  <r_i_glide_evdw>  (117) 
-30.0852

>  <r_i_glide_ecoul>  (117) 
-2.21327

>  <r_i_glide_erotb>  (117) 
0.057142

>  <r_i_glide_esite>  (117) 
0

>  <r_i_glide_emodel>  (117) 
-35.6685

>  <r_i_glide_energy>  (117) 
-32.2985

>  <r_i_glide_einternal>  (117) 
1.71158

>  <r_i_glide_intrahb_reward>  (117) 
-0

>  <i_i_glide_confnum>  (117) 
1

>  <i_i_glide_posenum>  (117) 
3

>  <r_i_glide_eff_state_penalty>  (117) 
0

>  <ligand_id>  (117) 
29

>  <original_smiles>  (117) 
CC(=O)OC12OCC3(CCC(C)C(C)=C31)C1OC1C1(C)C(C)(O)CCC3C4OC(O)C21C(O)(C1OC1C4O)C(O)C3(C)C

>  <smiles>  (117) 
[H]OC1([H])OC2([H])C([H])(O[H])C3([H])OC3([H])C3(O[H])C([H])(O[H])C(C([H])([H])[H])(C([H])([H])[H])C2([H])C([H])([H])C([H])([H])C(O[H])(C([H])([H])[H])C2(C([H])([H])[H])C4([H])OC4([H])C45C(=C(C([H])([H])[H])C([H])(C([H])([H])[H])C([H])([H])C4([H])[H])C(OC(=O)C([H])([H])[H])(OC5([H])[H])C132

$$$$
29:0:1
     RDKit          3D

 89 96  0  0  1  0  0  0  0  0999 V2000
    5.0201   -6.8674    9.4302 C   0  0  0  0  0  0  0  0  0  0  0  0
    4.3248   -5.8254    8.5579 C   0  0  0  0  0  0  0  0  0  0  0  0
    4.4162   -4.6267    8.8227 O   0  0  0  0  0  0  0  0  0  0  0  0
    3.6194   -6.4177    7.5421 O   0  0  0  0  0  0  0  0  0  0  0  0
    2.9292   -5.6768    6.5526 C   0  0  2  0  0  0  0  0  0  0  0  0
    3.7129   -4.5727    6.1939 O   0  0  0  0  0  0  0  0  0  0  0  0
    3.0512   -3.3119    6.3304 C   0  0  0  0  0  0  0  0  0  0  0  0
    1.5785   -3.6558    6.4733 C   0  0  2  0  0  0  0  0  0  0  0  0
    0.7806   -2.5583    7.2410 C   0  0  0  0  0  0  0  0  0  0  0  0
    0.5958   -2.8224    8.7312 C   0  0  0  0  0  0  0  0  0  0  0  0
    0.0838   -4.2441    8.9714 C   0  0  1  0  0  0  0  0  0  0  0  0
   -1.3597   -4.4755    8.4942 C   0  0  0  0  0  0  0  0  0  0  0  0
    1.0349   -5.2551    8.3498 C   0  0  0  0  0  0  0  0  0  0  0  0
    1.1721   -6.5090    9.2135 C   0  0  0  0  0  0  0  0  0  0  0  0
    1.6982   -4.9783    7.1864 C   0  0  0  0  0  0  0  0  0  0  0  0
    0.9458   -3.8139    5.1037 C   0  0  2  0  0  0  0  0  0  0  0  0
    0.2140   -5.0361    4.8631 O   0  0  0  0  0  0  0  0  0  0  0  0
    1.3010   -4.7457    3.9842 C   0  0  2  0  0  0  0  0  0  0  0  0
    2.4495   -5.7602    3.7820 C   0  0  2  0  0  0  0  0  0  0  0  0
    3.6687   -4.8144    3.3792 C   0  0  0  0  0  0  0  0  0  0  0  0
    2.1234   -6.4469    2.3036 C   0  0  1  0  0  0  0  0  0  0  0  0
    0.6653   -6.7025    1.8388 C   0  0  0  0  0  0  0  0  0  0  0  0
    2.2899   -5.4155    1.3204 O   0  0  0  0  0  0  0  0  0  0  0  0
    3.0964   -7.5163    1.6915 C   0  0  0  0  0  0  0  0  0  0  0  0
    2.7801   -9.0401    1.7722 C   0  0  0  0  0  0  0  0  0  0  0  0
    2.6941   -9.8230    3.1248 C   0  0  1  0  0  0  0  0  0  0  0  0
    3.9362   -9.5355    4.0265 C   0  0  1  0  0  0  0  0  0  0  0  0
    4.3223   -8.1747    3.9710 O   0  0  0  0  0  0  0  0  0  0  0  0
    4.2279   -7.3207    5.0394 C   0  0  1  0  0  0  0  0  0  0  0  0
    5.2947   -6.4064    4.9662 O   0  0  0  0  0  0  0  0  0  0  0  0
    2.7585   -6.6744    5.1883 C   0  0  1  0  0  0  0  0  0  0  0  0
    1.7322   -7.9424    5.6094 C   0  0  2  0  0  0  0  0  0  0  0  0
    0.6800   -7.3634    6.3508 O   0  0  0  0  0  0  0  0  0  0  0  0
    2.1839   -9.0018    6.6748 C   0  0  2  0  0  0  0  0  0  0  0  0
    3.4270   -8.9663    7.3704 O   0  0  0  0  0  0  0  0  0  0  0  0
    3.2265  -10.1016    6.5187 C   0  0  2  0  0  0  0  0  0  0  0  0
    4.2080  -10.2811    5.3667 C   0  0  1  0  0  0  0  0  0  0  0  0
    4.4066  -11.6611    5.1335 O   0  0  0  0  0  0  0  0  0  0  0  0
    0.7841   -8.7777    4.6296 C   0  0  1  0  0  0  0  0  0  0  0  0
   -0.3127   -8.0685    4.0881 O   0  0  0  0  0  0  0  0  0  0  0  0
    1.2711  -10.0056    3.7681 C   0  0  0  0  0  0  0  0  0  0  0  0
    0.2187  -10.3854    2.6855 C   0  0  0  0  0  0  0  0  0  0  0  0
    1.2066  -11.3396    4.5931 C   0  0  0  0  0  0  0  0  0  0  0  0
    4.2808   -7.5074    9.9071 H   0  0  0  0  0  0  0  0  0  0  0  0
    5.6160   -6.3942   10.2098 H   0  0  0  0  0  0  0  0  0  0  0  0
    5.6775   -7.4972    8.8327 H   0  0  0  0  0  0  0  0  0  0  0  0
    3.4163   -2.8029    7.2238 H   0  0  0  0  0  0  0  0  0  0  0  0
    3.2492   -2.6586    5.4804 H   0  0  0  0  0  0  0  0  0  0  0  0
    1.2490   -1.5841    7.0942 H   0  0  0  0  0  0  0  0  0  0  0  0
   -0.2196   -2.4568    6.8179 H   0  0  0  0  0  0  0  0  0  0  0  0
    1.5442   -2.6805    9.2481 H   0  0  0  0  0  0  0  0  0  0  0  0
   -0.0888   -2.0939    9.1606 H   0  0  0  0  0  0  0  0  0  0  0  0
    0.1049   -4.3932   10.0502 H   0  0  0  0  0  0  0  0  0  0  0  0
   -1.6997   -5.4542    8.7939 H   0  0  0  0  0  0  0  0  0  0  0  0
   -1.4395   -4.4199    7.4058 H   0  0  0  0  0  0  0  0  0  0  0  0
   -2.0429   -3.7542    8.9399 H   0  0  0  0  0  0  0  0  0  0  0  0
    1.6085   -6.2530   10.1787 H   0  0  0  0  0  0  0  0  0  0  0  0
    1.7776   -7.2942    8.7738 H   0  0  0  0  0  0  0  0  0  0  0  0
    0.1912   -6.9434    9.3950 H   0  0  0  0  0  0  0  0  0  0  0  0
    0.4430   -2.9126    4.7529 H   0  0  0  0  0  0  0  0  0  0  0  0
    0.9937   -4.2820    3.0558 H   0  0  0  0  0  0  0  0  0  0  0  0
    4.4100   -5.3188    2.7586 H   0  0  0  0  0  0  0  0  0  0  0  0
    4.2643   -4.3488    4.1424 H   0  0  0  0  0  0  0  0  0  0  0  0
    3.3442   -3.9344    2.8244 H   0  0  0  0  0  0  0  0  0  0  0  0
    0.4385   -7.7420    1.8880 H   0  0  0  0  0  0  0  0  0  0  0  0
    0.4754   -6.5065    0.7793 H   0  0  0  0  0  0  0  0  0  0  0  0
   -0.0916   -6.1662    2.4003 H   0  0  0  0  0  0  0  0  0  0  0  0
    3.2087   -5.1961    1.2796 H   0  0  0  0  0  0  0  0  0  0  0  0
    3.1255   -7.3592    0.6113 H   0  0  0  0  0  0  0  0  0  0  0  0
    4.1359   -7.3013    1.9246 H   0  0  0  0  0  0  0  0  0  0  0  0
    1.9350   -9.2584    1.1261 H   0  0  0  0  0  0  0  0  0  0  0  0
    3.5949   -9.5119    1.2218 H   0  0  0  0  0  0  0  0  0  0  0  0
    2.8950  -10.8370    2.7706 H   0  0  0  0  0  0  0  0  0  0  0  0
    4.7416   -9.9268    3.4024 H   0  0  0  0  0  0  0  0  0  0  0  0
    4.5582   -7.8609    5.9037 H   0  0  0  0  0  0  0  0  0  0  0  0
    6.0971   -6.8996    5.0245 H   0  0  0  0  0  0  0  0  0  0  0  0
    0.0805   -8.0489    6.5988 H   0  0  0  0  0  0  0  0  0  0  0  0
    1.3630   -9.3452    7.3037 H   0  0  0  0  0  0  0  0  0  0  0  0
    3.0746  -11.0036    7.1076 H   0  0  0  0  0  0  0  0  0  0  0  0
    5.1837   -9.9591    5.7360 H   0  0  0  0  0  0  0  0  0  0  0  0
    3.5621  -12.0834    5.0584 H   0  0  0  0  0  0  0  0  0  0  0  0
    0.1519   -9.3340    5.3246 H   0  0  0  0  0  0  0  0  0  0  0  0
   -0.9858   -8.7002    3.8777 H   0  0  0  0  0  0  0  0  0  0  0  0
   -0.7544  -10.5716    3.1359 H   0  0  0  0  0  0  0  0  0  0  0  0
    0.5076  -11.3008    2.1679 H   0  0  0  0  0  0  0  0  0  0  0  0
    0.0224   -9.6588    1.9171 H   0  0  0  0  0  0  0  0  0  0  0  0
    0.2487  -11.8550    4.5127 H   0  0  0  0  0  0  0  0  0  0  0  0
    1.2793  -11.2161    5.6645 H   0  0  0  0  0  0  0  0  0  0  0  0
    1.9440  -12.0782    4.2800 H   0  0  0  0  0  0  0  0  0  0  0  0
  1  2  1  0
  1 44  1  0
  1 45  1  0
  1 46  1  0
  2  3  2  0
  2  4  1  0
  5  4  1  1
  5 15  1  0
 31  5  1  1
  5  6  1  0
  6  7  1  0
  8  7  1  6
  7 47  1  0
  7 48  1  0
  8 15  1  0
  8  9  1  0
  8 16  1  0
  9 10  1  0
  9 49  1  0
  9 50  1  0
 10 11  1  0
 10 51  1  0
 10 52  1  0
 11 12  1  0
 11 13  1  0
 11 53  1  1
 12 54  1  0
 12 55  1  0
 12 56  1  0
 13 14  1  0
 13 15  2  0
 14 57  1  0
 14 58  1  0
 14 59  1  0
 16 18  1  0
 16 17  1  0
 16 60  1  6
 17 18  1  0
 18 19  1  0
 18 61  1  6
 19 31  1  0
 19 20  1  6
 19 21  1  0
 20 62  1  0
 20 63  1  0
 20 64  1  0
 21 22  1  0
 21 23  1  6
 21 24  1  0
 22 65  1  0
 22 66  1  0
 22 67  1  0
 23 68  1  0
 24 25  1  0
 24 69  1  0
 24 70  1  0
 25 26  1  0
 25 71  1  0
 25 72  1  0
 26 41  1  0
 26 27  1  0
 26 73  1  6
 27 37  1  0
 27 28  1  0
 27 74  1  6
 28 29  1  0
 29 30  1  0
 29 31  1  0
 29 75  1  1
 30 76  1  0
 31 32  1  0
 32 33  1  1
 32 34  1  0
 32 39  1  0
 33 77  1  0
 34 36  1  0
 34 35  1  0
 34 78  1  1
 35 36  1  0
 36 37  1  0
 36 79  1  1
 37 38  1  0
 37 80  1  1
 38 81  1  0
 39 40  1  0
 39 41  1  0
 39 82  1  1
 40 83  1  0
 41 42  1  0
 41 43  1  0
 42 84  1  0
 42 85  1  0
 42 86  1  0
 43 87  1  0
 43 88  1  0
 43 89  1  0
M  END
>  <i_m_ct_stereo_status>  (118) 
1

>  <s_m_source_file>  (118) 
/var/tmp/pbs.5076255.sched01/tmpx9mnojvb/44r91_cmns.sdf

>  <i_m_source_file_index>  (118) 
18

>  <i_lp_mmshare_version>  (118) 
48012

>  <i_f3d_flags>  (118) 
0

>  <s_epik_input>  (118) 
W0NIMl0xW0NIMl1bQ0BASF0oW0NIM10pQyhbQ0gzXSk9QyhbQ0BAXTEyMylbQ0BAXShPW0NIMl0yKShPQyg9TylbQ0gzXSlbQ0BAXTQ1W0NAXShbQ0gzXSkoW0NAQEhdNltDQEhdM082KVtDQEBdKFtDSDNdKShbT0hdKVtDSDJdW0NIMl1bQ0BIXTdbQ0BASF0oT1tDQEhdNFtPSF0pW0NASF0oW09IXSlbQ0BASF04W0NAQEhdKE84KVtDQF01KFtPSF0pW0NAQEhdKFtPSF0pQzcoW0NIM10pW0NIM10=

>  <s_epik_cmdline>  (118) 
J2VwaWtfcHl0aG9uJywgJy1waHQnLCAnMi4wJywgJy1waCcsICc3LjAnLCAnLXRuJywgJzgnLCAnLW1hJywgJzIwMCcsICctaW1hZScsICc8aW5maWxlLm1hZT4nLCAnLW9tYWUnLCAnPG91dGZpbGUubWFlPic=

>  <r_lp_tautomer_probability>  (118) 
1

>  <r_epik_Ionization_Penalty>  (118) 
1.08597e-06

>  <r_epik_Ionization_Penalty_Charging>  (118) 
0

>  <r_epik_Ionization_Penalty_Neutral>  (118) 
1.08597e-06

>  <r_epik_State_Penalty>  (118) 
-0

>  <r_epik_Charging_Adjusted_Penalty>  (118) 
0

>  <i_epik_Tot_Q>  (118) 
0

>  <i_epik_Tot_abs_Q>  (118) 
0

>  <s_epik_Chemistry_Notes>  (118) 
This compound has an ester and may undergo hydrolysis at high or low pH. This compound contains an acetal/aminal-like group ( X-CH(R)-Y where X, Y are N, S, or O) that may be acid/base labile, releasing an aldehyde.

>  <s_lp_Force_Field>  (118) 
OPLS3e

>  <r_lp_Energy>  (118) 
224.265

>  <b_lp_Chiralities_Consistent>  (118) 
1

>  <s_lp_Variant>  (118) 
29:0-1

>  <s_i_glide_gridfile>  (118) 
pfpi4k_grid

>  <i_i_glide_lignum>  (118) 
18

>  <i_i_glide_rotatable_bonds>  (118) 
7

>  <r_i_docking_score>  (118) 
-2.17083

>  <r_i_glide_ligand_efficiency>  (118) 
-0.0504844

>  <r_i_glide_ligand_efficiency_sa>  (118) 
-0.176867

>  <r_i_glide_ligand_efficiency_ln>  (118) 
-0.455942

>  <r_i_glide_gscore>  (118) 
-2.17083

>  <r_i_glide_lipo>  (118) 
-0.205505

>  <r_i_glide_hbond>  (118) 
0

>  <r_i_glide_metal>  (118) 
-0

>  <r_i_glide_rewards>  (118) 
0

>  <r_i_glide_evdw>  (118) 
-28.7401

>  <r_i_glide_ecoul>  (118) 
-3.90311

>  <r_i_glide_erotb>  (118) 
0.057142

>  <r_i_glide_esite>  (118) 
0

>  <r_i_glide_emodel>  (118) 
-37.051

>  <r_i_glide_energy>  (118) 
-32.6432

>  <r_i_glide_einternal>  (118) 
1.10111

>  <r_i_glide_intrahb_reward>  (118) 
-0

>  <i_i_glide_confnum>  (118) 
3

>  <i_i_glide_posenum>  (118) 
34

>  <r_i_glide_eff_state_penalty>  (118) 
0

>  <ligand_id>  (118) 
29

>  <original_smiles>  (118) 
CC(=O)OC12OCC3(CCC(C)C(C)=C31)C1OC1C1(C)C(C)(O)CCC3C4OC(O)C21C(O)(C1OC1C4O)C(O)C3(C)C

>  <smiles>  (118) 
[H]OC1([H])OC2([H])C([H])(O[H])C3([H])OC3([H])C3(O[H])C([H])(O[H])C(C([H])([H])[H])(C([H])([H])[H])C2([H])C([H])([H])C([H])([H])C(O[H])(C([H])([H])[H])C2(C([H])([H])[H])C4([H])OC4([H])C45C(=C(C([H])([H])[H])C([H])(C([H])([H])[H])C([H])([H])C4([H])[H])C(OC(=O)C([H])([H])[H])(OC5([H])[H])C132

$$$$
29:0:2
     RDKit          3D

 89 96  0  0  1  0  0  0  0  0999 V2000
    5.0767   -6.8442    9.3939 C   0  0  0  0  0  0  0  0  0  0  0  0
    4.4142   -5.7945    8.5033 C   0  0  0  0  0  0  0  0  0  0  0  0
    4.5375   -4.5963    8.7521 O   0  0  0  0  0  0  0  0  0  0  0  0
    3.6971   -6.3835    7.4931 O   0  0  0  0  0  0  0  0  0  0  0  0
    3.0330   -5.6368    6.4891 C   0  0  2  0  0  0  0  0  0  0  0  0
    3.8483   -4.5598    6.1207 O   0  0  0  0  0  0  0  0  0  0  0  0
    3.2192   -3.2803    6.2329 C   0  0  0  0  0  0  0  0  0  0  0  0
    1.7365   -3.5831    6.3722 C   0  0  2  0  0  0  0  0  0  0  0  0
    0.9656   -2.4535    7.1207 C   0  0  0  0  0  0  0  0  0  0  0  0
    0.7663   -2.6910    8.6133 C   0  0  0  0  0  0  0  0  0  0  0  0
    0.2176   -4.0967    8.8716 C   0  0  1  0  0  0  0  0  0  0  0  0
   -1.2292   -4.2953    8.3939 C   0  0  0  0  0  0  0  0  0  0  0  0
    1.1401   -5.1418    8.2676 C   0  0  0  0  0  0  0  0  0  0  0  0
    1.2393   -6.3859    9.1492 C   0  0  0  0  0  0  0  0  0  0  0  0
    1.8167   -4.8979    7.1028 C   0  0  0  0  0  0  0  0  0  0  0  0
    1.1058   -3.7416    5.0008 C   0  0  2  0  0  0  0  0  0  0  0  0
    0.3361   -4.9440    4.7718 O   0  0  0  0  0  0  0  0  0  0  0  0
    1.4381   -4.6994    3.8954 C   0  0  2  0  0  0  0  0  0  0  0  0
    2.5644   -5.7468    3.7153 C   0  0  2  0  0  0  0  0  0  0  0  0
    3.8119   -4.8403    3.3120 C   0  0  0  0  0  0  0  0  0  0  0  0
    2.2348   -6.4425    2.2400 C   0  0  1  0  0  0  0  0  0  0  0  0
    0.7736   -6.6665    1.7673 C   0  0  0  0  0  0  0  0  0  0  0  0
    2.4423   -5.4255    1.2492 O   0  0  0  0  0  0  0  0  0  0  0  0
    3.1839   -7.5484    1.6552 C   0  0  0  0  0  0  0  0  0  0  0  0
    2.8222   -9.0610    1.7527 C   0  0  0  0  0  0  0  0  0  0  0  0
    2.7063   -9.8215    3.1146 C   0  0  1  0  0  0  0  0  0  0  0  0
    3.9496   -9.5552    4.0203 C   0  0  1  0  0  0  0  0  0  0  0  0
    4.3747   -8.2076    3.9506 O   0  0  0  0  0  0  0  0  0  0  0  0
    4.2959   -7.3361    5.0059 C   0  0  1  0  0  0  0  0  0  0  0  0
    5.3882   -6.4524    4.9308 O   0  0  0  0  0  0  0  0  0  0  0  0
    2.8434   -6.6493    5.1369 C   0  0  1  0  0  0  0  0  0  0  0  0
    1.7815   -7.8832    5.5682 C   0  0  2  0  0  0  0  0  0  0  0  0
    0.7420   -7.2646    6.2939 O   0  0  0  0  0  0  0  0  0  0  0  0
    2.1978   -8.9380    6.6504 C   0  0  2  0  0  0  0  0  0  0  0  0
    3.4381   -8.9274    7.3531 O   0  0  0  0  0  0  0  0  0  0  0  0
    3.2113  -10.0685    6.5155 C   0  0  2  0  0  0  0  0  0  0  0  0
    4.1936  -10.2904    5.3719 C   0  0  1  0  0  0  0  0  0  0  0  0
    4.3555  -11.6783    5.1570 O   0  0  0  0  0  0  0  0  0  0  0  0
    0.8162   -8.7056    4.5947 C   0  0  1  0  0  0  0  0  0  0  0  0
   -0.2537   -7.9695    4.0340 O   0  0  0  0  0  0  0  0  0  0  0  0
    1.2751   -9.9568    3.7518 C   0  0  0  0  0  0  0  0  0  0  0  0
    0.2166  -10.3239    2.6690 C   0  0  0  0  0  0  0  0  0  0  0  0
    1.1757  -11.2758    4.5967 C   0  0  0  0  0  0  0  0  0  0  0  0
    4.3171   -7.4568    9.8753 H   0  0  0  0  0  0  0  0  0  0  0  0
    5.6807   -6.3768   10.1706 H   0  0  0  0  0  0  0  0  0  0  0  0
    5.7195   -7.4996    8.8083 H   0  0  0  0  0  0  0  0  0  0  0  0
    3.5933   -2.7690    7.1215 H   0  0  0  0  0  0  0  0  0  0  0  0
    3.4405   -2.6435    5.3750 H   0  0  0  0  0  0  0  0  0  0  0  0
    1.4624   -1.4957    6.9642 H   0  0  0  0  0  0  0  0  0  0  0  0
   -0.0291   -2.3304    6.6905 H   0  0  0  0  0  0  0  0  0  0  0  0
    1.7159   -2.5673    9.1331 H   0  0  0  0  0  0  0  0  0  0  0  0
    0.1003   -1.9370    9.0299 H   0  0  0  0  0  0  0  0  0  0  0  0
    0.2295   -4.2303    9.9531 H   0  0  0  0  0  0  0  0  0  0  0  0
   -1.6123   -5.2640    8.7152 H   0  0  0  0  0  0  0  0  0  0  0  0
   -1.3016   -4.2583    7.3045 H   0  0  0  0  0  0  0  0  0  0  0  0
   -1.8816   -3.5349    8.8176 H   0  0  0  0  0  0  0  0  0  0  0  0
    1.6776   -6.1305   10.1140 H   0  0  0  0  0  0  0  0  0  0  0  0
    1.8231   -7.1942    8.7223 H   0  0  0  0  0  0  0  0  0  0  0  0
    0.2434   -6.7872    9.3298 H   0  0  0  0  0  0  0  0  0  0  0  0
    0.6321   -2.8298    4.6358 H   0  0  0  0  0  0  0  0  0  0  0  0
    1.1523   -4.2397    2.9572 H   0  0  0  0  0  0  0  0  0  0  0  0
    4.5387   -5.3717    2.6974 H   0  0  0  0  0  0  0  0  0  0  0  0
    4.4175   -4.3812    4.0696 H   0  0  0  0  0  0  0  0  0  0  0  0
    3.5159   -3.9611    2.7405 H   0  0  0  0  0  0  0  0  0  0  0  0
    0.5114   -7.6972    1.8330 H   0  0  0  0  0  0  0  0  0  0  0  0
    0.5905   -6.4757    0.7061 H   0  0  0  0  0  0  0  0  0  0  0  0
    0.0313   -6.1021    2.3204 H   0  0  0  0  0  0  0  0  0  0  0  0
    2.6100   -5.8372    0.4144 H   0  0  0  0  0  0  0  0  0  0  0  0
    3.2371   -7.4168    0.5743 H   0  0  0  0  0  0  0  0  0  0  0  0
    4.2246   -7.3555    1.8957 H   0  0  0  0  0  0  0  0  0  0  0  0
    1.9744   -9.2640    1.1046 H   0  0  0  0  0  0  0  0  0  0  0  0
    3.6271   -9.5648    1.2137 H   0  0  0  0  0  0  0  0  0  0  0  0
    2.8828  -10.8445    2.7750 H   0  0  0  0  0  0  0  0  0  0  0  0
    4.7465   -9.9754    3.4044 H   0  0  0  0  0  0  0  0  0  0  0  0
    4.6038   -7.8748    5.8788 H   0  0  0  0  0  0  0  0  0  0  0  0
    6.1758   -6.9660    5.0035 H   0  0  0  0  0  0  0  0  0  0  0  0
    0.1348   -7.9320    6.5705 H   0  0  0  0  0  0  0  0  0  0  0  0
    1.3660   -9.2513    7.2798 H   0  0  0  0  0  0  0  0  0  0  0  0
    3.0319  -10.9562    7.1149 H   0  0  0  0  0  0  0  0  0  0  0  0
    5.1752   -9.9904    5.7418 H   0  0  0  0  0  0  0  0  0  0  0  0
    3.4995  -12.0774    5.0858 H   0  0  0  0  0  0  0  0  0  0  0  0
    0.1633   -9.2332    5.2929 H   0  0  0  0  0  0  0  0  0  0  0  0
   -0.9396   -8.5844    3.8113 H   0  0  0  0  0  0  0  0  0  0  0  0
   -0.7659  -10.4758    3.1137 H   0  0  0  0  0  0  0  0  0  0  0  0
    0.4833  -11.2529    2.1632 H   0  0  0  0  0  0  0  0  0  0  0  0
    0.0473   -9.6031    1.8881 H   0  0  0  0  0  0  0  0  0  0  0  0
    0.2109  -11.7739    4.5134 H   0  0  0  0  0  0  0  0  0  0  0  0
    1.2387  -11.1395    5.6676 H   0  0  0  0  0  0  0  0  0  0  0  0
    1.8942  -12.0379    4.2959 H   0  0  0  0  0  0  0  0  0  0  0  0
  1  2  1  0
  1 44  1  0
  1 45  1  0
  1 46  1  0
  2  3  2  0
  2  4  1  0
  5  4  1  1
  5 15  1  0
 31  5  1  1
  5  6  1  0
  6  7  1  0
  8  7  1  6
  7 47  1  0
  7 48  1  0
  8 15  1  0
  8  9  1  0
  8 16  1  0
  9 10  1  0
  9 49  1  0
  9 50  1  0
 10 11  1  0
 10 51  1  0
 10 52  1  0
 11 12  1  0
 11 13  1  0
 11 53  1  1
 12 54  1  0
 12 55  1  0
 12 56  1  0
 13 14  1  0
 13 15  2  0
 14 57  1  0
 14 58  1  0
 14 59  1  0
 16 18  1  0
 16 17  1  0
 16 60  1  6
 17 18  1  0
 18 19  1  0
 18 61  1  6
 19 31  1  0
 19 20  1  6
 19 21  1  0
 20 62  1  0
 20 63  1  0
 20 64  1  0
 21 22  1  0
 21 23  1  6
 21 24  1  0
 22 65  1  0
 22 66  1  0
 22 67  1  0
 23 68  1  0
 24 25  1  0
 24 69  1  0
 24 70  1  0
 25 26  1  0
 25 71  1  0
 25 72  1  0
 26 41  1  0
 26 27  1  0
 26 73  1  6
 27 37  1  0
 27 28  1  0
 27 74  1  6
 28 29  1  0
 29 30  1  0
 29 31  1  0
 29 75  1  1
 30 76  1  0
 31 32  1  0
 32 33  1  1
 32 34  1  0
 32 39  1  0
 33 77  1  0
 34 36  1  0
 34 35  1  0
 34 78  1  1
 35 36  1  0
 36 37  1  0
 36 79  1  1
 37 38  1  0
 37 80  1  1
 38 81  1  0
 39 40  1  0
 39 41  1  0
 39 82  1  1
 40 83  1  0
 41 42  1  0
 41 43  1  0
 42 84  1  0
 42 85  1  0
 42 86  1  0
 43 87  1  0
 43 88  1  0
 43 89  1  0
M  END
>  <i_m_ct_stereo_status>  (119) 
1

>  <s_m_source_file>  (119) 
/var/tmp/pbs.5076255.sched01/tmpx9mnojvb/44r91_cmns.sdf

>  <i_m_source_file_index>  (119) 
18

>  <i_lp_mmshare_version>  (119) 
48012

>  <i_f3d_flags>  (119) 
0

>  <s_epik_input>  (119) 
W0NIMl0xW0NIMl1bQ0BASF0oW0NIM10pQyhbQ0gzXSk9QyhbQ0BAXTEyMylbQ0BAXShPW0NIMl0yKShPQyg9TylbQ0gzXSlbQ0BAXTQ1W0NAXShbQ0gzXSkoW0NAQEhdNltDQEhdM082KVtDQEBdKFtDSDNdKShbT0hdKVtDSDJdW0NIMl1bQ0BIXTdbQ0BASF0oT1tDQEhdNFtPSF0pW0NASF0oW09IXSlbQ0BASF04W0NAQEhdKE84KVtDQF01KFtPSF0pW0NAQEhdKFtPSF0pQzcoW0NIM10pW0NIM10=

>  <s_epik_cmdline>  (119) 
J2VwaWtfcHl0aG9uJywgJy1waHQnLCAnMi4wJywgJy1waCcsICc3LjAnLCAnLXRuJywgJzgnLCAnLW1hJywgJzIwMCcsICctaW1hZScsICc8aW5maWxlLm1hZT4nLCAnLW9tYWUnLCAnPG91dGZpbGUubWFlPic=

>  <r_lp_tautomer_probability>  (119) 
1

>  <r_epik_Ionization_Penalty>  (119) 
1.08597e-06

>  <r_epik_Ionization_Penalty_Charging>  (119) 
0

>  <r_epik_Ionization_Penalty_Neutral>  (119) 
1.08597e-06

>  <r_epik_State_Penalty>  (119) 
-0

>  <r_epik_Charging_Adjusted_Penalty>  (119) 
0

>  <i_epik_Tot_Q>  (119) 
0

>  <i_epik_Tot_abs_Q>  (119) 
0

>  <s_epik_Chemistry_Notes>  (119) 
This compound has an ester and may undergo hydrolysis at high or low pH. This compound contains an acetal/aminal-like group ( X-CH(R)-Y where X, Y are N, S, or O) that may be acid/base labile, releasing an aldehyde.

>  <s_lp_Force_Field>  (119) 
OPLS3e

>  <r_lp_Energy>  (119) 
224.265

>  <b_lp_Chiralities_Consistent>  (119) 
1

>  <s_lp_Variant>  (119) 
29:0-1

>  <s_i_glide_gridfile>  (119) 
pfpi4k_grid

>  <i_i_glide_lignum>  (119) 
18

>  <i_i_glide_rotatable_bonds>  (119) 
7

>  <r_i_docking_score>  (119) 
-2.09252

>  <r_i_glide_ligand_efficiency>  (119) 
-0.0486632

>  <r_i_glide_ligand_efficiency_sa>  (119) 
-0.170487

>  <r_i_glide_ligand_efficiency_ln>  (119) 
-0.439494

>  <r_i_glide_gscore>  (119) 
-2.09252

>  <r_i_glide_lipo>  (119) 
-0.206066

>  <r_i_glide_hbond>  (119) 
0

>  <r_i_glide_metal>  (119) 
-0

>  <r_i_glide_rewards>  (119) 
0

>  <r_i_glide_evdw>  (119) 
-28.7991

>  <r_i_glide_ecoul>  (119) 
-3.3576

>  <r_i_glide_erotb>  (119) 
0.057142

>  <r_i_glide_esite>  (119) 
0

>  <r_i_glide_emodel>  (119) 
-36.0159

>  <r_i_glide_energy>  (119) 
-32.1567

>  <r_i_glide_einternal>  (119) 
1.48625

>  <r_i_glide_intrahb_reward>  (119) 
-0

>  <i_i_glide_confnum>  (119) 
1

>  <i_i_glide_posenum>  (119) 
16

>  <r_i_glide_eff_state_penalty>  (119) 
0

>  <ligand_id>  (119) 
29

>  <original_smiles>  (119) 
CC(=O)OC12OCC3(CCC(C)C(C)=C31)C1OC1C1(C)C(C)(O)CCC3C4OC(O)C21C(O)(C1OC1C4O)C(O)C3(C)C

>  <smiles>  (119) 
[H]OC1([H])OC2([H])C([H])(O[H])C3([H])OC3([H])C3(O[H])C([H])(O[H])C(C([H])([H])[H])(C([H])([H])[H])C2([H])C([H])([H])C([H])([H])C(O[H])(C([H])([H])[H])C2(C([H])([H])[H])C4([H])OC4([H])C45C(=C(C([H])([H])[H])C([H])(C([H])([H])[H])C([H])([H])C4([H])[H])C(OC(=O)C([H])([H])[H])(OC5([H])[H])C132

$$$$
30:0:0
     RDKit          3D

 45 48  0  0  1  0  0  0  0  0999 V2000
    6.0445   -2.6077   -1.7438 C   0  0  0  0  0  0  0  0  0  0  0  0
    4.6249   -2.2677   -1.2307 C   0  0  0  0  0  0  0  0  0  0  0  0
    4.0985   -1.0955   -2.0894 C   0  0  0  0  0  0  0  0  0  0  0  0
    3.7460   -3.4927   -1.5852 C   0  0  0  0  0  0  0  0  0  0  0  0
    2.4682   -3.7800   -0.7689 C   0  0  0  0  0  0  0  0  0  0  0  0
    2.5098   -4.9928    0.1995 C   0  0  0  0  0  0  0  0  0  0  0  0
    3.1159   -4.8602    1.6360 C   0  0  1  0  0  0  0  0  0  0  0  0
    2.1582   -5.6129    2.5912 C   0  0  0  0  0  0  0  0  0  0  0  0
    4.2880   -5.6664    1.7423 O   0  0  0  0  0  0  0  0  0  0  0  0
    5.4219   -5.2463    1.0046 C   0  0  0  0  0  0  0  0  0  0  0  0
    5.8573   -3.8620    1.4759 C   0  0  0  0  0  0  0  0  0  0  0  0
    4.7287   -2.8038    1.5058 C   0  0  2  0  0  0  0  0  0  0  0  0
    5.1538   -1.7960    2.5981 C   0  0  2  0  0  0  0  0  0  0  0  0
    4.4140   -2.0476    3.7464 O   0  0  0  0  0  0  0  0  0  0  0  0
    3.5162   -3.0194    3.5546 C   0  0  0  0  0  0  0  0  0  0  0  0
    2.7899   -3.4791    4.4308 O   0  0  0  0  0  0  0  0  0  0  0  0
    3.4169   -3.3805    2.0682 C   0  0  2  0  0  0  0  0  0  0  0  0
    4.9670   -0.5190    2.0795 O   0  0  0  0  0  0  0  0  0  0  0  0
    5.2376   -0.5863    0.7207 C   0  0  1  0  0  0  0  0  0  0  0  0
    6.6261   -0.6565    0.4822 O   0  0  0  0  0  0  0  0  0  0  0  0
    4.5091   -1.8576    0.2920 C   0  0  1  0  0  0  0  0  0  0  0  0
    6.0150   -2.9170   -2.7871 H   0  0  0  0  0  0  0  0  0  0  0  0
    6.5239   -3.4164   -1.2003 H   0  0  0  0  0  0  0  0  0  0  0  0
    6.7031   -1.7488   -1.7166 H   0  0  0  0  0  0  0  0  0  0  0  0
    3.0701   -0.8396   -1.8282 H   0  0  0  0  0  0  0  0  0  0  0  0
    4.1108   -1.3304   -3.1526 H   0  0  0  0  0  0  0  0  0  0  0  0
    4.7084   -0.2019   -1.9675 H   0  0  0  0  0  0  0  0  0  0  0  0
    3.4465   -3.4029   -2.6288 H   0  0  0  0  0  0  0  0  0  0  0  0
    4.3454   -4.3933   -1.6244 H   0  0  0  0  0  0  0  0  0  0  0  0
    2.0344   -2.8932   -0.3184 H   0  0  0  0  0  0  0  0  0  0  0  0
    1.7269   -4.0573   -1.5204 H   0  0  0  0  0  0  0  0  0  0  0  0
    1.4674   -5.2934    0.3085 H   0  0  0  0  0  0  0  0  0  0  0  0
    2.9521   -5.8525   -0.3068 H   0  0  0  0  0  0  0  0  0  0  0  0
    1.2244   -5.0748    2.7520 H   0  0  0  0  0  0  0  0  0  0  0  0
    2.6194   -5.7950    3.5630 H   0  0  0  0  0  0  0  0  0  0  0  0
    1.9134   -6.6020    2.1984 H   0  0  0  0  0  0  0  0  0  0  0  0
    6.2244   -5.9570    1.2033 H   0  0  0  0  0  0  0  0  0  0  0  0
    5.2509   -5.2991   -0.0603 H   0  0  0  0  0  0  0  0  0  0  0  0
    6.2193   -4.0115    2.4918 H   0  0  0  0  0  0  0  0  0  0  0  0
    6.7209   -3.4997    0.9236 H   0  0  0  0  0  0  0  0  0  0  0  0
    6.2127   -1.8736    2.8477 H   0  0  0  0  0  0  0  0  0  0  0  0
    2.5705   -2.7715    1.7706 H   0  0  0  0  0  0  0  0  0  0  0  0
    4.8527    0.3110    0.2452 H   0  0  0  0  0  0  0  0  0  0  0  0
    7.0504    0.0613    0.9503 H   0  0  0  0  0  0  0  0  0  0  0  0
    3.4784   -1.5205    0.3838 H   0  0  0  0  0  0  0  0  0  0  0  0
  1  2  1  0
  1 22  1  0
  1 23  1  0
  1 24  1  0
  2 21  1  0
  2  3  1  0
  2  4  1  0
  3 25  1  0
  3 26  1  0
  3 27  1  0
  4  5  1  0
  4 28  1  0
  4 29  1  0
  5  6  1  0
  5 30  1  0
  5 31  1  0
  6  7  1  0
  6 32  1  0
  6 33  1  0
  7 17  1  0
  7  8  1  1
  7  9  1  0
  8 34  1  0
  8 35  1  0
  8 36  1  0
  9 10  1  0
 10 11  1  0
 10 37  1  0
 10 38  1  0
 12 11  1  6
 11 39  1  0
 11 40  1  0
 12 17  1  0
 12 21  1  0
 12 13  1  0
 13 14  1  0
 13 18  1  0
 13 41  1  1
 14 15  1  0
 15 16  2  0
 15 17  1  0
 17 42  1  6
 18 19  1  0
 19 20  1  0
 19 21  1  0
 19 43  1  6
 20 44  1  0
 21 45  1  6
M  END
>  <i_m_ct_stereo_status>  (120) 
1

>  <s_m_source_file>  (120) 
/var/tmp/pbs.5076255.sched01/tmpx9mnojvb/44r91_cmns.sdf

>  <i_m_source_file_index>  (120) 
19

>  <i_lp_mmshare_version>  (120) 
48012

>  <i_f3d_flags>  (120) 
0

>  <s_epik_input>  (120) 
TzFbQ0BASF0oW09IXSlbQ0BIXTJDKFtDSDNdKShbQ0gzXSlbQ0gyXVtDSDJdW0NIMl1bQ0BAXShbQ0gzXSkoT1tDSDJdW0NIMl0zKVtDQEhdNEMoPU8pT1tDQEhdMVtDQEBdMjM0

>  <s_epik_cmdline>  (120) 
J2VwaWtfcHl0aG9uJywgJy1waHQnLCAnMi4wJywgJy1waCcsICc3LjAnLCAnLXRuJywgJzgnLCAnLW1hJywgJzIwMCcsICctaW1hZScsICc8aW5maWxlLm1hZT4nLCAnLW9tYWUnLCAnPG91dGZpbGUubWFlPic=

>  <r_lp_tautomer_probability>  (120) 
1

>  <r_epik_Ionization_Penalty>  (120) 
4.24672e-07

>  <r_epik_Ionization_Penalty_Charging>  (120) 
0

>  <r_epik_Ionization_Penalty_Neutral>  (120) 
4.24672e-07

>  <r_epik_State_Penalty>  (120) 
-0

>  <r_epik_Charging_Adjusted_Penalty>  (120) 
0

>  <i_epik_Tot_Q>  (120) 
0

>  <i_epik_Tot_abs_Q>  (120) 
0

>  <s_epik_Chemistry_Notes>  (120) 
This compound has an ester and may undergo hydrolysis at high or low pH. This compound contains an acetal/aminal-like group ( X-CH(R)-Y where X, Y are N, S, or O) that may be acid/base labile, releasing an aldehyde.

>  <s_lp_Force_Field>  (120) 
OPLS3e

>  <r_lp_Energy>  (120) 
42.2874

>  <b_lp_Chiralities_Consistent>  (120) 
1

>  <s_lp_Variant>  (120) 
30:0-1

>  <s_i_glide_gridfile>  (120) 
pfpi4k_grid

>  <i_i_glide_lignum>  (120) 
19

>  <i_i_glide_rotatable_bonds>  (120) 
1

>  <r_i_docking_score>  (120) 
-3.65288

>  <r_i_glide_ligand_efficiency>  (120) 
-0.173947

>  <r_i_glide_ligand_efficiency_sa>  (120) 
-0.479906

>  <r_i_glide_ligand_efficiency_ln>  (120) 
-0.903168

>  <r_i_glide_gscore>  (120) 
-3.65288

>  <r_i_glide_lipo>  (120) 
-0.173025

>  <r_i_glide_hbond>  (120) 
0

>  <r_i_glide_metal>  (120) 
-0

>  <r_i_glide_rewards>  (120) 
-1.70942

>  <r_i_glide_evdw>  (120) 
-21.0298

>  <r_i_glide_ecoul>  (120) 
-4.79295

>  <r_i_glide_erotb>  (120) 
0

>  <r_i_glide_esite>  (120) 
0

>  <r_i_glide_emodel>  (120) 
-31.2258

>  <r_i_glide_energy>  (120) 
-25.8227

>  <r_i_glide_einternal>  (120) 
0.524041

>  <r_i_glide_intrahb_reward>  (120) 
-0

>  <i_i_glide_confnum>  (120) 
1

>  <i_i_glide_posenum>  (120) 
40

>  <r_i_glide_eff_state_penalty>  (120) 
0

>  <ligand_id>  (120) 
30

>  <original_smiles>  (120) 
CC1(C)CCCC2(C)OCCC34C(OC(=O)C23)OC(O)C14

>  <smiles>  (120) 
[H]OC1([H])OC2([H])OC(=O)C3([H])C4(C([H])([H])[H])OC([H])([H])C([H])([H])C23C1([H])C(C([H])([H])[H])(C([H])([H])[H])C([H])([H])C([H])([H])C4([H])[H]

$$$$
30:0:1
     RDKit          3D

 45 48  0  0  1  0  0  0  0  0999 V2000
    6.3734   -2.9979   -1.7157 C   0  0  0  0  0  0  0  0  0  0  0  0
    4.9757   -2.4949   -1.2703 C   0  0  0  0  0  0  0  0  0  0  0  0
    4.6078   -1.3028   -2.1847 C   0  0  0  0  0  0  0  0  0  0  0  0
    3.9827   -3.6354   -1.6147 C   0  0  0  0  0  0  0  0  0  0  0  0
    2.6447   -3.7422   -0.8492 C   0  0  0  0  0  0  0  0  0  0  0  0
    2.5185   -4.9197    0.1561 C   0  0  0  0  0  0  0  0  0  0  0  0
    3.0787   -4.8062    1.6097 C   0  0  1  0  0  0  0  0  0  0  0  0
    2.0138   -5.4177    2.5508 C   0  0  0  0  0  0  0  0  0  0  0  0
    4.1520   -5.7293    1.7910 O   0  0  0  0  0  0  0  0  0  0  0  0
    5.3526   -5.4628    1.0908 C   0  0  0  0  0  0  0  0  0  0  0  0
    5.9205   -4.1166    1.5349 C   0  0  0  0  0  0  0  0  0  0  0  0
    4.9120   -2.9382    1.4822 C   0  0  2  0  0  0  0  0  0  0  0  0
    5.3902   -1.9362    2.5542 C   0  0  2  0  0  0  0  0  0  0  0  0
    4.5891   -2.0689    3.6797 O   0  0  0  0  0  0  0  0  0  0  0  0
    3.6058   -2.9497    3.4816 C   0  0  0  0  0  0  0  0  0  0  0  0
    2.8058   -3.3020    4.3489 O   0  0  0  0  0  0  0  0  0  0  0  0
    3.5260   -3.3532    2.0085 C   0  0  2  0  0  0  0  0  0  0  0  0
    5.3710   -0.6701    1.9817 O   0  0  0  0  0  0  0  0  0  0  0  0
    5.7036   -0.8195    0.6462 C   0  0  1  0  0  0  0  0  0  0  0  0
    7.0843   -1.0557    0.4815 O   0  0  0  0  0  0  0  0  0  0  0  0
    4.8492   -2.0204    0.2282 C   0  0  1  0  0  0  0  0  0  0  0  0
    6.3458   -3.3439   -2.7481 H   0  0  0  0  0  0  0  0  0  0  0  0
    6.7352   -3.8366   -1.1279 H   0  0  0  0  0  0  0  0  0  0  0  0
    7.1345   -2.2229   -1.6949 H   0  0  0  0  0  0  0  0  0  0  0  0
    3.6059   -0.9243   -1.9698 H   0  0  0  0  0  0  0  0  0  0  0  0
    4.6319   -1.5788   -3.2389 H   0  0  0  0  0  0  0  0  0  0  0  0
    5.3071   -0.4777   -2.0699 H   0  0  0  0  0  0  0  0  0  0  0  0
    3.7346   -3.5543   -2.6725 H   0  0  0  0  0  0  0  0  0  0  0  0
    4.4815   -4.5980   -1.6030 H   0  0  0  0  0  0  0  0  0  0  0  0
    2.2862   -2.7962   -0.4533 H   0  0  0  0  0  0  0  0  0  0  0  0
    1.9080   -3.9644   -1.6212 H   0  0  0  0  0  0  0  0  0  0  0  0
    1.4470   -5.1041    0.2266 H   0  0  0  0  0  0  0  0  0  0  0  0
    2.8813   -5.8403   -0.3056 H   0  0  0  0  0  0  0  0  0  0  0  0
    1.1400   -4.7741    2.6606 H   0  0  0  0  0  0  0  0  0  0  0  0
    2.4168   -5.6122    3.5465 H   0  0  0  0  0  0  0  0  0  0  0  0
    1.6758   -6.3864    2.1819 H   0  0  0  0  0  0  0  0  0  0  0  0
    6.0627   -6.2481    1.3457 H   0  0  0  0  0  0  0  0  0  0  0  0
    5.2189   -5.5365    0.0208 H   0  0  0  0  0  0  0  0  0  0  0  0
    6.2276   -4.2687    2.5681 H   0  0  0  0  0  0  0  0  0  0  0  0
    6.8387   -3.8809    1.0045 H   0  0  0  0  0  0  0  0  0  0  0  0
    6.4190   -2.1188    2.8529 H   0  0  0  0  0  0  0  0  0  0  0  0
    2.7628   -2.6657    1.6529 H   0  0  0  0  0  0  0  0  0  0  0  0
    5.4535    0.0992    0.1182 H   0  0  0  0  0  0  0  0  0  0  0  0
    7.2995   -1.8767    0.8915 H   0  0  0  0  0  0  0  0  0  0  0  0
    3.8571   -1.5712    0.2684 H   0  0  0  0  0  0  0  0  0  0  0  0
  1  2  1  0
  1 22  1  0
  1 23  1  0
  1 24  1  0
  2 21  1  0
  2  3  1  0
  2  4  1  0
  3 25  1  0
  3 26  1  0
  3 27  1  0
  4  5  1  0
  4 28  1  0
  4 29  1  0
  5  6  1  0
  5 30  1  0
  5 31  1  0
  6  7  1  0
  6 32  1  0
  6 33  1  0
  7 17  1  0
  7  8  1  1
  7  9  1  0
  8 34  1  0
  8 35  1  0
  8 36  1  0
  9 10  1  0
 10 11  1  0
 10 37  1  0
 10 38  1  0
 12 11  1  6
 11 39  1  0
 11 40  1  0
 12 17  1  0
 12 21  1  0
 12 13  1  0
 13 14  1  0
 13 18  1  0
 13 41  1  1
 14 15  1  0
 15 16  2  0
 15 17  1  0
 17 42  1  6
 18 19  1  0
 19 20  1  0
 19 21  1  0
 19 43  1  6
 20 44  1  0
 21 45  1  6
M  END
>  <i_m_ct_stereo_status>  (121) 
1

>  <s_m_source_file>  (121) 
/var/tmp/pbs.5076255.sched01/tmpx9mnojvb/44r91_cmns.sdf

>  <i_m_source_file_index>  (121) 
19

>  <i_lp_mmshare_version>  (121) 
48012

>  <i_f3d_flags>  (121) 
0

>  <s_epik_input>  (121) 
TzFbQ0BASF0oW09IXSlbQ0BIXTJDKFtDSDNdKShbQ0gzXSlbQ0gyXVtDSDJdW0NIMl1bQ0BAXShbQ0gzXSkoT1tDSDJdW0NIMl0zKVtDQEhdNEMoPU8pT1tDQEhdMVtDQEBdMjM0

>  <s_epik_cmdline>  (121) 
J2VwaWtfcHl0aG9uJywgJy1waHQnLCAnMi4wJywgJy1waCcsICc3LjAnLCAnLXRuJywgJzgnLCAnLW1hJywgJzIwMCcsICctaW1hZScsICc8aW5maWxlLm1hZT4nLCAnLW9tYWUnLCAnPG91dGZpbGUubWFlPic=

>  <r_lp_tautomer_probability>  (121) 
1

>  <r_epik_Ionization_Penalty>  (121) 
4.24672e-07

>  <r_epik_Ionization_Penalty_Charging>  (121) 
0

>  <r_epik_Ionization_Penalty_Neutral>  (121) 
4.24672e-07

>  <r_epik_State_Penalty>  (121) 
-0

>  <r_epik_Charging_Adjusted_Penalty>  (121) 
0

>  <i_epik_Tot_Q>  (121) 
0

>  <i_epik_Tot_abs_Q>  (121) 
0

>  <s_epik_Chemistry_Notes>  (121) 
This compound has an ester and may undergo hydrolysis at high or low pH. This compound contains an acetal/aminal-like group ( X-CH(R)-Y where X, Y are N, S, or O) that may be acid/base labile, releasing an aldehyde.

>  <s_lp_Force_Field>  (121) 
OPLS3e

>  <r_lp_Energy>  (121) 
42.2874

>  <b_lp_Chiralities_Consistent>  (121) 
1

>  <s_lp_Variant>  (121) 
30:0-1

>  <s_i_glide_gridfile>  (121) 
pfpi4k_grid

>  <i_i_glide_lignum>  (121) 
19

>  <i_i_glide_rotatable_bonds>  (121) 
1

>  <r_i_docking_score>  (121) 
-3.04026

>  <r_i_glide_ligand_efficiency>  (121) 
-0.144774

>  <r_i_glide_ligand_efficiency_sa>  (121) 
-0.399421

>  <r_i_glide_ligand_efficiency_ln>  (121) 
-0.751699

>  <r_i_glide_gscore>  (121) 
-3.04026

>  <r_i_glide_lipo>  (121) 
-0.218108

>  <r_i_glide_hbond>  (121) 
0

>  <r_i_glide_metal>  (121) 
-0

>  <r_i_glide_rewards>  (121) 
-1.65301

>  <r_i_glide_evdw>  (121) 
-21.3302

>  <r_i_glide_ecoul>  (121) 
-0.684226

>  <r_i_glide_erotb>  (121) 
0

>  <r_i_glide_esite>  (121) 
0

>  <r_i_glide_emodel>  (121) 
-26.7053

>  <r_i_glide_energy>  (121) 
-22.0144

>  <r_i_glide_einternal>  (121) 
0.0145575

>  <r_i_glide_intrahb_reward>  (121) 
-0

>  <i_i_glide_confnum>  (121) 
2

>  <i_i_glide_posenum>  (121) 
25

>  <r_i_glide_eff_state_penalty>  (121) 
0

>  <ligand_id>  (121) 
30

>  <original_smiles>  (121) 
CC1(C)CCCC2(C)OCCC34C(OC(=O)C23)OC(O)C14

>  <smiles>  (121) 
[H]OC1([H])OC2([H])OC(=O)C3([H])C4(C([H])([H])[H])OC([H])([H])C([H])([H])C23C1([H])C(C([H])([H])[H])(C([H])([H])[H])C([H])([H])C([H])([H])C4([H])[H]

$$$$
30:0:2
     RDKit          3D

 45 48  0  0  1  0  0  0  0  0999 V2000
    7.3788   -2.5582    0.7892 C   0  0  0  0  0  0  0  0  0  0  0  0
    5.9491   -2.0115    1.0330 C   0  0  0  0  0  0  0  0  0  0  0  0
    5.9100   -1.1639    2.3257 C   0  0  0  0  0  0  0  0  0  0  0  0
    5.7026   -1.0259   -0.1231 C   0  0  0  0  0  0  0  0  0  0  0  0
    4.2445   -0.7648   -0.5230 C   0  0  0  0  0  0  0  0  0  0  0  0
    3.7934   -1.2985   -1.9037 C   0  0  0  0  0  0  0  0  0  0  0  0
    3.3021   -2.7615   -2.0058 C   0  0  1  0  0  0  0  0  0  0  0  0
    2.1107   -2.7915   -2.9560 C   0  0  0  0  0  0  0  0  0  0  0  0
    4.1948   -3.4642   -2.8315 O   0  0  0  0  0  0  0  0  0  0  0  0
    5.4259   -3.7493   -2.2415 C   0  0  0  0  0  0  0  0  0  0  0  0
    5.2621   -4.5876   -0.9645 C   0  0  0  0  0  0  0  0  0  0  0  0
    4.2972   -4.0026    0.0723 C   0  0  2  0  0  0  0  0  0  0  0  0
    3.7714   -5.2047    0.8883 C   0  0  2  0  0  0  0  0  0  0  0  0
    2.4818   -5.4842    0.4697 O   0  0  0  0  0  0  0  0  0  0  0  0
    2.0982   -4.6294   -0.4834 C   0  0  0  0  0  0  0  0  0  0  0  0
    1.0522   -4.7522   -1.1184 O   0  0  0  0  0  0  0  0  0  0  0  0
    3.0429   -3.4469   -0.6065 C   0  0  2  0  0  0  0  0  0  0  0  0
    3.8316   -4.8561    2.2285 O   0  0  0  0  0  0  0  0  0  0  0  0
    4.9495   -4.0623    2.3846 C   0  0  1  0  0  0  0  0  0  0  0  0
    6.1268   -4.8501    2.3646 O   0  0  0  0  0  0  0  0  0  0  0  0
    4.8304   -3.0974    1.1888 C   0  0  1  0  0  0  0  0  0  0  0  0
    8.0964   -1.7329    0.6925 H   0  0  0  0  0  0  0  0  0  0  0  0
    7.4907   -3.1545   -0.1193 H   0  0  0  0  0  0  0  0  0  0  0  0
    7.7157   -3.1779    1.6056 H   0  0  0  0  0  0  0  0  0  0  0  0
    4.9517   -0.6707    2.4949 H   0  0  0  0  0  0  0  0  0  0  0  0
    6.6751   -0.3943    2.3321 H   0  0  0  0  0  0  0  0  0  0  0  0
    6.1074   -1.7816    3.1967 H   0  0  0  0  0  0  0  0  0  0  0  0
    6.1536   -0.0683    0.1483 H   0  0  0  0  0  0  0  0  0  0  0  0
    6.2707   -1.2780   -1.0058 H   0  0  0  0  0  0  0  0  0  0  0  0
    3.5125   -0.8835    0.2706 H   0  0  0  0  0  0  0  0  0  0  0  0
    4.2215    0.2996   -0.6194 H   0  0  0  0  0  0  0  0  0  0  0  0
    2.9591   -0.6661   -2.2073 H   0  0  0  0  0  0  0  0  0  0  0  0
    4.5478   -1.0996   -2.6692 H   0  0  0  0  0  0  0  0  0  0  0  0
    1.2626   -2.4270   -2.4022 H   0  0  0  0  0  0  0  0  0  0  0  0
    1.8788   -3.8027   -3.2829 H   0  0  0  0  0  0  0  0  0  0  0  0
    2.2498   -2.1741   -3.8483 H   0  0  0  0  0  0  0  0  0  0  0  0
    5.9278   -4.2868   -3.0291 H   0  0  0  0  0  0  0  0  0  0  0  0
    6.0306   -2.8700   -2.1100 H   0  0  0  0  0  0  0  0  0  0  0  0
    4.9108   -5.5704   -1.2808 H   0  0  0  0  0  0  0  0  0  0  0  0
    6.2122   -4.7959   -0.4905 H   0  0  0  0  0  0  0  0  0  0  0  0
    4.3947   -6.0916    0.7410 H   0  0  0  0  0  0  0  0  0  0  0  0
    2.5350   -2.7153    0.0229 H   0  0  0  0  0  0  0  0  0  0  0  0
    4.8853   -3.5653    3.3505 H   0  0  0  0  0  0  0  0  0  0  0  0
    6.1252   -5.3796    3.1458 H   0  0  0  0  0  0  0  0  0  0  0  0
    3.9638   -2.5152    1.4964 H   0  0  0  0  0  0  0  0  0  0  0  0
  1  2  1  0
  1 22  1  0
  1 23  1  0
  1 24  1  0
  2 21  1  0
  2  3  1  0
  2  4  1  0
  3 25  1  0
  3 26  1  0
  3 27  1  0
  4  5  1  0
  4 28  1  0
  4 29  1  0
  5  6  1  0
  5 30  1  0
  5 31  1  0
  6  7  1  0
  6 32  1  0
  6 33  1  0
  7 17  1  0
  7  8  1  6
  7  9  1  0
  8 34  1  0
  8 35  1  0
  8 36  1  0
  9 10  1  0
 10 11  1  0
 10 37  1  0
 10 38  1  0
 12 11  1  6
 11 39  1  0
 11 40  1  0
 12 17  1  0
 12 21  1  0
 12 13  1  0
 13 14  1  0
 13 18  1  0
 13 41  1  1
 14 15  1  0
 15 16  2  0
 15 17  1  0
 17 42  1  1
 18 19  1  0
 19 20  1  0
 19 21  1  0
 19 43  1  1
 20 44  1  0
 21 45  1  1
M  END
>  <i_m_ct_stereo_status>  (122) 
1

>  <s_m_source_file>  (122) 
/var/tmp/pbs.5076255.sched01/tmpx9mnojvb/44r91_cmns.sdf

>  <i_m_source_file_index>  (122) 
19

>  <i_lp_mmshare_version>  (122) 
48012

>  <i_f3d_flags>  (122) 
0

>  <s_epik_input>  (122) 
TzFbQ0BASF0oW09IXSlbQ0BIXTJDKFtDSDNdKShbQ0gzXSlbQ0gyXVtDSDJdW0NIMl1bQ0BAXShbQ0gzXSkoT1tDSDJdW0NIMl0zKVtDQEhdNEMoPU8pT1tDQEhdMVtDQEBdMjM0

>  <s_epik_cmdline>  (122) 
J2VwaWtfcHl0aG9uJywgJy1waHQnLCAnMi4wJywgJy1waCcsICc3LjAnLCAnLXRuJywgJzgnLCAnLW1hJywgJzIwMCcsICctaW1hZScsICc8aW5maWxlLm1hZT4nLCAnLW9tYWUnLCAnPG91dGZpbGUubWFlPic=

>  <r_lp_tautomer_probability>  (122) 
1

>  <r_epik_Ionization_Penalty>  (122) 
4.24672e-07

>  <r_epik_Ionization_Penalty_Charging>  (122) 
0

>  <r_epik_Ionization_Penalty_Neutral>  (122) 
4.24672e-07

>  <r_epik_State_Penalty>  (122) 
-0

>  <r_epik_Charging_Adjusted_Penalty>  (122) 
0

>  <i_epik_Tot_Q>  (122) 
0

>  <i_epik_Tot_abs_Q>  (122) 
0

>  <s_epik_Chemistry_Notes>  (122) 
This compound has an ester and may undergo hydrolysis at high or low pH. This compound contains an acetal/aminal-like group ( X-CH(R)-Y where X, Y are N, S, or O) that may be acid/base labile, releasing an aldehyde.

>  <s_lp_Force_Field>  (122) 
OPLS3e

>  <r_lp_Energy>  (122) 
42.2874

>  <b_lp_Chiralities_Consistent>  (122) 
1

>  <s_lp_Variant>  (122) 
30:0-1

>  <s_i_glide_gridfile>  (122) 
pfpi4k_grid

>  <i_i_glide_lignum>  (122) 
19

>  <i_i_glide_rotatable_bonds>  (122) 
1

>  <r_i_docking_score>  (122) 
-2.82542

>  <r_i_glide_ligand_efficiency>  (122) 
-0.134544

>  <r_i_glide_ligand_efficiency_sa>  (122) 
-0.371196

>  <r_i_glide_ligand_efficiency_ln>  (122) 
-0.698579

>  <r_i_glide_gscore>  (122) 
-2.82542

>  <r_i_glide_lipo>  (122) 
-0.579484

>  <r_i_glide_hbond>  (122) 
-0.141676

>  <r_i_glide_metal>  (122) 
-0

>  <r_i_glide_rewards>  (122) 
-1.43781

>  <r_i_glide_evdw>  (122) 
-6.57921

>  <r_i_glide_ecoul>  (122) 
-1.71569

>  <r_i_glide_erotb>  (122) 
0

>  <r_i_glide_esite>  (122) 
-0.0801346

>  <r_i_glide_emodel>  (122) 
-12.2871

>  <r_i_glide_energy>  (122) 
-8.2949

>  <r_i_glide_einternal>  (122) 
0.274648

>  <r_i_glide_intrahb_reward>  (122) 
-0

>  <i_i_glide_confnum>  (122) 
2

>  <i_i_glide_posenum>  (122) 
12

>  <r_i_glide_eff_state_penalty>  (122) 
0

>  <ligand_id>  (122) 
30

>  <original_smiles>  (122) 
CC1(C)CCCC2(C)OCCC34C(OC(=O)C23)OC(O)C14

>  <smiles>  (122) 
[H]OC1([H])OC2([H])OC(=O)C3([H])C4(C([H])([H])[H])OC([H])([H])C([H])([H])C23C1([H])C(C([H])([H])[H])(C([H])([H])[H])C([H])([H])C([H])([H])C4([H])[H]

$$$$
31:0:0
     RDKit          3D

 71 75  0  0  1  0  0  0  0  0999 V2000
    3.5884   -0.5632    3.2845 C   0  0  0  0  0  0  0  0  0  0  0  0
    3.4189   -1.7907    2.3688 C   0  0  0  0  0  0  0  0  0  0  0  0
    1.9516   -2.2544    2.5007 C   0  0  0  0  0  0  0  0  0  0  0  0
    3.6068   -1.3009    0.9161 C   0  0  0  0  0  0  0  0  0  0  0  0
    3.4480   -2.4466   -0.0771 C   0  0  0  0  0  0  0  0  0  0  0  0
    4.5216   -3.5134    0.1531 C   0  0  0  0  0  0  0  0  0  0  0  0
    4.7581   -4.0182    1.6218 C   0  0  1  0  0  0  0  0  0  0  0  0
    6.2728   -4.3935    1.6023 C   0  0  0  0  0  0  0  0  0  0  0  0
    4.5672   -2.8490    2.6543 C   0  0  2  0  0  0  0  0  0  0  0  0
    4.7633   -3.3561    4.1088 C   0  0  0  0  0  0  0  0  0  0  0  0
    3.9026   -4.5665    4.5343 C   0  0  1  0  0  0  0  0  0  0  0  0
    2.6632   -3.9933    4.8617 O   0  0  0  0  0  0  0  0  0  0  0  0
    3.9221   -5.7890    3.5278 C   0  0  2  0  0  0  0  0  0  0  0  0
    5.2993   -6.4875    3.8162 C   0  0  0  0  0  0  0  0  0  0  0  0
    3.8649   -5.2787    2.0200 C   0  0  2  0  0  0  0  0  0  0  0  0
    4.0025   -6.4313    0.9895 C   0  0  0  0  0  0  0  0  0  0  0  0
    3.6560   -7.8366    1.4981 C   0  0  0  0  0  0  0  0  0  0  0  0
    2.5638   -7.9358    2.5914 C   0  0  1  0  0  0  0  0  0  0  0  0
    2.5663   -9.4021    3.1093 C   0  0  1  0  0  0  0  0  0  0  0  0
    3.6250   -9.7643    3.9690 O   0  0  0  0  0  0  0  0  0  0  0  0
    1.1899   -9.6630    3.7480 C   0  0  0  0  0  0  0  0  0  0  0  0
    0.3034   -8.5020    3.2678 C   0  0  1  0  0  0  0  0  0  0  0  0
   -1.1162   -9.0105    2.9135 C   0  0  0  0  0  0  0  0  0  0  0  0
    0.2440   -7.4327    4.3886 C   0  0  0  0  0  0  0  0  0  0  0  0
    1.4289   -6.4407    4.3922 C   0  0  0  0  0  0  0  0  0  0  0  0
    2.7890   -6.9048    3.7840 C   0  0  2  0  0  0  0  0  0  0  0  0
    1.0983   -7.9632    2.0454 C   0  0  1  0  0  0  0  0  0  0  0  0
    0.4836   -6.7230    1.3467 C   0  0  0  0  0  0  0  0  0  0  0  0
    1.0101   -6.2580    0.3149 O   0  0  0  0  0  0  0  0  0  0  0  0
   -0.5790   -6.2820    1.8203 O   0  0  0  0  0  0  0  0  0  0  0  0
    2.9077    0.2365    2.9862 H   0  0  0  0  0  0  0  0  0  0  0  0
    4.6007   -0.1669    3.2526 H   0  0  0  0  0  0  0  0  0  0  0  0
    3.3480   -0.8077    4.3205 H   0  0  0  0  0  0  0  0  0  0  0  0
    1.7672   -3.2229    2.0583 H   0  0  0  0  0  0  0  0  0  0  0  0
    1.2837   -1.5597    1.9829 H   0  0  0  0  0  0  0  0  0  0  0  0
    1.5992   -2.2811    3.5325 H   0  0  0  0  0  0  0  0  0  0  0  0
    2.8923   -0.5064    0.6767 H   0  0  0  0  0  0  0  0  0  0  0  0
    4.5937   -0.8647    0.7897 H   0  0  0  0  0  0  0  0  0  0  0  0
    2.4484   -2.8842   -0.0459 H   0  0  0  0  0  0  0  0  0  0  0  0
    3.5540   -2.0551   -1.0851 H   0  0  0  0  0  0  0  0  0  0  0  0
    4.3279   -4.3283   -0.5255 H   0  0  0  0  0  0  0  0  0  0  0  0
    5.4516   -3.0669   -0.2335 H   0  0  0  0  0  0  0  0  0  0  0  0
    6.6685   -4.7184    2.5520 H   0  0  0  0  0  0  0  0  0  0  0  0
    6.8820   -3.5347    1.3217 H   0  0  0  0  0  0  0  0  0  0  0  0
    6.5273   -5.1596    0.8729 H   0  0  0  0  0  0  0  0  0  0  0  0
    5.4558   -2.2354    2.5076 H   0  0  0  0  0  0  0  0  0  0  0  0
    5.8118   -3.6250    4.2307 H   0  0  0  0  0  0  0  0  0  0  0  0
    4.6433   -2.5359    4.8153 H   0  0  0  0  0  0  0  0  0  0  0  0
    4.2776   -4.9183    5.5023 H   0  0  0  0  0  0  0  0  0  0  0  0
    2.8012   -3.3421    5.5361 H   0  0  0  0  0  0  0  0  0  0  0  0
    5.7817   -6.8787    2.9271 H   0  0  0  0  0  0  0  0  0  0  0  0
    5.2276   -7.3205    4.5148 H   0  0  0  0  0  0  0  0  0  0  0  0
    6.0281   -5.8248    4.2813 H   0  0  0  0  0  0  0  0  0  0  0  0
    2.8234   -4.9680    1.9155 H   0  0  0  0  0  0  0  0  0  0  0  0
    3.3820   -6.2073    0.1290 H   0  0  0  0  0  0  0  0  0  0  0  0
    5.0179   -6.5004    0.5796 H   0  0  0  0  0  0  0  0  0  0  0  0
    3.3827   -8.4608    0.6514 H   0  0  0  0  0  0  0  0  0  0  0  0
    4.5557   -8.3131    1.8856 H   0  0  0  0  0  0  0  0  0  0  0  0
    2.6378  -10.0837    2.2494 H   0  0  0  0  0  0  0  0  0  0  0  0
    3.5540  -10.6951    4.1389 H   0  0  0  0  0  0  0  0  0  0  0  0
    0.8011  -10.6260    3.4151 H   0  0  0  0  0  0  0  0  0  0  0  0
    1.2524   -9.7212    4.8400 H   0  0  0  0  0  0  0  0  0  0  0  0
   -1.7950   -8.2221    2.5961 H   0  0  0  0  0  0  0  0  0  0  0  0
   -1.5890   -9.4595    3.7841 H   0  0  0  0  0  0  0  0  0  0  0  0
   -1.0872   -9.7561    2.1190 H   0  0  0  0  0  0  0  0  0  0  0  0
   -0.6637   -6.8416    4.2841 H   0  0  0  0  0  0  0  0  0  0  0  0
    0.1309   -7.9063    5.3666 H   0  0  0  0  0  0  0  0  0  0  0  0
    1.0895   -5.5413    3.8673 H   0  0  0  0  0  0  0  0  0  0  0  0
    1.5884   -6.1660    5.4275 H   0  0  0  0  0  0  0  0  0  0  0  0
    3.1571   -7.4851    4.6392 H   0  0  0  0  0  0  0  0  0  0  0  0
    1.0542   -8.7316    1.2700 H   0  0  0  0  0  0  0  0  0  0  0  0
  1  2  1  0
  1 31  1  0
  1 32  1  0
  1 33  1  0
  2  9  1  0
  2  3  1  0
  2  4  1  0
  3 34  1  0
  3 35  1  0
  3 36  1  0
  4  5  1  0
  4 37  1  0
  4 38  1  0
  5  6  1  0
  5 39  1  0
  5 40  1  0
  6  7  1  0
  6 41  1  0
  6 42  1  0
  7 15  1  0
  7  8  1  6
  7  9  1  0
  8 43  1  0
  8 44  1  0
  8 45  1  0
  9 10  1  0
  9 46  1  6
 10 11  1  0
 10 47  1  0
 10 48  1  0
 11 12  1  0
 11 13  1  0
 11 49  1  1
 12 50  1  0
 13 26  1  0
 13 14  1  6
 13 15  1  0
 14 51  1  0
 14 52  1  0
 14 53  1  0
 15 16  1  0
 15 54  1  6
 16 17  1  0
 16 55  1  0
 16 56  1  0
 18 17  1  6
 17 57  1  0
 17 58  1  0
 18 26  1  0
 18 27  1  0
 18 19  1  0
 19 20  1  0
 19 21  1  0
 19 59  1  6
 20 60  1  0
 21 22  1  0
 21 61  1  0
 21 62  1  0
 22 23  1  6
 22 24  1  0
 22 27  1  0
 23 63  1  0
 23 64  1  0
 23 65  1  0
 24 25  1  0
 24 66  1  0
 24 67  1  0
 25 26  1  0
 25 68  1  0
 25 69  1  0
 26 70  1  1
 27 28  1  0
 27 71  1  6
 28 29  2  0
 28 30  1  0
M  CHG  1  30  -1
M  END
>  <i_m_ct_stereo_status>  (123) 
1

>  <s_m_source_file>  (123) 
/var/tmp/pbs.5076255.sched01/tmpx9mnojvb/44r91_cmns.sdf

>  <i_m_source_file_index>  (123) 
20

>  <i_lp_mmshare_version>  (123) 
48012

>  <i_f3d_flags>  (123) 
0

>  <s_epik_input>  (123) 
W0NIMl0xW0NIMl1bQ0gyXUMoW0NIM10pKFtDSDNdKVtDQEBIXShbQ0gyXVtDQEhdMltPSF0pW0NAQF0xKFtDSDNdKVtDQEBIXShbQ0gyXVtDSDJdMylbQ0BdMihbQ0gzXSlbQ0BIXShbQ0BAXTM0NSlbQ0gyXVtDSDJdW0NAXShbQ0gzXSkoW0NIMl1bQ0BASF00W09IXSlbQ0BIXTVDKD1PKVtPSF0=

>  <s_epik_cmdline>  (123) 
J2VwaWtfcHl0aG9uJywgJy1waHQnLCAnMi4wJywgJy1waCcsICc3LjAnLCAnLXRuJywgJzgnLCAnLW1hJywgJzIwMCcsICctaW1hZScsICc8aW5maWxlLm1hZT4nLCAnLW9tYWUnLCAnPG91dGZpbGUubWFlPic=

>  <r_epik_Ionization_Penalty>  (123) 
0.000723091

>  <r_epik_Ionization_Penalty_Charging>  (123) 
0.000713032

>  <r_epik_Ionization_Penalty_Neutral>  (123) 
1.0059e-05

>  <r_epik_State_Penalty>  (123) 
0.000454334

>  <r_epik_Charging_Adjusted_Penalty>  (123) 
0.00116737

>  <i_epik_Tot_Q>  (123) 
-1

>  <i_epik_Tot_abs_Q>  (123) 
1

>  <s_lp_Force_Field>  (123) 
OPLS3e

>  <r_lp_Energy>  (123) 
102.322

>  <b_lp_Chiralities_Consistent>  (123) 
1

>  <s_lp_Variant>  (123) 
31:0-1

>  <s_i_glide_gridfile>  (123) 
pfpi4k_grid

>  <i_i_glide_lignum>  (123) 
20

>  <i_i_glide_rotatable_bonds>  (123) 
3

>  <r_i_docking_score>  (123) 
-3.94898

>  <r_i_glide_ligand_efficiency>  (123) 
-0.131633

>  <r_i_glide_ligand_efficiency_sa>  (123) 
-0.409013

>  <r_i_glide_ligand_efficiency_ln>  (123) 
-0.89725

>  <r_i_glide_gscore>  (123) 
-3.94898

>  <r_i_glide_lipo>  (123) 
-0.298645

>  <r_i_glide_hbond>  (123) 
-0.588518

>  <r_i_glide_metal>  (123) 
-0

>  <r_i_glide_rewards>  (123) 
-0.561809

>  <r_i_glide_evdw>  (123) 
-25.9934

>  <r_i_glide_ecoul>  (123) 
-7.33555

>  <r_i_glide_erotb>  (123) 
0

>  <r_i_glide_esite>  (123) 
-0.1

>  <r_i_glide_emodel>  (123) 
-43.8998

>  <r_i_glide_energy>  (123) 
-33.329

>  <r_i_glide_einternal>  (123) 
0.97895

>  <r_i_glide_intrahb_reward>  (123) 
-0

>  <i_i_glide_confnum>  (123) 
1

>  <i_i_glide_posenum>  (123) 
1

>  <r_i_glide_eff_state_penalty>  (123) 
0

>  <ligand_id>  (123) 
31

>  <original_smiles>  (123) 
CC1(C)CCCC2(C)C1CC(O)C1(C)C2CCC23C(O)CC(C)(CCC12)C3C(=O)O

>  <smiles>  (123) 
[H]OC1([H])C([H])([H])C2(C([H])([H])[H])C([H])([H])C([H])([H])C3([H])C1(C([H])([H])C([H])([H])C1([H])C4(C([H])([H])[H])C([H])([H])C([H])([H])C([H])([H])C(C([H])([H])[H])(C([H])([H])[H])C4([H])C([H])([H])C([H])(O[H])C31C([H])([H])[H])C2([H])C(=O)[O-]

$$$$
31:0:1
     RDKit          3D

 71 75  0  0  1  0  0  0  0  0999 V2000
    3.6686  -11.7888    4.8166 C   0  0  0  0  0  0  0  0  0  0  0  0
    2.7649  -10.6361    4.3292 C   0  0  0  0  0  0  0  0  0  0  0  0
    3.2838  -10.2195    2.9274 C   0  0  0  0  0  0  0  0  0  0  0  0
    1.3546  -11.2194    4.1258 C   0  0  0  0  0  0  0  0  0  0  0  0
    0.3881  -10.1500    3.6249 C   0  0  0  0  0  0  0  0  0  0  0  0
    0.2365   -9.0364    4.6640 C   0  0  0  0  0  0  0  0  0  0  0  0
    1.5412   -8.4199    5.2913 C   0  0  1  0  0  0  0  0  0  0  0  0
    1.0659   -7.9926    6.7164 C   0  0  0  0  0  0  0  0  0  0  0  0
    2.6481   -9.5193    5.4555 C   0  0  2  0  0  0  0  0  0  0  0  0
    3.9579   -8.9054    6.0212 C   0  0  0  0  0  0  0  0  0  0  0  0
    4.5393   -7.6985    5.2515 C   0  0  1  0  0  0  0  0  0  0  0  0
    5.2453   -8.2901    4.1914 O   0  0  0  0  0  0  0  0  0  0  0  0
    3.5004   -6.5504    4.9195 C   0  0  2  0  0  0  0  0  0  0  0  0
    3.3395   -5.7784    6.2750 C   0  0  0  0  0  0  0  0  0  0  0  0
    2.1098   -7.1758    4.4791 C   0  0  2  0  0  0  0  0  0  0  0  0
    1.0244   -6.1081    4.1699 C   0  0  0  0  0  0  0  0  0  0  0  0
    1.5107   -4.6762    3.9376 C   0  0  0  0  0  0  0  0  0  0  0  0
    2.8685   -4.5323    3.2200 C   0  0  1  0  0  0  0  0  0  0  0  0
    3.2752   -3.0291    3.2922 C   0  0  1  0  0  0  0  0  0  0  0  0
    3.7450   -2.5610    4.5403 O   0  0  0  0  0  0  0  0  0  0  0  0
    4.2574   -2.7865    2.1378 C   0  0  0  0  0  0  0  0  0  0  0  0
    4.1136   -4.0212    1.2131 C   0  0  1  0  0  0  0  0  0  0  0  0
    4.1584   -3.5962   -0.2715 C   0  0  0  0  0  0  0  0  0  0  0  0
    5.2657   -5.0027    1.5287 C   0  0  0  0  0  0  0  0  0  0  0  0
    5.0352   -5.9187    2.7495 C   0  0  0  0  0  0  0  0  0  0  0  0
    4.0025   -5.4688    3.8325 C   0  0  2  0  0  0  0  0  0  0  0  0
    2.7431   -4.5864    1.6603 C   0  0  1  0  0  0  0  0  0  0  0  0
    2.2236   -5.8691    0.9601 C   0  0  0  0  0  0  0  0  0  0  0  0
    2.7055   -6.9779    1.2565 O   0  0  0  0  0  0  0  0  0  0  0  0
    1.2983   -5.7398    0.1275 O   0  0  0  0  0  0  0  0  0  0  0  0
    3.6207  -12.6352    4.1284 H   0  0  0  0  0  0  0  0  0  0  0  0
    3.3687  -12.1499    5.8026 H   0  0  0  0  0  0  0  0  0  0  0  0
    4.7143  -11.4827    4.8670 H   0  0  0  0  0  0  0  0  0  0  0  0
    2.8444   -9.3016    2.5521 H   0  0  0  0  0  0  0  0  0  0  0  0
    3.0283  -10.9812    2.1864 H   0  0  0  0  0  0  0  0  0  0  0  0
    4.3660  -10.1241    2.8787 H   0  0  0  0  0  0  0  0  0  0  0  0
    1.3754  -12.0604    3.4295 H   0  0  0  0  0  0  0  0  0  0  0  0
    0.9768  -11.6249    5.0658 H   0  0  0  0  0  0  0  0  0  0  0  0
    0.6803   -9.7529    2.6558 H   0  0  0  0  0  0  0  0  0  0  0  0
   -0.5856  -10.6148    3.4703 H   0  0  0  0  0  0  0  0  0  0  0  0
   -0.4121   -8.2724    4.2485 H   0  0  0  0  0  0  0  0  0  0  0  0
   -0.3669   -9.4743    5.4596 H   0  0  0  0  0  0  0  0  0  0  0  0
    1.8472   -7.5930    7.3490 H   0  0  0  0  0  0  0  0  0  0  0  0
    0.6750   -8.8499    7.2624 H   0  0  0  0  0  0  0  0  0  0  0  0
    0.2584   -7.2643    6.6977 H   0  0  0  0  0  0  0  0  0  0  0  0
    2.2913  -10.1169    6.2962 H   0  0  0  0  0  0  0  0  0  0  0  0
    3.7596   -8.5900    7.0445 H   0  0  0  0  0  0  0  0  0  0  0  0
    4.7132   -9.6756    6.1514 H   0  0  0  0  0  0  0  0  0  0  0  0
    5.3344   -7.2659    5.8611 H   0  0  0  0  0  0  0  0  0  0  0  0
    5.8384   -8.9351    4.5380 H   0  0  0  0  0  0  0  0  0  0  0  0
    2.3242   -5.4384    6.4618 H   0  0  0  0  0  0  0  0  0  0  0  0
    3.9798   -4.9014    6.3590 H   0  0  0  0  0  0  0  0  0  0  0  0
    3.6146   -6.3796    7.1392 H   0  0  0  0  0  0  0  0  0  0  0  0
    2.3361   -7.5873    3.5111 H   0  0  0  0  0  0  0  0  0  0  0  0
    0.4794   -6.4231    3.2826 H   0  0  0  0  0  0  0  0  0  0  0  0
    0.2792   -6.0581    4.9560 H   0  0  0  0  0  0  0  0  0  0  0  0
    0.7435   -4.1309    3.3897 H   0  0  0  0  0  0  0  0  0  0  0  0
    1.5804   -4.1599    4.8923 H   0  0  0  0  0  0  0  0  0  0  0  0
    2.3918   -2.4259    3.0783 H   0  0  0  0  0  0  0  0  0  0  0  0
    4.5473   -3.0152    4.7389 H   0  0  0  0  0  0  0  0  0  0  0  0
    3.9797   -1.8653    1.6212 H   0  0  0  0  0  0  0  0  0  0  0  0
    5.2791   -2.6441    2.4954 H   0  0  0  0  0  0  0  0  0  0  0  0
    4.0601   -4.4546   -0.9359 H   0  0  0  0  0  0  0  0  0  0  0  0
    5.0983   -3.0967   -0.5131 H   0  0  0  0  0  0  0  0  0  0  0  0
    3.3469   -2.9061   -0.5101 H   0  0  0  0  0  0  0  0  0  0  0  0
    5.4370   -5.6477    0.6668 H   0  0  0  0  0  0  0  0  0  0  0  0
    6.2023   -4.4565    1.6519 H   0  0  0  0  0  0  0  0  0  0  0  0
    4.7558   -6.8858    2.3497 H   0  0  0  0  0  0  0  0  0  0  0  0
    6.0038   -6.0782    3.2244 H   0  0  0  0  0  0  0  0  0  0  0  0
    4.6634   -4.8163    4.3949 H   0  0  0  0  0  0  0  0  0  0  0  0
    2.0016   -3.8440    1.3665 H   0  0  0  0  0  0  0  0  0  0  0  0
  1  2  1  0
  1 31  1  0
  1 32  1  0
  1 33  1  0
  2  9  1  0
  2  3  1  0
  2  4  1  0
  3 34  1  0
  3 35  1  0
  3 36  1  0
  4  5  1  0
  4 37  1  0
  4 38  1  0
  5  6  1  0
  5 39  1  0
  5 40  1  0
  6  7  1  0
  6 41  1  0
  6 42  1  0
  7 15  1  0
  7  8  1  1
  7  9  1  0
  8 43  1  0
  8 44  1  0
  8 45  1  0
  9 10  1  0
  9 46  1  1
 10 11  1  0
 10 47  1  0
 10 48  1  0
 11 12  1  0
 11 13  1  0
 11 49  1  1
 12 50  1  0
 13 26  1  0
 13 14  1  1
 13 15  1  0
 14 51  1  0
 14 52  1  0
 14 53  1  0
 15 16  1  0
 15 54  1  6
 16 17  1  0
 16 55  1  0
 16 56  1  0
 18 17  1  1
 17 57  1  0
 17 58  1  0
 18 26  1  0
 18 27  1  0
 18 19  1  0
 19 20  1  0
 19 21  1  0
 19 59  1  6
 20 60  1  0
 21 22  1  0
 21 61  1  0
 21 62  1  0
 22 23  1  6
 22 24  1  0
 22 27  1  0
 23 63  1  0
 23 64  1  0
 23 65  1  0
 24 25  1  0
 24 66  1  0
 24 67  1  0
 25 26  1  0
 25 68  1  0
 25 69  1  0
 26 70  1  1
 27 28  1  0
 27 71  1  6
 28 29  2  0
 28 30  1  0
M  CHG  1  30  -1
M  END
>  <i_m_ct_stereo_status>  (124) 
1

>  <s_m_source_file>  (124) 
/var/tmp/pbs.5076255.sched01/tmpx9mnojvb/44r91_cmns.sdf

>  <i_m_source_file_index>  (124) 
20

>  <i_lp_mmshare_version>  (124) 
48012

>  <i_f3d_flags>  (124) 
0

>  <s_epik_input>  (124) 
W0NIMl0xW0NIMl1bQ0gyXUMoW0NIM10pKFtDSDNdKVtDQEBIXShbQ0gyXVtDQEhdMltPSF0pW0NAQF0xKFtDSDNdKVtDQEBIXShbQ0gyXVtDSDJdMylbQ0BdMihbQ0gzXSlbQ0BIXShbQ0BAXTM0NSlbQ0gyXVtDSDJdW0NAXShbQ0gzXSkoW0NIMl1bQ0BASF00W09IXSlbQ0BIXTVDKD1PKVtPSF0=

>  <s_epik_cmdline>  (124) 
J2VwaWtfcHl0aG9uJywgJy1waHQnLCAnMi4wJywgJy1waCcsICc3LjAnLCAnLXRuJywgJzgnLCAnLW1hJywgJzIwMCcsICctaW1hZScsICc8aW5maWxlLm1hZT4nLCAnLW9tYWUnLCAnPG91dGZpbGUubWFlPic=

>  <r_epik_Ionization_Penalty>  (124) 
0.000723091

>  <r_epik_Ionization_Penalty_Charging>  (124) 
0.000713032

>  <r_epik_Ionization_Penalty_Neutral>  (124) 
1.0059e-05

>  <r_epik_State_Penalty>  (124) 
0.000454334

>  <r_epik_Charging_Adjusted_Penalty>  (124) 
0.00116737

>  <i_epik_Tot_Q>  (124) 
-1

>  <i_epik_Tot_abs_Q>  (124) 
1

>  <s_lp_Force_Field>  (124) 
OPLS3e

>  <r_lp_Energy>  (124) 
102.322

>  <b_lp_Chiralities_Consistent>  (124) 
1

>  <s_lp_Variant>  (124) 
31:0-1

>  <s_i_glide_gridfile>  (124) 
pfpi4k_grid

>  <i_i_glide_lignum>  (124) 
20

>  <i_i_glide_rotatable_bonds>  (124) 
3

>  <r_i_docking_score>  (124) 
-2.63094

>  <r_i_glide_ligand_efficiency>  (124) 
-0.0876979

>  <r_i_glide_ligand_efficiency_sa>  (124) 
-0.272498

>  <r_i_glide_ligand_efficiency_ln>  (124) 
-0.597777

>  <r_i_glide_gscore>  (124) 
-2.63094

>  <r_i_glide_lipo>  (124) 
-0.196146

>  <r_i_glide_hbond>  (124) 
-0.214558

>  <r_i_glide_metal>  (124) 
-0

>  <r_i_glide_rewards>  (124) 
-0.561809

>  <r_i_glide_evdw>  (124) 
-23.4255

>  <r_i_glide_ecoul>  (124) 
-3.00928

>  <r_i_glide_erotb>  (124) 
0

>  <r_i_glide_esite>  (124) 
-0.0357573

>  <r_i_glide_emodel>  (124) 
-33.0291

>  <r_i_glide_energy>  (124) 
-26.4347

>  <r_i_glide_einternal>  (124) 
1.25556

>  <r_i_glide_intrahb_reward>  (124) 
-0

>  <i_i_glide_confnum>  (124) 
1

>  <i_i_glide_posenum>  (124) 
34

>  <r_i_glide_eff_state_penalty>  (124) 
0

>  <ligand_id>  (124) 
31

>  <original_smiles>  (124) 
CC1(C)CCCC2(C)C1CC(O)C1(C)C2CCC23C(O)CC(C)(CCC12)C3C(=O)O

>  <smiles>  (124) 
[H]OC1([H])C([H])([H])C2(C([H])([H])[H])C([H])([H])C([H])([H])C3([H])C1(C([H])([H])C([H])([H])C1([H])C4(C([H])([H])[H])C([H])([H])C([H])([H])C([H])([H])C(C([H])([H])[H])(C([H])([H])[H])C4([H])C([H])([H])C([H])(O[H])C31C([H])([H])[H])C2([H])C(=O)[O-]

$$$$
31:0:2
     RDKit          3D

 71 75  0  0  1  0  0  0  0  0999 V2000
    0.9186    1.1203    1.7023 C   0  0  0  0  0  0  0  0  0  0  0  0
    1.0933    0.7820    3.1954 C   0  0  0  0  0  0  0  0  0  0  0  0
   -0.3212    0.8356    3.8257 C   0  0  0  0  0  0  0  0  0  0  0  0
    1.5659   -0.6822    3.2722 C   0  0  0  0  0  0  0  0  0  0  0  0
    1.7583   -1.1153    4.7223 C   0  0  0  0  0  0  0  0  0  0  0  0
    2.8440   -0.2695    5.3917 C   0  0  0  0  0  0  0  0  0  0  0  0
    2.7681    1.2956    5.2399 C   0  0  1  0  0  0  0  0  0  0  0  0
    4.2762    1.7003    5.3042 C   0  0  0  0  0  0  0  0  0  0  0  0
    2.2367    1.6861    3.8217 C   0  0  2  0  0  0  0  0  0  0  0  0
    2.1243    3.2272    3.6662 C   0  0  0  0  0  0  0  0  0  0  0  0
    1.3058    3.9653    4.7494 C   0  0  1  0  0  0  0  0  0  0  0  0
   -0.0249    3.8099    4.3238 O   0  0  0  0  0  0  0  0  0  0  0  0
    1.6780    3.5828    6.2463 C   0  0  2  0  0  0  0  0  0  0  0  0
    3.0084    4.3721    6.5133 C   0  0  0  0  0  0  0  0  0  0  0  0
    1.9195    2.0188    6.3780 C   0  0  2  0  0  0  0  0  0  0  0  0
    2.3906    1.6033    7.7944 C   0  0  0  0  0  0  0  0  0  0  0  0
    2.0751    2.5716    8.9357 C   0  0  0  0  0  0  0  0  0  0  0  0
    0.7771    3.3993    8.7946 C   0  0  1  0  0  0  0  0  0  0  0  0
    0.8022    4.4801    9.9206 C   0  0  1  0  0  0  0  0  0  0  0  0
    1.6512    5.5887    9.7143 O   0  0  0  0  0  0  0  0  0  0  0  0
   -0.6532    4.9092   10.1563 C   0  0  0  0  0  0  0  0  0  0  0  0
   -1.5123    3.8379    9.4537 C   0  0  1  0  0  0  0  0  0  0  0  0
   -2.7542    3.4904   10.2971 C   0  0  0  0  0  0  0  0  0  0  0  0
   -1.9258    4.3815    8.0728 C   0  0  0  0  0  0  0  0  0  0  0  0
   -0.8733    4.1810    6.9580 C   0  0  0  0  0  0  0  0  0  0  0  0
    0.6290    4.0766    7.3612 C   0  0  2  0  0  0  0  0  0  0  0  0
   -0.5100    2.6668    9.2974 C   0  0  1  0  0  0  0  0  0  0  0  0
   -0.9923    1.3957    8.5406 C   0  0  0  0  0  0  0  0  0  0  0  0
   -0.3764    0.3419    8.7339 O   0  0  0  0  0  0  0  0  0  0  0  0
   -2.0682    1.4102    7.8954 O   0  0  0  0  0  0  0  0  0  0  0  0
    0.2464    0.4015    1.2370 H   0  0  0  0  0  0  0  0  0  0  0  0
    1.8669    1.0887    1.1720 H   0  0  0  0  0  0  0  0  0  0  0  0
    0.4724    2.1053    1.5548 H   0  0  0  0  0  0  0  0  0  0  0  0
   -0.3229    0.8021    4.9129 H   0  0  0  0  0  0  0  0  0  0  0  0
   -0.9124   -0.0299    3.5127 H   0  0  0  0  0  0  0  0  0  0  0  0
   -0.9012    1.7036    3.5131 H   0  0  0  0  0  0  0  0  0  0  0  0
    0.8626   -1.3494    2.7669 H   0  0  0  0  0  0  0  0  0  0  0  0
    2.5111   -0.7949    2.7422 H   0  0  0  0  0  0  0  0  0  0  0  0
    0.8289   -1.0819    5.2843 H   0  0  0  0  0  0  0  0  0  0  0  0
    2.0690   -2.1595    4.7346 H   0  0  0  0  0  0  0  0  0  0  0  0
    2.8968   -0.5658    6.4321 H   0  0  0  0  0  0  0  0  0  0  0  0
    3.7827   -0.6358    4.9727 H   0  0  0  0  0  0  0  0  0  0  0  0
    4.4691    2.7514    5.1470 H   0  0  0  0  0  0  0  0  0  0  0  0
    4.8499    1.1970    4.5264 H   0  0  0  0  0  0  0  0  0  0  0  0
    4.7613    1.4208    6.2345 H   0  0  0  0  0  0  0  0  0  0  0  0
    3.0662    1.4537    3.1532 H   0  0  0  0  0  0  0  0  0  0  0  0
    3.1356    3.6317    3.6680 H   0  0  0  0  0  0  0  0  0  0  0  0
    1.7706    3.4925    2.6713 H   0  0  0  0  0  0  0  0  0  0  0  0
    1.4782    5.0360    4.6175 H   0  0  0  0  0  0  0  0  0  0  0  0
   -0.0578    3.9712    3.3854 H   0  0  0  0  0  0  0  0  0  0  0  0
    3.7208    3.8272    7.1243 H   0  0  0  0  0  0  0  0  0  0  0  0
    2.8546    5.3315    7.0075 H   0  0  0  0  0  0  0  0  0  0  0  0
    3.5402    4.6367    5.6017 H   0  0  0  0  0  0  0  0  0  0  0  0
    0.9163    1.6133    6.3197 H   0  0  0  0  0  0  0  0  0  0  0  0
    1.9472    0.6412    8.0250 H   0  0  0  0  0  0  0  0  0  0  0  0
    3.4545    1.3990    7.8386 H   0  0  0  0  0  0  0  0  0  0  0  0
    2.0510    2.0136    9.8717 H   0  0  0  0  0  0  0  0  0  0  0  0
    2.9064    3.2644    9.0527 H   0  0  0  0  0  0  0  0  0  0  0  0
    1.1421    4.0188   10.8527 H   0  0  0  0  0  0  0  0  0  0  0  0
    1.5649    6.1725   10.4590 H   0  0  0  0  0  0  0  0  0  0  0  0
   -0.8564    4.9468   11.2274 H   0  0  0  0  0  0  0  0  0  0  0  0
   -0.8438    5.9152    9.7748 H   0  0  0  0  0  0  0  0  0  0  0  0
   -3.3736    2.7359    9.8195 H   0  0  0  0  0  0  0  0  0  0  0  0
   -3.3711    4.3705   10.4532 H   0  0  0  0  0  0  0  0  0  0  0  0
   -2.4689    3.1069   11.2780 H   0  0  0  0  0  0  0  0  0  0  0  0
   -2.8333    3.8798    7.7450 H   0  0  0  0  0  0  0  0  0  0  0  0
   -2.2133    5.4291    8.1513 H   0  0  0  0  0  0  0  0  0  0  0  0
   -1.1570    3.2865    6.4074 H   0  0  0  0  0  0  0  0  0  0  0  0
   -0.9856    5.0214    6.2741 H   0  0  0  0  0  0  0  0  0  0  0  0
    0.8370    5.1376    7.4871 H   0  0  0  0  0  0  0  0  0  0  0  0
   -0.3129    2.2819   10.3024 H   0  0  0  0  0  0  0  0  0  0  0  0
  1  2  1  0
  1 31  1  0
  1 32  1  0
  1 33  1  0
  2  9  1  0
  2  3  1  0
  2  4  1  0
  3 34  1  0
  3 35  1  0
  3 36  1  0
  4  5  1  0
  4 37  1  0
  4 38  1  0
  5  6  1  0
  5 39  1  0
  5 40  1  0
  6  7  1  0
  6 41  1  0
  6 42  1  0
  7 15  1  0
  7  8  1  6
  7  9  1  0
  8 43  1  0
  8 44  1  0
  8 45  1  0
  9 10  1  0
  9 46  1  6
 10 11  1  0
 10 47  1  0
 10 48  1  0
 11 12  1  0
 11 13  1  0
 11 49  1  1
 12 50  1  0
 13 26  1  0
 13 14  1  1
 13 15  1  0
 14 51  1  0
 14 52  1  0
 14 53  1  0
 15 16  1  0
 15 54  1  6
 16 17  1  0
 16 55  1  0
 16 56  1  0
 18 17  1  6
 17 57  1  0
 17 58  1  0
 18 26  1  0
 18 27  1  0
 18 19  1  0
 19 20  1  0
 19 21  1  0
 19 59  1  1
 20 60  1  0
 21 22  1  0
 21 61  1  0
 21 62  1  0
 22 23  1  1
 22 24  1  0
 22 27  1  0
 23 63  1  0
 23 64  1  0
 23 65  1  0
 24 25  1  0
 24 66  1  0
 24 67  1  0
 25 26  1  0
 25 68  1  0
 25 69  1  0
 26 70  1  1
 27 28  1  0
 27 71  1  1
 28 29  2  0
 28 30  1  0
M  CHG  1  30  -1
M  END
>  <i_m_ct_stereo_status>  (125) 
1

>  <s_m_source_file>  (125) 
/var/tmp/pbs.5076255.sched01/tmpx9mnojvb/44r91_cmns.sdf

>  <i_m_source_file_index>  (125) 
20

>  <i_lp_mmshare_version>  (125) 
48012

>  <i_f3d_flags>  (125) 
0

>  <s_epik_input>  (125) 
W0NIMl0xW0NIMl1bQ0gyXUMoW0NIM10pKFtDSDNdKVtDQEBIXShbQ0gyXVtDQEhdMltPSF0pW0NAQF0xKFtDSDNdKVtDQEBIXShbQ0gyXVtDSDJdMylbQ0BdMihbQ0gzXSlbQ0BIXShbQ0BAXTM0NSlbQ0gyXVtDSDJdW0NAXShbQ0gzXSkoW0NIMl1bQ0BASF00W09IXSlbQ0BIXTVDKD1PKVtPSF0=

>  <s_epik_cmdline>  (125) 
J2VwaWtfcHl0aG9uJywgJy1waHQnLCAnMi4wJywgJy1waCcsICc3LjAnLCAnLXRuJywgJzgnLCAnLW1hJywgJzIwMCcsICctaW1hZScsICc8aW5maWxlLm1hZT4nLCAnLW9tYWUnLCAnPG91dGZpbGUubWFlPic=

>  <r_epik_Ionization_Penalty>  (125) 
0.000723091

>  <r_epik_Ionization_Penalty_Charging>  (125) 
0.000713032

>  <r_epik_Ionization_Penalty_Neutral>  (125) 
1.0059e-05

>  <r_epik_State_Penalty>  (125) 
0.000454334

>  <r_epik_Charging_Adjusted_Penalty>  (125) 
0.00116737

>  <i_epik_Tot_Q>  (125) 
-1

>  <i_epik_Tot_abs_Q>  (125) 
1

>  <s_lp_Force_Field>  (125) 
OPLS3e

>  <r_lp_Energy>  (125) 
102.322

>  <b_lp_Chiralities_Consistent>  (125) 
1

>  <s_lp_Variant>  (125) 
31:0-1

>  <s_i_glide_gridfile>  (125) 
pfpi4k_grid

>  <i_i_glide_lignum>  (125) 
20

>  <i_i_glide_rotatable_bonds>  (125) 
3

>  <r_i_docking_score>  (125) 
-2.50788

>  <r_i_glide_ligand_efficiency>  (125) 
-0.0835962

>  <r_i_glide_ligand_efficiency_sa>  (125) 
-0.259753

>  <r_i_glide_ligand_efficiency_ln>  (125) 
-0.569819

>  <r_i_glide_gscore>  (125) 
-2.50788

>  <r_i_glide_lipo>  (125) 
0

>  <r_i_glide_hbond>  (125) 
-0.135162

>  <r_i_glide_metal>  (125) 
-0

>  <r_i_glide_rewards>  (125) 
-0.561809

>  <r_i_glide_evdw>  (125) 
-20.4326

>  <r_i_glide_ecoul>  (125) 
-4.9734

>  <r_i_glide_erotb>  (125) 
0

>  <r_i_glide_esite>  (125) 
-0.043275

>  <r_i_glide_emodel>  (125) 
-31.8429

>  <r_i_glide_energy>  (125) 
-25.406

>  <r_i_glide_einternal>  (125) 
0.944553

>  <r_i_glide_intrahb_reward>  (125) 
-0

>  <i_i_glide_confnum>  (125) 
1

>  <i_i_glide_posenum>  (125) 
22

>  <r_i_glide_eff_state_penalty>  (125) 
0

>  <ligand_id>  (125) 
31

>  <original_smiles>  (125) 
CC1(C)CCCC2(C)C1CC(O)C1(C)C2CCC23C(O)CC(C)(CCC12)C3C(=O)O

>  <smiles>  (125) 
[H]OC1([H])C([H])([H])C2(C([H])([H])[H])C([H])([H])C([H])([H])C3([H])C1(C([H])([H])C([H])([H])C1([H])C4(C([H])([H])[H])C([H])([H])C([H])([H])C([H])([H])C(C([H])([H])[H])(C([H])([H])[H])C4([H])C([H])([H])C([H])(O[H])C31C([H])([H])[H])C2([H])C(=O)[O-]

$$$$
32:0:0
     RDKit          3D

 27 33  0  0  1  0  0  0  0  0999 V2000
    8.1170   -2.5389   -1.1751 O   0  0  0  0  0  0  0  0  0  0  0  0
    6.9049   -2.6900   -1.2230 C   0  0  0  0  0  0  0  0  0  0  0  0
    6.2307   -3.1994   -2.3422 O   0  0  0  0  0  0  0  0  0  0  0  0
    4.7703   -3.3554   -2.5176 C   0  0  0  0  0  0  0  0  0  0  0  0
    3.6777   -2.9638   -1.4430 C   0  0  1  0  0  0  0  0  0  0  0  0
    3.8253   -1.4505   -1.4228 C   0  0  0  0  0  0  0  0  0  0  0  0
    5.1047   -1.1294   -0.7037 C   0  0  1  0  0  0  0  0  0  0  0  0
    4.9605   -0.6039    0.6819 C   0  0  1  0  0  0  0  0  0  0  0  0
    4.6918   -1.6420    1.7549 C   0  0  1  0  0  0  0  0  0  0  0  0
    4.1650   -3.0190    1.3201 C   0  0  1  0  0  0  0  0  0  0  0  0
    3.2208   -3.2242    0.0966 C   0  0  1  0  0  0  0  0  0  0  0  0
    4.1945   -4.0495   -0.5076 C   0  0  2  0  0  0  0  0  0  0  0  0
    5.2234   -3.5872    0.4122 C   0  0  1  0  0  0  0  0  0  0  0  0
    5.9530   -2.3324   -0.1539 C   0  0  1  0  0  0  0  0  0  0  0  0
    6.0693   -1.5131    1.1012 C   0  0  1  0  0  0  0  0  0  0  0  0
    4.4945   -2.8716   -3.4570 H   0  0  0  0  0  0  0  0  0  0  0  0
    4.6214   -4.4141   -2.7357 H   0  0  0  0  0  0  0  0  0  0  0  0
    3.7866   -1.0481   -2.4337 H   0  0  0  0  0  0  0  0  0  0  0  0
    2.9857   -1.0018   -0.9017 H   0  0  0  0  0  0  0  0  0  0  0  0
    5.7118   -0.4247   -1.2875 H   0  0  0  0  0  0  0  0  0  0  0  0
    5.0431    0.4607    0.8819 H   0  0  0  0  0  0  0  0  0  0  0  0
    4.5890   -1.3582    2.8011 H   0  0  0  0  0  0  0  0  0  0  0  0
    3.9264   -3.6988    2.1452 H   0  0  0  0  0  0  0  0  0  0  0  0
    2.2214   -3.6133    0.2895 H   0  0  0  0  0  0  0  0  0  0  0  0
    3.9726   -5.1161   -0.6056 H   0  0  0  0  0  0  0  0  0  0  0  0
    5.8635   -4.3474    0.8760 H   0  0  0  0  0  0  0  0  0  0  0  0
    6.9781   -1.1621    1.5933 H   0  0  0  0  0  0  0  0  0  0  0  0
  1  2  2  0
 14  2  1  6
  2  3  1  0
  3  4  1  0
  5  4  1  1
  4 16  1  0
  4 17  1  0
  5 11  1  0
  5 12  1  0
  5  6  1  0
  6  7  1  0
  6 18  1  0
  6 19  1  0
  7 14  1  0
  7  8  1  0
  7 20  1  6
  8 15  1  0
  8  9  1  0
  8 21  1  6
  9 15  1  0
  9 10  1  0
  9 22  1  1
 10 13  1  0
 10 11  1  0
 10 23  1  1
 11 12  1  0
 11 24  1  1
 12 13  1  0
 12 25  1  6
 13 14  1  0
 13 26  1  1
 14 15  1  0
 15 27  1  1
M  END
>  <i_m_ct_stereo_status>  (126) 
1

>  <s_m_source_file>  (126) 
/var/tmp/pbs.5076255.sched01/tmpx9mnojvb/44r91_cmns.sdf

>  <i_m_source_file_index>  (126) 
21

>  <i_lp_mmshare_version>  (126) 
48012

>  <i_f3d_flags>  (126) 
0

>  <s_epik_input>  (126) 
W0NIMl0xT0MoPU8pW0NAXShbQ0BASF0yMykoW0NAQEhdNFtDQEhdNTYpW0NAQEhdKFtDSDJdNylbQ0BIXTJbQ0BIXTNbQ0BIXTRbQ0BIXTZbQ0BdMTU3

>  <s_epik_cmdline>  (126) 
J2VwaWtfcHl0aG9uJywgJy1waHQnLCAnMi4wJywgJy1waCcsICc3LjAnLCAnLXRuJywgJzgnLCAnLW1hJywgJzIwMCcsICctaW1hZScsICc8aW5maWxlLm1hZT4nLCAnLW9tYWUnLCAnPG91dGZpbGUubWFlPic=

>  <r_lp_tautomer_probability>  (126) 
1

>  <r_epik_Ionization_Penalty>  (126) 
0

>  <r_epik_Ionization_Penalty_Charging>  (126) 
0

>  <r_epik_Ionization_Penalty_Neutral>  (126) 
0

>  <r_epik_State_Penalty>  (126) 
-0

>  <r_epik_Charging_Adjusted_Penalty>  (126) 
0

>  <i_epik_Tot_Q>  (126) 
0

>  <i_epik_Tot_abs_Q>  (126) 
0

>  <s_epik_Chemistry_Notes>  (126) 
This compound has an ester and may undergo hydrolysis at high or low pH.

>  <s_lp_Force_Field>  (126) 
OPLS3e

>  <r_lp_Energy>  (126) 
122.73

>  <b_lp_Chiralities_Consistent>  (126) 
1

>  <s_lp_Variant>  (126) 
32:0-1

>  <s_i_glide_gridfile>  (126) 
pfpi4k_grid

>  <i_i_glide_lignum>  (126) 
21

>  <i_i_glide_rotatable_bonds>  (126) 
0

>  <r_i_docking_score>  (126) 
-3.96399

>  <r_i_glide_ligand_efficiency>  (126) 
-0.264266

>  <r_i_glide_ligand_efficiency_sa>  (126) 
-0.651735

>  <r_i_glide_ligand_efficiency_ln>  (126) 
-1.06902

>  <r_i_glide_gscore>  (126) 
-3.96399

>  <r_i_glide_lipo>  (126) 
-0.49587

>  <r_i_glide_hbond>  (126) 
-0.16

>  <r_i_glide_metal>  (126) 
-0

>  <r_i_glide_rewards>  (126) 
-2.04386

>  <r_i_glide_evdw>  (126) 
-21.2223

>  <r_i_glide_ecoul>  (126) 
-1.1496

>  <r_i_glide_erotb>  (126) 
0

>  <r_i_glide_esite>  (126) 
-0.0306962

>  <r_i_glide_emodel>  (126) 
-27.3139

>  <r_i_glide_energy>  (126) 
-22.3719

>  <r_i_glide_einternal>  (126) 
0

>  <r_i_glide_intrahb_reward>  (126) 
-0

>  <i_i_glide_confnum>  (126) 
1

>  <i_i_glide_posenum>  (126) 
1

>  <r_i_glide_eff_state_penalty>  (126) 
0

>  <ligand_id>  (126) 
32

>  <original_smiles>  (126) 
O=C1OCC23CC4C5C6C7C2C3C7C14C65

>  <smiles>  (126) 
[H]C1([H])OC(=O)C23C4([H])C([H])([H])C15C1([H])C([H])(C6([H])C4([H])C62[H])C3([H])C15[H]

$$$$
32:0:1
     RDKit          3D

 27 33  0  0  1  0  0  0  0  0999 V2000
    8.1500   -2.3048    0.4614 O   0  0  0  0  0  0  0  0  0  0  0  0
    7.0266   -2.3725   -0.0154 C   0  0  0  0  0  0  0  0  0  0  0  0
    6.7811   -2.2415   -1.3963 O   0  0  0  0  0  0  0  0  0  0  0  0
    5.4685   -2.2132   -2.0772 C   0  0  0  0  0  0  0  0  0  0  0  0
    4.0687   -2.3851   -1.3683 C   0  0  1  0  0  0  0  0  0  0  0  0
    3.9985   -1.0903   -0.5692 C   0  0  0  0  0  0  0  0  0  0  0  0
    4.9550   -1.2137    0.5910 C   0  0  1  0  0  0  0  0  0  0  0  0
    4.3296   -1.4677    1.9212 C   0  0  1  0  0  0  0  0  0  0  0  0
    3.8874   -2.8895    2.1798 C   0  0  1  0  0  0  0  0  0  0  0  0
    3.7050   -3.8393    0.9947 C   0  0  1  0  0  0  0  0  0  0  0  0
    3.2179   -3.3601   -0.4032 C   0  0  1  0  0  0  0  0  0  0  0  0
    4.4305   -3.7996   -0.9728 C   0  0  2  0  0  0  0  0  0  0  0  0
    5.0677   -3.9055    0.3272 C   0  0  1  0  0  0  0  0  0  0  0  0
    5.7607   -2.5653    0.7270 C   0  0  1  0  0  0  0  0  0  0  0  0
    5.3625   -2.5009    2.1706 C   0  0  1  0  0  0  0  0  0  0  0  0
    5.4119   -1.3174   -2.6855 H   0  0  0  0  0  0  0  0  0  0  0  0
    5.5186   -3.0061   -2.8220 H   0  0  0  0  0  0  0  0  0  0  0  0
    4.2316   -0.2532   -1.2142 H   0  0  0  0  0  0  0  0  0  0  0  0
    2.9845   -0.9232   -0.2210 H   0  0  0  0  0  0  0  0  0  0  0  0
    5.6098   -0.3394    0.6623 H   0  0  0  0  0  0  0  0  0  0  0  0
    4.2098   -0.6566    2.6408 H   0  0  0  0  0  0  0  0  0  0  0  0
    3.4495   -3.1676    3.1363 H   0  0  0  0  0  0  0  0  0  0  0  0
    3.3336   -4.8250    1.2472 H   0  0  0  0  0  0  0  0  0  0  0  0
    2.2593   -3.7455   -0.7731 H   0  0  0  0  0  0  0  0  0  0  0  0
    4.4113   -4.6565   -1.6449 H   0  0  0  0  0  0  0  0  0  0  0  0
    5.6277   -4.8189    0.5418 H   0  0  0  0  0  0  0  0  0  0  0  0
    6.0277   -2.5096    3.0340 H   0  0  0  0  0  0  0  0  0  0  0  0
  1  2  2  0
 14  2  1  1
  2  3  1  0
  3  4  1  0
  5  4  1  1
  4 16  1  0
  4 17  1  0
  5 11  1  0
  5 12  1  0
  5  6  1  0
  6  7  1  0
  6 18  1  0
  6 19  1  0
  7 14  1  0
  7  8  1  0
  7 20  1  1
  8 15  1  0
  8  9  1  0
  8 21  1  1
  9 15  1  0
  9 10  1  0
  9 22  1  1
 10 13  1  0
 10 11  1  0
 10 23  1  1
 11 12  1  0
 11 24  1  6
 12 13  1  0
 12 25  1  6
 13 14  1  0
 13 26  1  6
 14 15  1  0
 15 27  1  1
M  END
>  <i_m_ct_stereo_status>  (127) 
1

>  <s_m_source_file>  (127) 
/var/tmp/pbs.5076255.sched01/tmpx9mnojvb/44r91_cmns.sdf

>  <i_m_source_file_index>  (127) 
21

>  <i_lp_mmshare_version>  (127) 
48012

>  <i_f3d_flags>  (127) 
0

>  <s_epik_input>  (127) 
W0NIMl0xT0MoPU8pW0NAXShbQ0BASF0yMykoW0NAQEhdNFtDQEhdNTYpW0NAQEhdKFtDSDJdNylbQ0BIXTJbQ0BIXTNbQ0BIXTRbQ0BIXTZbQ0BdMTU3

>  <s_epik_cmdline>  (127) 
J2VwaWtfcHl0aG9uJywgJy1waHQnLCAnMi4wJywgJy1waCcsICc3LjAnLCAnLXRuJywgJzgnLCAnLW1hJywgJzIwMCcsICctaW1hZScsICc8aW5maWxlLm1hZT4nLCAnLW9tYWUnLCAnPG91dGZpbGUubWFlPic=

>  <r_lp_tautomer_probability>  (127) 
1

>  <r_epik_Ionization_Penalty>  (127) 
0

>  <r_epik_Ionization_Penalty_Charging>  (127) 
0

>  <r_epik_Ionization_Penalty_Neutral>  (127) 
0

>  <r_epik_State_Penalty>  (127) 
-0

>  <r_epik_Charging_Adjusted_Penalty>  (127) 
0

>  <i_epik_Tot_Q>  (127) 
0

>  <i_epik_Tot_abs_Q>  (127) 
0

>  <s_epik_Chemistry_Notes>  (127) 
This compound has an ester and may undergo hydrolysis at high or low pH.

>  <s_lp_Force_Field>  (127) 
OPLS3e

>  <r_lp_Energy>  (127) 
122.73

>  <b_lp_Chiralities_Consistent>  (127) 
1

>  <s_lp_Variant>  (127) 
32:0-1

>  <s_i_glide_gridfile>  (127) 
pfpi4k_grid

>  <i_i_glide_lignum>  (127) 
21

>  <i_i_glide_rotatable_bonds>  (127) 
0

>  <r_i_docking_score>  (127) 
-3.68043

>  <r_i_glide_ligand_efficiency>  (127) 
-0.245362

>  <r_i_glide_ligand_efficiency_sa>  (127) 
-0.605115

>  <r_i_glide_ligand_efficiency_ln>  (127) 
-0.992552

>  <r_i_glide_gscore>  (127) 
-3.68043

>  <r_i_glide_lipo>  (127) 
-0.296528

>  <r_i_glide_hbond>  (127) 
-0.16

>  <r_i_glide_metal>  (127) 
-0

>  <r_i_glide_rewards>  (127) 
-2.06452

>  <r_i_glide_evdw>  (127) 
-17.7998

>  <r_i_glide_ecoul>  (127) 
-1.79593

>  <r_i_glide_erotb>  (127) 
0

>  <r_i_glide_esite>  (127) 
0

>  <r_i_glide_emodel>  (127) 
-24.1607

>  <r_i_glide_energy>  (127) 
-19.5957

>  <r_i_glide_einternal>  (127) 
0

>  <r_i_glide_intrahb_reward>  (127) 
-0

>  <i_i_glide_confnum>  (127) 
2

>  <i_i_glide_posenum>  (127) 
38

>  <r_i_glide_eff_state_penalty>  (127) 
0

>  <ligand_id>  (127) 
32

>  <original_smiles>  (127) 
O=C1OCC23CC4C5C6C7C2C3C7C14C65

>  <smiles>  (127) 
[H]C1([H])OC(=O)C23C4([H])C([H])([H])C15C1([H])C([H])(C6([H])C4([H])C62[H])C3([H])C15[H]

$$$$
32:0:2
     RDKit          3D

 27 33  0  0  1  0  0  0  0  0999 V2000
    7.9890   -2.9377   -0.0756 O   0  0  0  0  0  0  0  0  0  0  0  0
    6.8240   -2.7277   -0.3771 C   0  0  0  0  0  0  0  0  0  0  0  0
    6.4403   -1.8745   -1.4223 O   0  0  0  0  0  0  0  0  0  0  0  0
    5.0673   -1.4608   -1.7907 C   0  0  0  0  0  0  0  0  0  0  0  0
    3.7372   -1.9813   -1.1166 C   0  0  1  0  0  0  0  0  0  0  0  0
    3.8419   -1.3169    0.2466 C   0  0  0  0  0  0  0  0  0  0  0  0
    4.9155   -2.0710    1.0125 C   0  0  1  0  0  0  0  0  0  0  0  0
    4.4178   -2.9897    2.0718 C   0  0  2  0  0  0  0  0  0  0  0  0
    3.9088   -4.3313    1.5979 C   0  0  1  0  0  0  0  0  0  0  0  0
    3.5355   -4.4912    0.1131 C   0  0  1  0  0  0  0  0  0  0  0  0
    2.9324   -3.3280   -0.7228 C   0  0  1  0  0  0  0  0  0  0  0  0
    4.0323   -3.3919   -1.5873 C   0  0  2  0  0  0  0  0  0  0  0  0
    4.8003   -4.1959   -0.6499 C   0  0  1  0  0  0  0  0  0  0  0  0
    5.6173   -3.2834    0.3047 C   0  0  1  0  0  0  0  0  0  0  0  0
    5.3953   -4.0046    1.5900 C   0  0  1  0  0  0  0  0  0  0  0  0
    5.0236   -0.3713   -1.8194 H   0  0  0  0  0  0  0  0  0  0  0  0
    4.9607   -1.7294   -2.8364 H   0  0  0  0  0  0  0  0  0  0  0  0
    4.0627   -0.2567    0.1387 H   0  0  0  0  0  0  0  0  0  0  0  0
    2.8729   -1.3634    0.7407 H   0  0  0  0  0  0  0  0  0  0  0  0
    5.6379   -1.3800    1.4587 H   0  0  0  0  0  0  0  0  0  0  0  0
    4.4831   -2.6923    3.1146 H   0  0  0  0  0  0  0  0  0  0  0  0
    3.5567   -5.0791    2.3070 H   0  0  0  0  0  0  0  0  0  0  0  0
    3.1132   -5.4591   -0.1568 H   0  0  0  0  0  0  0  0  0  0  0  0
    1.9359   -3.4886   -1.1269 H   0  0  0  0  0  0  0  0  0  0  0  0
    3.8447   -3.7693   -2.5938 H   0  0  0  0  0  0  0  0  0  0  0  0
    5.2949   -5.0829   -1.0526 H   0  0  0  0  0  0  0  0  0  0  0  0
    6.1511   -4.4505    2.2321 H   0  0  0  0  0  0  0  0  0  0  0  0
  1  2  2  0
 14  2  1  6
  2  3  1  0
  3  4  1  0
  5  4  1  1
  4 16  1  0
  4 17  1  0
  5 11  1  0
  5 12  1  0
  5  6  1  0
  6  7  1  0
  6 18  1  0
  6 19  1  0
  7 14  1  0
  7  8  1  0
  7 20  1  1
  8 15  1  0
  8  9  1  0
  8 21  1  1
  9 15  1  0
  9 10  1  0
  9 22  1  1
 10 13  1  0
 10 11  1  0
 10 23  1  1
 11 12  1  0
 11 24  1  6
 12 13  1  0
 12 25  1  6
 13 14  1  0
 13 26  1  6
 14 15  1  0
 15 27  1  1
M  END
>  <i_m_ct_stereo_status>  (128) 
1

>  <s_m_source_file>  (128) 
/var/tmp/pbs.5076255.sched01/tmpx9mnojvb/44r91_cmns.sdf

>  <i_m_source_file_index>  (128) 
21

>  <i_lp_mmshare_version>  (128) 
48012

>  <i_f3d_flags>  (128) 
0

>  <s_epik_input>  (128) 
W0NIMl0xT0MoPU8pW0NAXShbQ0BASF0yMykoW0NAQEhdNFtDQEhdNTYpW0NAQEhdKFtDSDJdNylbQ0BIXTJbQ0BIXTNbQ0BIXTRbQ0BIXTZbQ0BdMTU3

>  <s_epik_cmdline>  (128) 
J2VwaWtfcHl0aG9uJywgJy1waHQnLCAnMi4wJywgJy1waCcsICc3LjAnLCAnLXRuJywgJzgnLCAnLW1hJywgJzIwMCcsICctaW1hZScsICc8aW5maWxlLm1hZT4nLCAnLW9tYWUnLCAnPG91dGZpbGUubWFlPic=

>  <r_lp_tautomer_probability>  (128) 
1

>  <r_epik_Ionization_Penalty>  (128) 
0

>  <r_epik_Ionization_Penalty_Charging>  (128) 
0

>  <r_epik_Ionization_Penalty_Neutral>  (128) 
0

>  <r_epik_State_Penalty>  (128) 
-0

>  <r_epik_Charging_Adjusted_Penalty>  (128) 
0

>  <i_epik_Tot_Q>  (128) 
0

>  <i_epik_Tot_abs_Q>  (128) 
0

>  <s_epik_Chemistry_Notes>  (128) 
This compound has an ester and may undergo hydrolysis at high or low pH.

>  <s_lp_Force_Field>  (128) 
OPLS3e

>  <r_lp_Energy>  (128) 
122.73

>  <b_lp_Chiralities_Consistent>  (128) 
1

>  <s_lp_Variant>  (128) 
32:0-1

>  <s_i_glide_gridfile>  (128) 
pfpi4k_grid

>  <i_i_glide_lignum>  (128) 
21

>  <i_i_glide_rotatable_bonds>  (128) 
0

>  <r_i_docking_score>  (128) 
-3.67831

>  <r_i_glide_ligand_efficiency>  (128) 
-0.245221

>  <r_i_glide_ligand_efficiency_sa>  (128) 
-0.604766

>  <r_i_glide_ligand_efficiency_ln>  (128) 
-0.99198

>  <r_i_glide_gscore>  (128) 
-3.67831

>  <r_i_glide_lipo>  (128) 
-0.20467

>  <r_i_glide_hbond>  (128) 
-0.16

>  <r_i_glide_metal>  (128) 
-0

>  <r_i_glide_rewards>  (128) 
-2.04769

>  <r_i_glide_evdw>  (128) 
-18.3194

>  <r_i_glide_ecoul>  (128) 
-2.33323

>  <r_i_glide_erotb>  (128) 
0

>  <r_i_glide_esite>  (128) 
0

>  <r_i_glide_emodel>  (128) 
-25.2135

>  <r_i_glide_energy>  (128) 
-20.6526

>  <r_i_glide_einternal>  (128) 
0

>  <r_i_glide_intrahb_reward>  (128) 
-0

>  <i_i_glide_confnum>  (128) 
1

>  <i_i_glide_posenum>  (128) 
13

>  <r_i_glide_eff_state_penalty>  (128) 
0

>  <ligand_id>  (128) 
32

>  <original_smiles>  (128) 
O=C1OCC23CC4C5C6C7C2C3C7C14C65

>  <smiles>  (128) 
[H]C1([H])OC(=O)C23C4([H])C([H])([H])C15C1([H])C([H])(C6([H])C4([H])C62[H])C3([H])C15[H]

$$$$
33:0:0
     RDKit          3D

 32 34  0  0  1  0  0  0  0  0999 V2000
    6.1812   -1.8667   -0.4997 C   0  0  0  0  0  0  0  0  0  0  0  0
    4.6832   -1.8528   -0.8786 C   0  0  0  0  0  0  0  0  0  0  0  0
    3.9763   -1.0577    0.2454 C   0  0  0  0  0  0  0  0  0  0  0  0
    4.5176   -1.1547   -2.2385 C   0  0  2  0  0  0  0  0  0  0  0  0
    3.1424   -0.7397   -2.7660 C   0  0  0  0  0  0  0  0  0  0  0  0
    3.0290   -2.0559   -3.5080 C   0  0  2  0  0  0  0  0  0  0  0  0
    2.2650   -3.1931   -2.8424 C   0  0  0  0  0  0  0  0  0  0  0  0
    2.6540   -3.4548   -1.3712 C   0  0  0  0  0  0  0  0  0  0  0  0
    4.1647   -3.3342   -1.0012 C   0  0  2  0  0  0  0  0  0  0  0  0
    4.2814   -3.9083    0.3040 O   0  0  0  0  0  0  0  0  0  0  0  0
    4.3161   -5.3603    0.1856 O   0  0  0  0  0  0  0  0  0  0  0  0
    4.9616   -4.0459   -1.9676 O   0  0  0  0  0  0  0  0  0  0  0  0
    5.2263   -3.4503   -3.2433 C   0  0  0  0  0  0  0  0  0  0  0  0
    4.5604   -2.0952   -3.4464 C   0  0  2  0  0  0  0  0  0  0  0  0
    6.5603   -0.8524   -0.3967 H   0  0  0  0  0  0  0  0  0  0  0  0
    6.7916   -2.3778   -1.2417 H   0  0  0  0  0  0  0  0  0  0  0  0
    6.3532   -2.3616    0.4545 H   0  0  0  0  0  0  0  0  0  0  0  0
    2.9000   -0.9953    0.1205 H   0  0  0  0  0  0  0  0  0  0  0  0
    4.3434   -0.0334    0.2838 H   0  0  0  0  0  0  0  0  0  0  0  0
    4.1540   -1.5001    1.2248 H   0  0  0  0  0  0  0  0  0  0  0  0
    5.1982   -0.3118   -2.3502 H   0  0  0  0  0  0  0  0  0  0  0  0
    2.3782   -0.6119   -2.0125 H   0  0  0  0  0  0  0  0  0  0  0  0
    3.1813    0.1142   -3.4434 H   0  0  0  0  0  0  0  0  0  0  0  0
    2.6858   -1.8868   -4.5305 H   0  0  0  0  0  0  0  0  0  0  0  0
    1.1874   -3.0380   -2.8982 H   0  0  0  0  0  0  0  0  0  0  0  0
    2.4382   -4.0942   -3.4277 H   0  0  0  0  0  0  0  0  0  0  0  0
    2.0856   -2.8017   -0.7221 H   0  0  0  0  0  0  0  0  0  0  0  0
    2.2932   -4.4529   -1.1206 H   0  0  0  0  0  0  0  0  0  0  0  0
    3.4048   -5.5519    0.0091 H   0  0  0  0  0  0  0  0  0  0  0  0
    6.3067   -3.3562   -3.3372 H   0  0  0  0  0  0  0  0  0  0  0  0
    4.9238   -4.1537   -4.0170 H   0  0  0  0  0  0  0  0  0  0  0  0
    4.9463   -1.5582   -4.3156 H   0  0  0  0  0  0  0  0  0  0  0  0
  1  2  1  0
  1 15  1  0
  1 16  1  0
  1 17  1  0
  2  9  1  0
  2  3  1  0
  2  4  1  0
  3 18  1  0
  3 19  1  0
  3 20  1  0
  4 14  1  0
  4  5  1  0
  4 21  1  6
  5  6  1  0
  5 22  1  0
  5 23  1  0
  6 14  1  0
  6  7  1  0
  6 24  1  6
  7  8  1  0
  7 25  1  0
  7 26  1  0
  8  9  1  0
  8 27  1  0
  8 28  1  0
  9 10  1  1
  9 12  1  0
 10 11  1  0
 11 29  1  0
 12 13  1  0
 13 14  1  0
 13 30  1  0
 13 31  1  0
 14 32  1  6
M  END
>  <i_m_ct_stereo_status>  (129) 
1

>  <s_m_source_file>  (129) 
/var/tmp/pbs.5076255.sched01/tmpx9mnojvb/44r91_cmns.sdf

>  <i_m_source_file_index>  (129) 
22

>  <i_lp_mmshare_version>  (129) 
48012

>  <i_f3d_flags>  (129) 
0

>  <s_epik_input>  (129) 
W09IXU9bQ0BdMTJDKFtDSDNdKShbQ0gzXSlbQ0BIXTNbQ0BASF0oW0NIMl1PMilbQ0BIXShbQ0gyXTMpW0NIMl1bQ0gyXTE=

>  <s_epik_cmdline>  (129) 
J2VwaWtfcHl0aG9uJywgJy1waHQnLCAnMi4wJywgJy1waCcsICc3LjAnLCAnLXRuJywgJzgnLCAnLW1hJywgJzIwMCcsICctaW1hZScsICc8aW5maWxlLm1hZT4nLCAnLW9tYWUnLCAnPG91dGZpbGUubWFlPic=

>  <r_lp_tautomer_probability>  (129) 
1

>  <r_epik_Ionization_Penalty>  (129) 
7.96707e-06

>  <r_epik_Ionization_Penalty_Charging>  (129) 
0

>  <r_epik_Ionization_Penalty_Neutral>  (129) 
7.96707e-06

>  <r_epik_State_Penalty>  (129) 
-0

>  <r_epik_Charging_Adjusted_Penalty>  (129) 
0

>  <i_epik_Tot_Q>  (129) 
0

>  <i_epik_Tot_abs_Q>  (129) 
0

>  <s_lp_Force_Field>  (129) 
OPLS3e

>  <r_lp_Energy>  (129) 
35.7695

>  <b_lp_Chiralities_Consistent>  (129) 
1

>  <s_lp_Variant>  (129) 
33:0-1

>  <s_i_glide_gridfile>  (129) 
pfpi4k_grid

>  <i_i_glide_lignum>  (129) 
22

>  <i_i_glide_rotatable_bonds>  (129) 
2

>  <r_i_docking_score>  (129) 
-3.47538

>  <r_i_glide_ligand_efficiency>  (129) 
-0.248241

>  <r_i_glide_ligand_efficiency_sa>  (129) 
-0.598297

>  <r_i_glide_ligand_efficiency_ln>  (129) 
-0.955022

>  <r_i_glide_gscore>  (129) 
-3.47538

>  <r_i_glide_lipo>  (129) 
-0.757628

>  <r_i_glide_hbond>  (129) 
0

>  <r_i_glide_metal>  (129) 
-0

>  <r_i_glide_rewards>  (129) 
-2.06493

>  <r_i_glide_evdw>  (129) 
-18.8975

>  <r_i_glide_ecoul>  (129) 
-0.815095

>  <r_i_glide_erotb>  (129) 
0.414324

>  <r_i_glide_esite>  (129) 
0

>  <r_i_glide_emodel>  (129) 
-23.5174

>  <r_i_glide_energy>  (129) 
-19.7126

>  <r_i_glide_einternal>  (129) 
0.59912

>  <r_i_glide_intrahb_reward>  (129) 
-0

>  <i_i_glide_confnum>  (129) 
1

>  <i_i_glide_posenum>  (129) 
31

>  <r_i_glide_eff_state_penalty>  (129) 
0

>  <ligand_id>  (129) 
33

>  <original_smiles>  (129) 
CC1(C)C2CC3CCC1(OO)OCC32

>  <smiles>  (129) 
[H]OOC12OC([H])([H])C3([H])C([H])(C([H])([H])C1([H])[H])C([H])([H])C3([H])C2(C([H])([H])[H])C([H])([H])[H]

$$$$
33:0:1
     RDKit          3D

 32 34  0  0  1  0  0  0  0  0999 V2000
    3.8388   -1.1782   -1.2960 C   0  0  0  0  0  0  0  0  0  0  0  0
    4.7240   -2.4481   -1.2365 C   0  0  0  0  0  0  0  0  0  0  0  0
    4.3974   -3.2304   -2.5307 C   0  0  0  0  0  0  0  0  0  0  0  0
    6.1691   -1.9809   -1.2255 C   0  0  2  0  0  0  0  0  0  0  0  0
    7.3345   -2.9302   -1.5212 C   0  0  0  0  0  0  0  0  0  0  0  0
    7.4790   -3.1568   -0.0149 C   0  0  2  0  0  0  0  0  0  0  0  0
    6.8041   -4.3772    0.6104 C   0  0  0  0  0  0  0  0  0  0  0  0
    5.3272   -4.5745    0.1927 C   0  0  0  0  0  0  0  0  0  0  0  0
    4.4669   -3.2857    0.0744 C   0  0  2  0  0  0  0  0  0  0  0  0
    3.1214   -3.7581    0.0040 O   0  0  0  0  0  0  0  0  0  0  0  0
    2.2636   -2.8082    0.7060 O   0  0  0  0  0  0  0  0  0  0  0  0
    4.7175   -2.5470    1.2941 O   0  0  0  0  0  0  0  0  0  0  0  0
    5.8324   -1.6406    1.3402 C   0  0  0  0  0  0  0  0  0  0  0  0
    6.7869   -1.8088    0.1609 C   0  0  2  0  0  0  0  0  0  0  0  0
    4.0877   -0.5393   -2.1443 H   0  0  0  0  0  0  0  0  0  0  0  0
    3.9282   -0.5788   -0.3923 H   0  0  0  0  0  0  0  0  0  0  0  0
    2.7968   -1.4375   -1.4419 H   0  0  0  0  0  0  0  0  0  0  0  0
    4.9681   -4.1465   -2.6371 H   0  0  0  0  0  0  0  0  0  0  0  0
    4.6018   -2.6217   -3.4069 H   0  0  0  0  0  0  0  0  0  0  0  0
    3.3470   -3.5094   -2.5643 H   0  0  0  0  0  0  0  0  0  0  0  0
    6.2511   -1.0931   -1.8341 H   0  0  0  0  0  0  0  0  0  0  0  0
    7.0816   -3.8273   -2.0908 H   0  0  0  0  0  0  0  0  0  0  0  0
    8.2032   -2.4154   -1.9286 H   0  0  0  0  0  0  0  0  0  0  0  0
    8.5241   -3.0641    0.2679 H   0  0  0  0  0  0  0  0  0  0  0  0
    7.3820   -5.2828    0.3913 H   0  0  0  0  0  0  0  0  0  0  0  0
    6.8528   -4.2714    1.6970 H   0  0  0  0  0  0  0  0  0  0  0  0
    5.3013   -5.1257   -0.7411 H   0  0  0  0  0  0  0  0  0  0  0  0
    4.8599   -5.2234    0.9256 H   0  0  0  0  0  0  0  0  0  0  0  0
    2.0302   -2.1928    0.0105 H   0  0  0  0  0  0  0  0  0  0  0  0
    5.4541   -0.6187    1.3985 H   0  0  0  0  0  0  0  0  0  0  0  0
    6.3408   -1.8196    2.2894 H   0  0  0  0  0  0  0  0  0  0  0  0
    7.5425   -1.0377    0.1314 H   0  0  0  0  0  0  0  0  0  0  0  0
  1  2  1  0
  1 15  1  0
  1 16  1  0
  1 17  1  0
  2  9  1  0
  2  3  1  0
  2  4  1  0
  3 18  1  0
  3 19  1  0
  3 20  1  0
  4 14  1  0
  4  5  1  0
  4 21  1  6
  5  6  1  0
  5 22  1  0
  5 23  1  0
  6 14  1  0
  6  7  1  0
  6 24  1  6
  7  8  1  0
  7 25  1  0
  7 26  1  0
  8  9  1  0
  8 27  1  0
  8 28  1  0
  9 10  1  1
  9 12  1  0
 10 11  1  0
 11 29  1  0
 12 13  1  0
 13 14  1  0
 13 30  1  0
 13 31  1  0
 14 32  1  6
M  END
>  <i_m_ct_stereo_status>  (130) 
1

>  <s_m_source_file>  (130) 
/var/tmp/pbs.5076255.sched01/tmpx9mnojvb/44r91_cmns.sdf

>  <i_m_source_file_index>  (130) 
22

>  <i_lp_mmshare_version>  (130) 
48012

>  <i_f3d_flags>  (130) 
0

>  <s_epik_input>  (130) 
W09IXU9bQ0BdMTJDKFtDSDNdKShbQ0gzXSlbQ0BIXTNbQ0BASF0oW0NIMl1PMilbQ0BIXShbQ0gyXTMpW0NIMl1bQ0gyXTE=

>  <s_epik_cmdline>  (130) 
J2VwaWtfcHl0aG9uJywgJy1waHQnLCAnMi4wJywgJy1waCcsICc3LjAnLCAnLXRuJywgJzgnLCAnLW1hJywgJzIwMCcsICctaW1hZScsICc8aW5maWxlLm1hZT4nLCAnLW9tYWUnLCAnPG91dGZpbGUubWFlPic=

>  <r_lp_tautomer_probability>  (130) 
1

>  <r_epik_Ionization_Penalty>  (130) 
7.96707e-06

>  <r_epik_Ionization_Penalty_Charging>  (130) 
0

>  <r_epik_Ionization_Penalty_Neutral>  (130) 
7.96707e-06

>  <r_epik_State_Penalty>  (130) 
-0

>  <r_epik_Charging_Adjusted_Penalty>  (130) 
0

>  <i_epik_Tot_Q>  (130) 
0

>  <i_epik_Tot_abs_Q>  (130) 
0

>  <s_lp_Force_Field>  (130) 
OPLS3e

>  <r_lp_Energy>  (130) 
35.7695

>  <b_lp_Chiralities_Consistent>  (130) 
1

>  <s_lp_Variant>  (130) 
33:0-1

>  <s_i_glide_gridfile>  (130) 
pfpi4k_grid

>  <i_i_glide_lignum>  (130) 
22

>  <i_i_glide_rotatable_bonds>  (130) 
2

>  <r_i_docking_score>  (130) 
-3.32148

>  <r_i_glide_ligand_efficiency>  (130) 
-0.237248

>  <r_i_glide_ligand_efficiency_sa>  (130) 
-0.571802

>  <r_i_glide_ligand_efficiency_ln>  (130) 
-0.91273

>  <r_i_glide_gscore>  (130) 
-3.32148

>  <r_i_glide_lipo>  (130) 
-0.501047

>  <r_i_glide_hbond>  (130) 
0

>  <r_i_glide_metal>  (130) 
-0

>  <r_i_glide_rewards>  (130) 
-2.09673

>  <r_i_glide_evdw>  (130) 
-16.4196

>  <r_i_glide_ecoul>  (130) 
-2.11361

>  <r_i_glide_erotb>  (130) 
0.414324

>  <r_i_glide_esite>  (130) 
0

>  <r_i_glide_emodel>  (130) 
-21.5397

>  <r_i_glide_energy>  (130) 
-18.5332

>  <r_i_glide_einternal>  (130) 
2.09379

>  <r_i_glide_intrahb_reward>  (130) 
-0

>  <i_i_glide_confnum>  (130) 
2

>  <i_i_glide_posenum>  (130) 
1

>  <r_i_glide_eff_state_penalty>  (130) 
0

>  <ligand_id>  (130) 
33

>  <original_smiles>  (130) 
CC1(C)C2CC3CCC1(OO)OCC32

>  <smiles>  (130) 
[H]OOC12OC([H])([H])C3([H])C([H])(C([H])([H])C1([H])[H])C([H])([H])C3([H])C2(C([H])([H])[H])C([H])([H])[H]

$$$$
33:0:2
     RDKit          3D

 32 34  0  0  1  0  0  0  0  0999 V2000
    6.2795   -2.0951   -0.4783 C   0  0  0  0  0  0  0  0  0  0  0  0
    4.7751   -1.9900   -0.8147 C   0  0  0  0  0  0  0  0  0  0  0  0
    4.1628   -1.0670    0.2716 C   0  0  0  0  0  0  0  0  0  0  0  0
    4.6209   -1.3645   -2.2147 C   0  0  2  0  0  0  0  0  0  0  0  0
    3.2689   -0.8717   -2.7180 C   0  0  0  0  0  0  0  0  0  0  0  0
    3.0292   -2.2181   -3.3754 C   0  0  2  0  0  0  0  0  0  0  0  0
    2.2062   -3.2521   -2.6226 C   0  0  0  0  0  0  0  0  0  0  0  0
    2.6158   -3.4560   -1.1495 C   0  0  0  0  0  0  0  0  0  0  0  0
    4.1421   -3.4314   -0.8215 C   0  0  2  0  0  0  0  0  0  0  0  0
    4.2947   -3.9343    0.5083 O   0  0  0  0  0  0  0  0  0  0  0  0
    3.9655   -5.3556    0.5194 O   0  0  0  0  0  0  0  0  0  0  0  0
    4.8603   -4.2522   -1.7569 O   0  0  0  0  0  0  0  0  0  0  0  0
    5.1164   -3.7612   -3.0833 C   0  0  0  0  0  0  0  0  0  0  0  0
    4.5487   -2.3742   -3.3580 C   0  0  2  0  0  0  0  0  0  0  0  0
    6.7287   -1.1077   -0.4581 H   0  0  0  0  0  0  0  0  0  0  0  0
    6.8254   -2.6960   -1.2038 H   0  0  0  0  0  0  0  0  0  0  0  0
    6.4461   -2.5370    0.5039 H   0  0  0  0  0  0  0  0  0  0  0  0
    3.0901   -0.9302    0.1713 H   0  0  0  0  0  0  0  0  0  0  0  0
    4.6077   -0.0762    0.2290 H   0  0  0  0  0  0  0  0  0  0  0  0
    4.3383   -1.4597    1.2723 H   0  0  0  0  0  0  0  0  0  0  0  0
    5.3615   -0.5919   -2.3985 H   0  0  0  0  0  0  0  0  0  0  0  0
    2.5769   -0.6479   -1.9224 H   0  0  0  0  0  0  0  0  0  0  0  0
    3.3433   -0.0619   -3.4439 H   0  0  0  0  0  0  0  0  0  0  0  0
    2.6665   -2.0829   -4.3954 H   0  0  0  0  0  0  0  0  0  0  0  0
    1.1454   -3.0152   -2.6608 H   0  0  0  0  0  0  0  0  0  0  0  0
    2.2768   -4.1944   -3.1618 H   0  0  0  0  0  0  0  0  0  0  0  0
    2.1230   -2.7195   -0.5241 H   0  0  0  0  0  0  0  0  0  0  0  0
    2.1729   -4.4045   -0.8524 H   0  0  0  0  0  0  0  0  0  0  0  0
    4.7567   -5.7263    0.1415 H   0  0  0  0  0  0  0  0  0  0  0  0
    6.1989   -3.7512   -3.2183 H   0  0  0  0  0  0  0  0  0  0  0  0
    4.7313   -4.4879   -3.8038 H   0  0  0  0  0  0  0  0  0  0  0  0
    4.9417   -1.9211   -4.2701 H   0  0  0  0  0  0  0  0  0  0  0  0
  1  2  1  0
  1 15  1  0
  1 16  1  0
  1 17  1  0
  2  9  1  0
  2  3  1  0
  2  4  1  0
  3 18  1  0
  3 19  1  0
  3 20  1  0
  4 14  1  0
  4  5  1  0
  4 21  1  6
  5  6  1  0
  5 22  1  0
  5 23  1  0
  6 14  1  0
  6  7  1  0
  6 24  1  6
  7  8  1  0
  7 25  1  0
  7 26  1  0
  8  9  1  0
  8 27  1  0
  8 28  1  0
  9 10  1  1
  9 12  1  0
 10 11  1  0
 11 29  1  0
 12 13  1  0
 13 14  1  0
 13 30  1  0
 13 31  1  0
 14 32  1  6
M  END
>  <i_m_ct_stereo_status>  (131) 
1

>  <s_m_source_file>  (131) 
/var/tmp/pbs.5076255.sched01/tmpx9mnojvb/44r91_cmns.sdf

>  <i_m_source_file_index>  (131) 
22

>  <i_lp_mmshare_version>  (131) 
48012

>  <i_f3d_flags>  (131) 
0

>  <s_epik_input>  (131) 
W09IXU9bQ0BdMTJDKFtDSDNdKShbQ0gzXSlbQ0BIXTNbQ0BASF0oW0NIMl1PMilbQ0BIXShbQ0gyXTMpW0NIMl1bQ0gyXTE=

>  <s_epik_cmdline>  (131) 
J2VwaWtfcHl0aG9uJywgJy1waHQnLCAnMi4wJywgJy1waCcsICc3LjAnLCAnLXRuJywgJzgnLCAnLW1hJywgJzIwMCcsICctaW1hZScsICc8aW5maWxlLm1hZT4nLCAnLW9tYWUnLCAnPG91dGZpbGUubWFlPic=

>  <r_lp_tautomer_probability>  (131) 
1

>  <r_epik_Ionization_Penalty>  (131) 
7.96707e-06

>  <r_epik_Ionization_Penalty_Charging>  (131) 
0

>  <r_epik_Ionization_Penalty_Neutral>  (131) 
7.96707e-06

>  <r_epik_State_Penalty>  (131) 
-0

>  <r_epik_Charging_Adjusted_Penalty>  (131) 
0

>  <i_epik_Tot_Q>  (131) 
0

>  <i_epik_Tot_abs_Q>  (131) 
0

>  <s_lp_Force_Field>  (131) 
OPLS3e

>  <r_lp_Energy>  (131) 
35.7695

>  <b_lp_Chiralities_Consistent>  (131) 
1

>  <s_lp_Variant>  (131) 
33:0-1

>  <s_i_glide_gridfile>  (131) 
pfpi4k_grid

>  <i_i_glide_lignum>  (131) 
22

>  <i_i_glide_rotatable_bonds>  (131) 
2

>  <r_i_docking_score>  (131) 
-3.20142

>  <r_i_glide_ligand_efficiency>  (131) 
-0.228673

>  <r_i_glide_ligand_efficiency_sa>  (131) 
-0.551134

>  <r_i_glide_ligand_efficiency_ln>  (131) 
-0.879739

>  <r_i_glide_gscore>  (131) 
-3.20142

>  <r_i_glide_lipo>  (131) 
-0.581309

>  <r_i_glide_hbond>  (131) 
0

>  <r_i_glide_metal>  (131) 
-0

>  <r_i_glide_rewards>  (131) 
-2.07829

>  <r_i_glide_evdw>  (131) 
-19.6991

>  <r_i_glide_ecoul>  (131) 
0.19208

>  <r_i_glide_erotb>  (131) 
0.414324

>  <r_i_glide_esite>  (131) 
0

>  <r_i_glide_emodel>  (131) 
-23.3321

>  <r_i_glide_energy>  (131) 
-19.507

>  <r_i_glide_einternal>  (131) 
0.0507624

>  <r_i_glide_intrahb_reward>  (131) 
-0

>  <i_i_glide_confnum>  (131) 
4

>  <i_i_glide_posenum>  (131) 
28

>  <r_i_glide_eff_state_penalty>  (131) 
0

>  <ligand_id>  (131) 
33

>  <original_smiles>  (131) 
CC1(C)C2CC3CCC1(OO)OCC32

>  <smiles>  (131) 
[H]OOC12OC([H])([H])C3([H])C([H])(C([H])([H])C1([H])[H])C([H])([H])C3([H])C2(C([H])([H])[H])C([H])([H])[H]

$$$$
34:0:0
     RDKit          3D

 34 36  0  0  1  0  0  0  0  0999 V2000
    0.0960   -6.1951    7.9007 C   0  0  0  0  0  0  0  0  0  0  0  0
   -0.8907   -4.8053    7.2811 S   0  0  0  0  0  0  0  0  0  0  0  0
    0.2158   -3.6673    6.4968 C   0  0  0  0  0  0  0  0  0  0  0  0
    1.5397   -3.9559    6.4658 N   0  0  0  0  0  0  0  0  0  0  0  0
    2.3679   -3.0813    5.8855 C   0  0  0  0  0  0  0  0  0  0  0  0
    2.0806   -1.9056    5.3081 N   0  0  0  0  0  0  0  0  0  0  0  0
    0.7428   -1.6282    5.3469 C   0  0  0  0  0  0  0  0  0  0  0  0
   -0.2468   -2.4687    5.9255 C   0  0  0  0  0  0  0  0  0  0  0  0
   -1.5095   -1.9101    5.8033 N   0  0  0  0  0  0  0  0  0  0  0  0
   -1.2409   -0.7785    5.1611 C   0  0  0  0  0  0  0  0  0  0  0  0
    0.0519   -0.5280    4.8641 N   0  0  0  0  0  0  0  0  0  0  0  0
    0.6126    0.6331    4.1267 C   0  0  2  0  0  0  0  0  0  0  0  0
   -0.0426    1.7885    4.5706 O   0  0  0  0  0  0  0  0  0  0  0  0
   -0.5104    2.5649    3.4668 C   0  0  1  0  0  0  0  0  0  0  0  0
   -0.3063    4.0891    3.7010 C   0  0  0  0  0  0  0  0  0  0  0  0
   -1.1638    4.8683    2.8811 O   0  0  0  0  0  0  0  0  0  0  0  0
    0.1710    1.9361    2.2426 C   0  0  1  0  0  0  0  0  0  0  0  0
    1.4327    2.5415    2.0616 O   0  0  0  0  0  0  0  0  0  0  0  0
    0.2977    0.4823    2.6453 C   0  0  1  0  0  0  0  0  0  0  0  0
    1.2842   -0.2220    1.9146 O   0  0  0  0  0  0  0  0  0  0  0  0
   -0.5640   -6.9206    8.3795 H   0  0  0  0  0  0  0  0  0  0  0  0
    0.8234   -5.8490    8.6381 H   0  0  0  0  0  0  0  0  0  0  0  0
    0.6240   -6.6961    7.0860 H   0  0  0  0  0  0  0  0  0  0  0  0
    3.4100   -3.3637    5.8832 H   0  0  0  0  0  0  0  0  0  0  0  0
   -2.0213   -0.0884    4.8766 H   0  0  0  0  0  0  0  0  0  0  0  0
    1.6743    0.6860    4.3712 H   0  0  0  0  0  0  0  0  0  0  0  0
   -1.5769    2.3547    3.4104 H   0  0  0  0  0  0  0  0  0  0  0  0
   -0.4853    4.3369    4.7504 H   0  0  0  0  0  0  0  0  0  0  0  0
    0.7160    4.4064    3.5077 H   0  0  0  0  0  0  0  0  0  0  0  0
   -0.8066    4.8197    1.9811 H   0  0  0  0  0  0  0  0  0  0  0  0
   -0.4191    2.0528    1.3327 H   0  0  0  0  0  0  0  0  0  0  0  0
    1.2555    3.3559    1.5939 H   0  0  0  0  0  0  0  0  0  0  0  0
   -0.6788    0.0150    2.5286 H   0  0  0  0  0  0  0  0  0  0  0  0
    1.0413   -0.2508    0.9926 H   0  0  0  0  0  0  0  0  0  0  0  0
  1  2  1  0
  1 21  1  0
  1 22  1  0
  1 23  1  0
  2  3  1  0
  3  8  2  0
  3  4  1  0
  4  5  2  0
  5  6  1  0
  5 24  1  0
  6  7  2  0
  7 11  1  0
  7  8  1  0
  8  9  1  0
  9 10  2  0
 10 11  1  0
 10 25  1  0
 11 12  1  0
 12 19  1  0
 12 13  1  0
 12 26  1  6
 13 14  1  0
 14 15  1  0
 14 17  1  0
 14 27  1  6
 15 16  1  0
 15 28  1  0
 15 29  1  0
 16 30  1  0
 17 18  1  0
 17 19  1  0
 17 31  1  6
 18 32  1  0
 19 20  1  0
 19 33  1  1
 20 34  1  0
M  END
>  <i_m_ct_stereo_status>  (132) 
1

>  <s_m_source_file>  (132) 
/var/tmp/pbs.5076255.sched01/tmpx9mnojvb/44r91_cmns.sdf

>  <i_m_source_file_index>  (132) 
23

>  <i_lp_mmshare_version>  (132) 
48012

>  <i_f3d_flags>  (132) 
0

>  <s_epik_input>  (132) 
bjFbY0hdbmMoU1tDSDNdKWMoYzEyKW5bY0hdbjJbQ0BASF0zT1tDQEBIXShbQ0gyXVtPSF0pW0NAQEhdKFtPSF0pW0NASF0zW09IXQ==

>  <s_epik_cmdline>  (132) 
J2VwaWtfcHl0aG9uJywgJy1waHQnLCAnMi4wJywgJy1waCcsICc3LjAnLCAnLXRuJywgJzgnLCAnLW1hJywgJzIwMCcsICctaW1hZScsICc8aW5maWxlLm1hZT4nLCAnLW9tYWUnLCAnPG91dGZpbGUubWFlPic=

>  <r_lp_tautomer_probability>  (132) 
1

>  <r_epik_Ionization_Penalty>  (132) 
5.34957e-06

>  <r_epik_Ionization_Penalty_Charging>  (132) 
0

>  <r_epik_Ionization_Penalty_Neutral>  (132) 
5.34957e-06

>  <r_epik_State_Penalty>  (132) 
-0

>  <r_epik_Charging_Adjusted_Penalty>  (132) 
0

>  <i_epik_Tot_Q>  (132) 
0

>  <i_epik_Tot_abs_Q>  (132) 
0

>  <s_epik_Chemistry_Notes>  (132) 
This compound contains an acetal/aminal-like group ( X-CH(R)-Y where X, Y are N, S, or O) that may be acid/base labile, releasing an aldehyde.

>  <s_lp_Force_Field>  (132) 
OPLS3e

>  <r_lp_Energy>  (132) 
15.2169

>  <b_lp_Chiralities_Consistent>  (132) 
1

>  <s_lp_Variant>  (132) 
34:0-1

>  <s_i_glide_gridfile>  (132) 
pfpi4k_grid

>  <i_i_glide_lignum>  (132) 
23

>  <i_i_glide_rotatable_bonds>  (132) 
6

>  <r_i_docking_score>  (132) 
-4.18435

>  <r_i_glide_ligand_efficiency>  (132) 
-0.209217

>  <r_i_glide_ligand_efficiency_sa>  (132) 
-0.567903

>  <r_i_glide_ligand_efficiency_ln>  (132) 
-1.0472

>  <r_i_glide_gscore>  (132) 
-4.18435

>  <r_i_glide_lipo>  (132) 
-0.0213862

>  <r_i_glide_hbond>  (132) 
-0.23345

>  <r_i_glide_metal>  (132) 
-0

>  <r_i_glide_rewards>  (132) 
-1.3751

>  <r_i_glide_evdw>  (132) 
-13.3275

>  <r_i_glide_ecoul>  (132) 
-14.8799

>  <r_i_glide_erotb>  (132) 
0.412367

>  <r_i_glide_esite>  (132) 
-0.0684269

>  <r_i_glide_emodel>  (132) 
-36.7397

>  <r_i_glide_energy>  (132) 
-28.2073

>  <r_i_glide_einternal>  (132) 
2.38622

>  <r_i_glide_intrahb_reward>  (132) 
-0

>  <i_i_glide_confnum>  (132) 
2

>  <i_i_glide_posenum>  (132) 
37

>  <r_i_glide_eff_state_penalty>  (132) 
0

>  <ligand_id>  (132) 
34

>  <original_smiles>  (132) 
CSc1ncnc2c1ncn2C1OC(CO)C(O)C1O

>  <smiles>  (132) 
[H]OC([H])([H])C1([H])OC([H])(n2c([H])nc3c(SC([H])([H])[H])nc([H])nc32)C([H])(O[H])C1([H])O[H]

$$$$
34:0:1
     RDKit          3D

 34 36  0  0  1  0  0  0  0  0999 V2000
   -1.9743   -4.3343    7.9225 C   0  0  0  0  0  0  0  0  0  0  0  0
   -0.6604   -5.1020    6.9411 S   0  0  0  0  0  0  0  0  0  0  0  0
    0.3075   -3.7992    6.2508 C   0  0  0  0  0  0  0  0  0  0  0  0
    1.6403   -4.0103    6.1944 N   0  0  0  0  0  0  0  0  0  0  0  0
    2.4192   -3.0408    5.7087 C   0  0  0  0  0  0  0  0  0  0  0  0
    2.0753   -1.8323    5.2525 N   0  0  0  0  0  0  0  0  0  0  0  0
    0.7198   -1.6405    5.2987 C   0  0  0  0  0  0  0  0  0  0  0  0
   -0.2315   -2.5785    5.7825 C   0  0  0  0  0  0  0  0  0  0  0  0
   -1.5245   -2.0777    5.6852 N   0  0  0  0  0  0  0  0  0  0  0  0
   -1.3039   -0.8781    5.1557 C   0  0  0  0  0  0  0  0  0  0  0  0
   -0.0229   -0.5412    4.9144 N   0  0  0  0  0  0  0  0  0  0  0  0
    0.4789    0.7063    4.3031 C   0  0  2  0  0  0  0  0  0  0  0  0
   -0.2856    1.7627    4.8244 O   0  0  0  0  0  0  0  0  0  0  0  0
   -0.7746    2.5860    3.7691 C   0  0  1  0  0  0  0  0  0  0  0  0
   -0.7005    4.0915    4.1278 C   0  0  0  0  0  0  0  0  0  0  0  0
   -1.3859    4.8775    3.1703 O   0  0  0  0  0  0  0  0  0  0  0  0
    0.0194    2.1195    2.5421 C   0  0  1  0  0  0  0  0  0  0  0  0
    1.2507    2.8126    2.4810 O   0  0  0  0  0  0  0  0  0  0  0  0
    0.2173    0.6527    2.8040 C   0  0  1  0  0  0  0  0  0  0  0  0
    1.2639    0.0779    2.0423 O   0  0  0  0  0  0  0  0  0  0  0  0
   -2.6444   -5.0829    8.3361 H   0  0  0  0  0  0  0  0  0  0  0  0
   -2.5930   -3.6717    7.3217 H   0  0  0  0  0  0  0  0  0  0  0  0
   -1.5188   -3.7729    8.7373 H   0  0  0  0  0  0  0  0  0  0  0  0
    3.4690   -3.2794    5.7001 H   0  0  0  0  0  0  0  0  0  0  0  0
   -2.1232   -0.2067    4.9274 H   0  0  0  0  0  0  0  0  0  0  0  0
    1.5228    0.8198    4.5997 H   0  0  0  0  0  0  0  0  0  0  0  0
   -1.8181    2.3016    3.6253 H   0  0  0  0  0  0  0  0  0  0  0  0
   -1.1455    4.2819    5.1071 H   0  0  0  0  0  0  0  0  0  0  0  0
    0.3281    4.4429    4.2037 H   0  0  0  0  0  0  0  0  0  0  0  0
   -0.9348    4.7675    2.3333 H   0  0  0  0  0  0  0  0  0  0  0  0
   -0.5442    2.2589    1.6232 H   0  0  0  0  0  0  0  0  0  0  0  0
    1.0921    3.5283    1.8687 H   0  0  0  0  0  0  0  0  0  0  0  0
   -0.7300    0.1474    2.6073 H   0  0  0  0  0  0  0  0  0  0  0  0
    1.0375    0.0959    1.1171 H   0  0  0  0  0  0  0  0  0  0  0  0
  1  2  1  0
  1 21  1  0
  1 22  1  0
  1 23  1  0
  2  3  1  0
  3  8  2  0
  3  4  1  0
  4  5  2  0
  5  6  1  0
  5 24  1  0
  6  7  2  0
  7 11  1  0
  7  8  1  0
  8  9  1  0
  9 10  2  0
 10 11  1  0
 10 25  1  0
 11 12  1  0
 12 19  1  0
 12 13  1  0
 12 26  1  6
 13 14  1  0
 14 15  1  0
 14 17  1  0
 14 27  1  6
 15 16  1  0
 15 28  1  0
 15 29  1  0
 16 30  1  0
 17 18  1  0
 17 19  1  0
 17 31  1  6
 18 32  1  0
 19 20  1  0
 19 33  1  1
 20 34  1  0
M  END
>  <i_m_ct_stereo_status>  (133) 
1

>  <s_m_source_file>  (133) 
/var/tmp/pbs.5076255.sched01/tmpx9mnojvb/44r91_cmns.sdf

>  <i_m_source_file_index>  (133) 
23

>  <i_lp_mmshare_version>  (133) 
48012

>  <i_f3d_flags>  (133) 
0

>  <s_epik_input>  (133) 
bjFbY0hdbmMoU1tDSDNdKWMoYzEyKW5bY0hdbjJbQ0BASF0zT1tDQEBIXShbQ0gyXVtPSF0pW0NAQEhdKFtPSF0pW0NASF0zW09IXQ==

>  <s_epik_cmdline>  (133) 
J2VwaWtfcHl0aG9uJywgJy1waHQnLCAnMi4wJywgJy1waCcsICc3LjAnLCAnLXRuJywgJzgnLCAnLW1hJywgJzIwMCcsICctaW1hZScsICc8aW5maWxlLm1hZT4nLCAnLW9tYWUnLCAnPG91dGZpbGUubWFlPic=

>  <r_lp_tautomer_probability>  (133) 
1

>  <r_epik_Ionization_Penalty>  (133) 
5.34957e-06

>  <r_epik_Ionization_Penalty_Charging>  (133) 
0

>  <r_epik_Ionization_Penalty_Neutral>  (133) 
5.34957e-06

>  <r_epik_State_Penalty>  (133) 
-0

>  <r_epik_Charging_Adjusted_Penalty>  (133) 
0

>  <i_epik_Tot_Q>  (133) 
0

>  <i_epik_Tot_abs_Q>  (133) 
0

>  <s_epik_Chemistry_Notes>  (133) 
This compound contains an acetal/aminal-like group ( X-CH(R)-Y where X, Y are N, S, or O) that may be acid/base labile, releasing an aldehyde.

>  <s_lp_Force_Field>  (133) 
OPLS3e

>  <r_lp_Energy>  (133) 
15.2169

>  <b_lp_Chiralities_Consistent>  (133) 
1

>  <s_lp_Variant>  (133) 
34:0-1

>  <s_i_glide_gridfile>  (133) 
pfpi4k_grid

>  <i_i_glide_lignum>  (133) 
23

>  <i_i_glide_rotatable_bonds>  (133) 
6

>  <r_i_docking_score>  (133) 
-3.85161

>  <r_i_glide_ligand_efficiency>  (133) 
-0.192581

>  <r_i_glide_ligand_efficiency_sa>  (133) 
-0.522744

>  <r_i_glide_ligand_efficiency_ln>  (133) 
-0.963931

>  <r_i_glide_gscore>  (133) 
-3.85161

>  <r_i_glide_lipo>  (133) 
-0.055872

>  <r_i_glide_hbond>  (133) 
0

>  <r_i_glide_metal>  (133) 
-0

>  <r_i_glide_rewards>  (133) 
-1.3751

>  <r_i_glide_evdw>  (133) 
-16.4152

>  <r_i_glide_ecoul>  (133) 
-12.9447

>  <r_i_glide_erotb>  (133) 
0.412367

>  <r_i_glide_esite>  (133) 
-0.0705408

>  <r_i_glide_emodel>  (133) 
-36.5299

>  <r_i_glide_energy>  (133) 
-29.36

>  <r_i_glide_einternal>  (133) 
3.18267

>  <r_i_glide_intrahb_reward>  (133) 
-0

>  <i_i_glide_confnum>  (133) 
2

>  <i_i_glide_posenum>  (133) 
14

>  <r_i_glide_eff_state_penalty>  (133) 
0

>  <ligand_id>  (133) 
34

>  <original_smiles>  (133) 
CSc1ncnc2c1ncn2C1OC(CO)C(O)C1O

>  <smiles>  (133) 
[H]OC([H])([H])C1([H])OC([H])(n2c([H])nc3c(SC([H])([H])[H])nc([H])nc32)C([H])(O[H])C1([H])O[H]

$$$$
34:0:2
     RDKit          3D

 34 36  0  0  1  0  0  0  0  0999 V2000
    0.4251   -9.5093    3.6775 C   0  0  0  0  0  0  0  0  0  0  0  0
    0.0553   -8.1495    2.5376 S   0  0  0  0  0  0  0  0  0  0  0  0
    1.4706   -7.0965    2.4930 C   0  0  0  0  0  0  0  0  0  0  0  0
    2.3061   -7.0827    3.5604 N   0  0  0  0  0  0  0  0  0  0  0  0
    3.3446   -6.2366    3.5565 C   0  0  0  0  0  0  0  0  0  0  0  0
    3.6983   -5.3520    2.6175 N   0  0  0  0  0  0  0  0  0  0  0  0
    2.8506   -5.3822    1.5417 C   0  0  0  0  0  0  0  0  0  0  0  0
    1.7125   -6.2202    1.4172 C   0  0  0  0  0  0  0  0  0  0  0  0
    1.0414   -5.9791    0.2287 N   0  0  0  0  0  0  0  0  0  0  0  0
    1.8170   -5.0531   -0.3223 C   0  0  0  0  0  0  0  0  0  0  0  0
    2.8864   -4.6324    0.3814 N   0  0  0  0  0  0  0  0  0  0  0  0
    3.9088   -3.6201    0.0131 C   0  0  2  0  0  0  0  0  0  0  0  0
    3.3267   -2.6992   -0.8594 O   0  0  0  0  0  0  0  0  0  0  0  0
    4.1015   -2.5456   -2.0448 C   0  0  1  0  0  0  0  0  0  0  0  0
    4.1692   -1.0576   -2.4422 C   0  0  0  0  0  0  0  0  0  0  0  0
    3.0177   -0.6727   -3.1404 O   0  0  0  0  0  0  0  0  0  0  0  0
    5.4584   -3.1717   -1.6883 C   0  0  1  0  0  0  0  0  0  0  0  0
    6.2798   -2.2190   -1.0194 O   0  0  0  0  0  0  0  0  0  0  0  0
    5.0411   -4.2914   -0.7504 C   0  0  1  0  0  0  0  0  0  0  0  0
    6.1095   -4.6952    0.0797 O   0  0  0  0  0  0  0  0  0  0  0  0
   -0.4092  -10.2132    3.6827 H   0  0  0  0  0  0  0  0  0  0  0  0
    0.5600   -9.1211    4.6881 H   0  0  0  0  0  0  0  0  0  0  0  0
    1.3282  -10.0460    3.3768 H   0  0  0  0  0  0  0  0  0  0  0  0
    3.9747   -6.2873    4.4311 H   0  0  0  0  0  0  0  0  0  0  0  0
    1.6098   -4.6574   -1.3081 H   0  0  0  0  0  0  0  0  0  0  0  0
    4.1734   -3.1063    0.9360 H   0  0  0  0  0  0  0  0  0  0  0  0
    3.6492   -3.1431   -2.8447 H   0  0  0  0  0  0  0  0  0  0  0  0
    4.3247   -0.4049   -1.5777 H   0  0  0  0  0  0  0  0  0  0  0  0
    4.9848   -0.8966   -3.1413 H   0  0  0  0  0  0  0  0  0  0  0  0
    2.2827   -0.6928   -2.5335 H   0  0  0  0  0  0  0  0  0  0  0  0
    5.9786   -3.5442   -2.5739 H   0  0  0  0  0  0  0  0  0  0  0  0
    5.7925   -1.8983   -0.2724 H   0  0  0  0  0  0  0  0  0  0  0  0
    4.6379   -5.1260   -1.3291 H   0  0  0  0  0  0  0  0  0  0  0  0
    6.3802   -3.9495    0.5952 H   0  0  0  0  0  0  0  0  0  0  0  0
  1  2  1  0
  1 21  1  0
  1 22  1  0
  1 23  1  0
  2  3  1  0
  3  8  2  0
  3  4  1  0
  4  5  2  0
  5  6  1  0
  5 24  1  0
  6  7  2  0
  7 11  1  0
  7  8  1  0
  8  9  1  0
  9 10  2  0
 10 11  1  0
 10 25  1  0
 11 12  1  0
 12 19  1  0
 12 13  1  0
 12 26  1  1
 13 14  1  0
 14 15  1  0
 14 17  1  0
 14 27  1  6
 15 16  1  0
 15 28  1  0
 15 29  1  0
 16 30  1  0
 17 18  1  0
 17 19  1  0
 17 31  1  6
 18 32  1  0
 19 20  1  0
 19 33  1  6
 20 34  1  0
M  END
>  <i_m_ct_stereo_status>  (134) 
1

>  <s_m_source_file>  (134) 
/var/tmp/pbs.5076255.sched01/tmpx9mnojvb/44r91_cmns.sdf

>  <i_m_source_file_index>  (134) 
23

>  <i_lp_mmshare_version>  (134) 
48012

>  <i_f3d_flags>  (134) 
0

>  <s_epik_input>  (134) 
bjFbY0hdbmMoU1tDSDNdKWMoYzEyKW5bY0hdbjJbQ0BASF0zT1tDQEBIXShbQ0gyXVtPSF0pW0NAQEhdKFtPSF0pW0NASF0zW09IXQ==

>  <s_epik_cmdline>  (134) 
J2VwaWtfcHl0aG9uJywgJy1waHQnLCAnMi4wJywgJy1waCcsICc3LjAnLCAnLXRuJywgJzgnLCAnLW1hJywgJzIwMCcsICctaW1hZScsICc8aW5maWxlLm1hZT4nLCAnLW9tYWUnLCAnPG91dGZpbGUubWFlPic=

>  <r_lp_tautomer_probability>  (134) 
1

>  <r_epik_Ionization_Penalty>  (134) 
5.34957e-06

>  <r_epik_Ionization_Penalty_Charging>  (134) 
0

>  <r_epik_Ionization_Penalty_Neutral>  (134) 
5.34957e-06

>  <r_epik_State_Penalty>  (134) 
-0

>  <r_epik_Charging_Adjusted_Penalty>  (134) 
0

>  <i_epik_Tot_Q>  (134) 
0

>  <i_epik_Tot_abs_Q>  (134) 
0

>  <s_epik_Chemistry_Notes>  (134) 
This compound contains an acetal/aminal-like group ( X-CH(R)-Y where X, Y are N, S, or O) that may be acid/base labile, releasing an aldehyde.

>  <s_lp_Force_Field>  (134) 
OPLS3e

>  <r_lp_Energy>  (134) 
15.2169

>  <b_lp_Chiralities_Consistent>  (134) 
1

>  <s_lp_Variant>  (134) 
34:0-1

>  <s_i_glide_gridfile>  (134) 
pfpi4k_grid

>  <i_i_glide_lignum>  (134) 
23

>  <i_i_glide_rotatable_bonds>  (134) 
6

>  <r_i_docking_score>  (134) 
-3.81536

>  <r_i_glide_ligand_efficiency>  (134) 
-0.190768

>  <r_i_glide_ligand_efficiency_sa>  (134) 
-0.517823

>  <r_i_glide_ligand_efficiency_ln>  (134) 
-0.954858

>  <r_i_glide_gscore>  (134) 
-3.81536

>  <r_i_glide_lipo>  (134) 
-0.129

>  <r_i_glide_hbond>  (134) 
-0.298178

>  <r_i_glide_metal>  (134) 
-0

>  <r_i_glide_rewards>  (134) 
-1.38936

>  <r_i_glide_evdw>  (134) 
-19.4197

>  <r_i_glide_ecoul>  (134) 
-8.70761

>  <r_i_glide_erotb>  (134) 
0.412367

>  <r_i_glide_esite>  (134) 
-0.134059

>  <r_i_glide_emodel>  (134) 
-36.7772

>  <r_i_glide_energy>  (134) 
-28.1274

>  <r_i_glide_einternal>  (134) 
0.861919

>  <r_i_glide_intrahb_reward>  (134) 
-0

>  <i_i_glide_confnum>  (134) 
6

>  <i_i_glide_posenum>  (134) 
11

>  <r_i_glide_eff_state_penalty>  (134) 
0

>  <ligand_id>  (134) 
34

>  <original_smiles>  (134) 
CSc1ncnc2c1ncn2C1OC(CO)C(O)C1O

>  <smiles>  (134) 
[H]OC([H])([H])C1([H])OC([H])(n2c([H])nc3c(SC([H])([H])[H])nc([H])nc32)C([H])(O[H])C1([H])O[H]

$$$$
35:0:0
     RDKit          3D

 87 91  0  0  1  0  0  0  0  0999 V2000
    1.7051    4.0219    9.3061 C   0  0  0  0  0  0  0  0  0  0  0  0
    0.7728    2.8741    8.8830 C   0  0  0  0  0  0  0  0  0  0  0  0
    1.3206    2.1161    7.8051 O   0  0  0  0  0  0  0  0  0  0  0  0
    1.1840    2.5581    6.5372 C   0  0  0  0  0  0  0  0  0  0  0  0
    0.5844    3.6092    6.2746 O   0  0  0  0  0  0  0  0  0  0  0  0
    1.8508    1.6934    5.5299 C   0  0  0  0  0  0  0  0  0  0  0  0
    2.6036    0.6292    5.8324 C   0  0  0  0  0  0  0  0  0  0  0  0
    3.2303   -0.0374    4.6255 C   0  0  2  0  0  0  0  0  0  0  0  0
    4.7054    0.4622    4.6493 C   0  0  0  0  0  0  0  0  0  0  0  0
    2.4218    0.6043    3.4265 C   0  0  1  0  0  0  0  0  0  0  0  0
    1.4461   -0.4374    2.7943 C   0  0  1  0  0  0  0  0  0  0  0  0
    0.7076    0.0922    1.6926 O   0  0  0  0  0  0  0  0  0  0  0  0
    2.0356   -1.8368    2.4385 C   0  0  1  0  0  0  0  0  0  0  0  0
    2.4187   -1.8798    1.0668 O   0  0  0  0  0  0  0  0  0  0  0  0
    3.2657   -2.3303    3.2921 C   0  0  1  0  0  0  0  0  0  0  0  0
    4.5915   -1.8734    2.5869 C   0  0  0  0  0  0  0  0  0  0  0  0
    3.1718   -1.6190    4.6810 C   0  0  2  0  0  0  0  0  0  0  0  0
    1.9769   -2.1657    5.5093 C   0  0  0  0  0  0  0  0  0  0  0  0
    1.6263   -3.6104    5.2699 C   0  0  0  0  0  0  0  0  0  0  0  0
    2.2154   -4.4666    4.4069 C   0  0  0  0  0  0  0  0  0  0  0  0
    1.7673   -5.9629    4.3278 C   0  0  1  0  0  0  0  0  0  0  0  0
    1.8216   -6.5065    5.7815 C   0  0  0  0  0  0  0  0  0  0  0  0
    0.3070   -6.0030    3.8055 C   0  0  0  0  0  0  0  0  0  0  0  0
   -0.2774   -7.4094    3.5601 C   0  0  0  0  0  0  0  0  0  0  0  0
    0.5807   -8.2442    2.6090 C   0  0  1  0  0  0  0  0  0  0  0  0
    0.4043   -7.7258    1.3031 O   0  0  0  0  0  0  0  0  0  0  0  0
    2.0714   -8.3273    3.0554 C   0  0  0  0  0  0  0  0  0  0  0  0
    2.1756   -9.2907    4.2676 C   0  0  0  0  0  0  0  0  0  0  0  0
    2.9192   -9.0498    1.9633 C   0  0  0  0  0  0  0  0  0  0  0  0
    2.6549   -6.8834    3.3941 C   0  0  1  0  0  0  0  0  0  0  0  0
    3.1668   -6.1685    2.1171 C   0  0  0  0  0  0  0  0  0  0  0  0
    3.1027   -4.6409    2.1073 C   0  0  0  0  0  0  0  0  0  0  0  0
    3.3233   -3.9304    3.4669 C   0  0  1  0  0  0  0  0  0  0  0  0
    4.6985   -4.3628    4.0544 C   0  0  0  0  0  0  0  0  0  0  0  0
    1.7578    1.9191    4.0157 C   0  0  0  0  0  0  0  0  0  0  0  0
    0.3030    2.2193    3.5678 C   0  0  0  0  0  0  0  0  0  0  0  0
    2.6107    3.1433    3.6175 C   0  0  0  0  0  0  0  0  0  0  0  0
    1.2764    4.5798   10.1399 H   0  0  0  0  0  0  0  0  0  0  0  0
    1.8726    4.7262    8.4936 H   0  0  0  0  0  0  0  0  0  0  0  0
    2.6736    3.6406    9.6265 H   0  0  0  0  0  0  0  0  0  0  0  0
    0.6161    2.1987    9.7209 H   0  0  0  0  0  0  0  0  0  0  0  0
   -0.2155    3.2620    8.6204 H   0  0  0  0  0  0  0  0  0  0  0  0
    2.8066    0.2948    6.8419 H   0  0  0  0  0  0  0  0  0  0  0  0
    5.1794    0.4679    3.6717 H   0  0  0  0  0  0  0  0  0  0  0  0
    5.3367   -0.1219    5.3235 H   0  0  0  0  0  0  0  0  0  0  0  0
    4.7746    1.4932    5.0004 H   0  0  0  0  0  0  0  0  0  0  0  0
    3.1203    0.8839    2.6299 H   0  0  0  0  0  0  0  0  0  0  0  0
    0.6675   -0.6089    3.5374 H   0  0  0  0  0  0  0  0  0  0  0  0
    1.0225   -0.1754    0.8348 H   0  0  0  0  0  0  0  0  0  0  0  0
    1.2110   -2.5383    2.5805 H   0  0  0  0  0  0  0  0  0  0  0  0
    1.7023   -1.6430    0.4826 H   0  0  0  0  0  0  0  0  0  0  0  0
    5.4449   -1.8628    3.2652 H   0  0  0  0  0  0  0  0  0  0  0  0
    4.5009   -0.8825    2.1509 H   0  0  0  0  0  0  0  0  0  0  0  0
    4.8744   -2.5096    1.7493 H   0  0  0  0  0  0  0  0  0  0  0  0
    4.0444   -1.9259    5.2593 H   0  0  0  0  0  0  0  0  0  0  0  0
    2.2146   -2.0622    6.5694 H   0  0  0  0  0  0  0  0  0  0  0  0
    1.0721   -1.5859    5.3530 H   0  0  0  0  0  0  0  0  0  0  0  0
    0.8106   -3.9500    5.8984 H   0  0  0  0  0  0  0  0  0  0  0  0
    1.3488   -7.4731    5.9059 H   0  0  0  0  0  0  0  0  0  0  0  0
    1.3067   -5.8800    6.5072 H   0  0  0  0  0  0  0  0  0  0  0  0
    2.8527   -6.5933    6.1265 H   0  0  0  0  0  0  0  0  0  0  0  0
   -0.3498   -5.4819    4.5023 H   0  0  0  0  0  0  0  0  0  0  0  0
    0.2549   -5.4513    2.8708 H   0  0  0  0  0  0  0  0  0  0  0  0
   -0.4006   -7.9267    4.5054 H   0  0  0  0  0  0  0  0  0  0  0  0
   -1.2877   -7.3272    3.1517 H   0  0  0  0  0  0  0  0  0  0  0  0
    0.1765   -9.2602    2.5838 H   0  0  0  0  0  0  0  0  0  0  0  0
    0.3225   -8.4624    0.7123 H   0  0  0  0  0  0  0  0  0  0  0  0
    3.0331   -9.0687    4.9039 H   0  0  0  0  0  0  0  0  0  0  0  0
    2.2748  -10.3378    3.9651 H   0  0  0  0  0  0  0  0  0  0  0  0
    1.2880   -9.2886    4.8912 H   0  0  0  0  0  0  0  0  0  0  0  0
    3.9726   -9.1086    2.2497 H   0  0  0  0  0  0  0  0  0  0  0  0
    2.8794   -8.5792    0.9872 H   0  0  0  0  0  0  0  0  0  0  0  0
    2.5757  -10.0754    1.7928 H   0  0  0  0  0  0  0  0  0  0  0  0
    3.5676   -7.0955    3.9585 H   0  0  0  0  0  0  0  0  0  0  0  0
    4.1983   -6.4626    1.9615 H   0  0  0  0  0  0  0  0  0  0  0  0
    2.6336   -6.4951    1.2201 H   0  0  0  0  0  0  0  0  0  0  0  0
    3.7917   -4.2833    1.3430 H   0  0  0  0  0  0  0  0  0  0  0  0
    2.1136   -4.3970    1.7391 H   0  0  0  0  0  0  0  0  0  0  0  0
    5.5112   -4.2444    3.3361 H   0  0  0  0  0  0  0  0  0  0  0  0
    4.7251   -5.4017    4.3606 H   0  0  0  0  0  0  0  0  0  0  0  0
    4.9686   -3.8070    4.9502 H   0  0  0  0  0  0  0  0  0  0  0  0
    0.2463    2.3755    2.4923 H   0  0  0  0  0  0  0  0  0  0  0  0
   -0.0924    3.1446    3.9785 H   0  0  0  0  0  0  0  0  0  0  0  0
   -0.3848    1.4257    3.8475 H   0  0  0  0  0  0  0  0  0  0  0  0
    2.6419    3.2546    2.5301 H   0  0  0  0  0  0  0  0  0  0  0  0
    3.6436    3.0668    3.9598 H   0  0  0  0  0  0  0  0  0  0  0  0
    2.2080    4.0757    4.0201 H   0  0  0  0  0  0  0  0  0  0  0  0
  1  2  1  0
  1 38  1  0
  1 39  1  0
  1 40  1  0
  2  3  1  0
  2 41  1  0
  2 42  1  0
  3  4  1  0
  4  5  2  0
  4  6  1  0
  6 35  1  0
  6  7  2  0
  7  8  1  0
  7 43  1  0
  8 17  1  0
  8  9  1  6
  8 10  1  0
  9 44  1  0
  9 45  1  0
  9 46  1  0
 10 11  1  0
 10 35  1  0
 10 47  1  6
 11 12  1  0
 11 13  1  0
 11 48  1  1
 12 49  1  0
 13 14  1  0
 13 15  1  0
 13 50  1  6
 14 51  1  0
 15 33  1  0
 15 16  1  6
 15 17  1  0
 16 52  1  0
 16 53  1  0
 16 54  1  0
 17 18  1  0
 17 55  1  1
 18 19  1  0
 18 56  1  0
 18 57  1  0
 19 20  2  0
 19 58  1  0
 20 33  1  0
 20 21  1  0
 21 30  1  0
 21 22  1  1
 21 23  1  0
 22 59  1  0
 22 60  1  0
 22 61  1  0
 23 24  1  0
 23 62  1  0
 23 63  1  0
 24 25  1  0
 24 64  1  0
 24 65  1  0
 25 26  1  0
 25 27  1  0
 25 66  1  6
 26 67  1  0
 27 28  1  0
 27 29  1  0
 27 30  1  0
 28 68  1  0
 28 69  1  0
 28 70  1  0
 29 71  1  0
 29 72  1  0
 29 73  1  0
 30 31  1  0
 30 74  1  1
 31 32  1  0
 31 75  1  0
 31 76  1  0
 32 33  1  0
 32 77  1  0
 32 78  1  0
 33 34  1  1
 34 79  1  0
 34 80  1  0
 34 81  1  0
 35 36  1  0
 35 37  1  0
 36 82  1  0
 36 83  1  0
 36 84  1  0
 37 85  1  0
 37 86  1  0
 37 87  1  0
M  END
>  <i_m_ct_stereo_status>  (135) 
1

>  <s_m_source_file>  (135) 
/var/tmp/pbs.5076255.sched01/tmpx9mnojvb/44r91_cmns.sdf

>  <i_m_source_file_index>  (135) 
24

>  <i_lp_mmshare_version>  (135) 
48012

>  <i_f3d_flags>  (135) 
0

>  <s_epik_input>  (135) 
W0NIM11bQ0gyXU9DKD1PKUMoPVtDSF0xKUMoW0NIM10pKFtDSDNdKVtDQEBIXShbQ0BAXTEyW0NIM10pW0NAQEhdKFtPSF0pW0NAQEhdKFtPSF0pW0NAQF0zKFtDSDNdKVtDQEBIXTJbQ0gyXVtDSF09QzRbQ0BdNShbQ0gzXSlbQ0BASF0oQyhbQ0gzXSkoW0NIM10pW0NASF0oW09IXSlbQ0gyXVtDSDJdNSlbQ0gyXVtDSDJdW0NAQF0zNFtDSDNd

>  <s_epik_cmdline>  (135) 
J2VwaWtfcHl0aG9uJywgJy1waHQnLCAnMi4wJywgJy1waCcsICc3LjAnLCAnLXRuJywgJzgnLCAnLW1hJywgJzIwMCcsICctaW1hZScsICc8aW5maWxlLm1hZT4nLCAnLW9tYWUnLCAnPG91dGZpbGUubWFlPic=

>  <r_lp_tautomer_probability>  (135) 
1

>  <r_epik_Ionization_Penalty>  (135) 
3.05349e-06

>  <r_epik_Ionization_Penalty_Charging>  (135) 
0

>  <r_epik_Ionization_Penalty_Neutral>  (135) 
3.05349e-06

>  <r_epik_State_Penalty>  (135) 
-0

>  <r_epik_Charging_Adjusted_Penalty>  (135) 
0

>  <i_epik_Tot_Q>  (135) 
0

>  <i_epik_Tot_abs_Q>  (135) 
0

>  <s_epik_Chemistry_Notes>  (135) 
This compound has an ester and may undergo hydrolysis at high or low pH.

>  <s_lp_Force_Field>  (135) 
OPLS3e

>  <r_lp_Energy>  (135) 
93.8777

>  <b_lp_Chiralities_Consistent>  (135) 
1

>  <s_lp_Variant>  (135) 
35:0-1

>  <s_i_glide_gridfile>  (135) 
pfpi4k_grid

>  <i_i_glide_lignum>  (135) 
24

>  <i_i_glide_rotatable_bonds>  (135) 
6

>  <r_i_docking_score>  (135) 
-3.09876

>  <r_i_glide_ligand_efficiency>  (135) 
-0.0837502

>  <r_i_glide_ligand_efficiency_sa>  (135) 
-0.279074

>  <r_i_glide_ligand_efficiency_ln>  (135) 
-0.672048

>  <r_i_glide_gscore>  (135) 
-3.09876

>  <r_i_glide_lipo>  (135) 
-0.109288

>  <r_i_glide_hbond>  (135) 
-0.288483

>  <r_i_glide_metal>  (135) 
-0

>  <r_i_glide_rewards>  (135) 
0

>  <r_i_glide_evdw>  (135) 
-25.0006

>  <r_i_glide_ecoul>  (135) 
-10.7054

>  <r_i_glide_erotb>  (135) 
0.154854

>  <r_i_glide_esite>  (135) 
0

>  <r_i_glide_emodel>  (135) 
-41.2488

>  <r_i_glide_energy>  (135) 
-35.706

>  <r_i_glide_einternal>  (135) 
3.15665

>  <r_i_glide_intrahb_reward>  (135) 
-0

>  <i_i_glide_confnum>  (135) 
5

>  <i_i_glide_posenum>  (135) 
23

>  <r_i_glide_eff_state_penalty>  (135) 
0

>  <ligand_id>  (135) 
35

>  <original_smiles>  (135) 
CCOC(=O)C1=CC2(C)C(C(O)C(O)C3(C)C2CC=C2C4(C)CCC(O)C(C)(C)C4CCC23C)C1(C)C

>  <smiles>  (135) 
[H]OC1([H])C([H])(O[H])C2(C([H])([H])[H])C([H])(C([H])([H])C([H])=C3C4(C([H])([H])[H])C([H])([H])C([H])([H])C([H])(O[H])C(C([H])([H])[H])(C([H])([H])[H])C4([H])C([H])([H])C([H])([H])C32C([H])([H])[H])C2(C([H])([H])[H])C([H])=C(C(=O)OC([H])([H])C([H])([H])[H])C(C([H])([H])[H])(C([H])([H])[H])C12[H]

$$$$
35:0:1
     RDKit          3D

 87 91  0  0  1  0  0  0  0  0999 V2000
   -1.0178    2.3490    9.0399 C   0  0  0  0  0  0  0  0  0  0  0  0
    0.4121    2.8966    8.9396 C   0  0  0  0  0  0  0  0  0  0  0  0
    1.1148    2.2495    7.8843 O   0  0  0  0  0  0  0  0  0  0  0  0
    1.0409    2.7414    6.6243 C   0  0  0  0  0  0  0  0  0  0  0  0
    0.4250    3.7652    6.3429 O   0  0  0  0  0  0  0  0  0  0  0  0
    1.7943    1.9194    5.6289 C   0  0  0  0  0  0  0  0  0  0  0  0
    2.5557    0.8658    5.9473 C   0  0  0  0  0  0  0  0  0  0  0  0
    3.2768    0.2598    4.7609 C   0  0  2  0  0  0  0  0  0  0  0  0
    4.7285    0.8130    4.8804 C   0  0  0  0  0  0  0  0  0  0  0  0
    2.5124    0.9042    3.5437 C   0  0  1  0  0  0  0  0  0  0  0  0
    1.6088   -0.1455    2.8180 C   0  0  1  0  0  0  0  0  0  0  0  0
    1.0148    0.4444    1.6754 O   0  0  0  0  0  0  0  0  0  0  0  0
    2.2757   -1.5151    2.4367 C   0  0  1  0  0  0  0  0  0  0  0  0
    2.6740   -1.5227    1.0665 O   0  0  0  0  0  0  0  0  0  0  0  0
    3.4762   -1.9866    3.3478 C   0  0  1  0  0  0  0  0  0  0  0  0
    4.8176   -1.4616    2.7394 C   0  0  0  0  0  0  0  0  0  0  0  0
    3.2747   -1.3250    4.7605 C   0  0  2  0  0  0  0  0  0  0  0  0
    2.0592   -1.9299    5.5072 C   0  0  0  0  0  0  0  0  0  0  0  0
    1.7724   -3.3857    5.2078 C   0  0  0  0  0  0  0  0  0  0  0  0
    2.4452   -4.1862    4.3519 C   0  0  0  0  0  0  0  0  0  0  0  0
    2.0531   -5.7006    4.2062 C   0  0  1  0  0  0  0  0  0  0  0  0
    2.0467   -6.2867    5.6496 C   0  0  0  0  0  0  0  0  0  0  0  0
    0.6258   -5.7756    3.6006 C   0  0  0  0  0  0  0  0  0  0  0  0
    0.1096   -7.1933    3.2855 C   0  0  0  0  0  0  0  0  0  0  0  0
    1.0569   -7.9791    2.3655 C   0  0  1  0  0  0  0  0  0  0  0  0
    0.9097   -7.4331    1.0679 O   0  0  0  0  0  0  0  0  0  0  0  0
    2.5245   -8.0182    2.8873 C   0  0  0  0  0  0  0  0  0  0  0  0
    2.5885   -9.0125    4.0842 C   0  0  0  0  0  0  0  0  0  0  0  0
    3.4552   -8.6739    1.8238 C   0  0  0  0  0  0  0  0  0  0  0  0
    3.0260   -6.5635    3.2953 C   0  0  1  0  0  0  0  0  0  0  0  0
    3.5896   -5.7876    2.0747 C   0  0  0  0  0  0  0  0  0  0  0  0
    3.4631   -4.2670    2.1003 C   0  0  0  0  0  0  0  0  0  0  0  0
    3.5787   -3.5948    3.4907 C   0  0  1  0  0  0  0  0  0  0  0  0
    4.9394   -3.9925    4.1487 C   0  0  0  0  0  0  0  0  0  0  0  0
    1.7739    2.1869    4.1289 C   0  0  0  0  0  0  0  0  0  0  0  0
    0.3345    2.4439    3.6033 C   0  0  0  0  0  0  0  0  0  0  0  0
    2.6085    3.4490    3.8006 C   0  0  0  0  0  0  0  0  0  0  0  0
   -1.5591    2.8225    9.8567 H   0  0  0  0  0  0  0  0  0  0  0  0
   -1.0036    1.2753    9.2259 H   0  0  0  0  0  0  0  0  0  0  0  0
   -1.5802    2.5280    8.1229 H   0  0  0  0  0  0  0  0  0  0  0  0
    0.3954    3.9805    8.8030 H   0  0  0  0  0  0  0  0  0  0  0  0
    0.9468    2.7174    9.8729 H   0  0  0  0  0  0  0  0  0  0  0  0
    2.7182    0.5060    6.9525 H   0  0  0  0  0  0  0  0  0  0  0  0
    5.2546    0.8611    3.9293 H   0  0  0  0  0  0  0  0  0  0  0  0
    5.3401    0.2287    5.5693 H   0  0  0  0  0  0  0  0  0  0  0  0
    4.7422    1.8318    5.2651 H   0  0  0  0  0  0  0  0  0  0  0  0
    3.2350    1.2244    2.7961 H   0  0  0  0  0  0  0  0  0  0  0  0
    0.7792   -0.3776    3.4805 H   0  0  0  0  0  0  0  0  0  0  0  0
    0.9610   -0.1638    0.9543 H   0  0  0  0  0  0  0  0  0  0  0  0
    1.4745   -2.2520    2.5232 H   0  0  0  0  0  0  0  0  0  0  0  0
    1.9404   -1.3771    0.4840 H   0  0  0  0  0  0  0  0  0  0  0  0
    5.6286   -1.4392    3.4681 H   0  0  0  0  0  0  0  0  0  0  0  0
    4.7145   -0.4585    2.3281 H   0  0  0  0  0  0  0  0  0  0  0  0
    5.1734   -2.0626    1.9040 H   0  0  0  0  0  0  0  0  0  0  0  0
    4.1235   -1.6169    5.3789 H   0  0  0  0  0  0  0  0  0  0  0  0
    2.2296   -1.8573    6.5822 H   0  0  0  0  0  0  0  0  0  0  0  0
    1.1394   -1.3817    5.3151 H   0  0  0  0  0  0  0  0  0  0  0  0
    0.9415   -3.7759    5.7719 H   0  0  0  0  0  0  0  0  0  0  0  0
    1.6059   -7.2713    5.7158 H   0  0  0  0  0  0  0  0  0  0  0  0
    1.4700   -5.7020    6.3591 H   0  0  0  0  0  0  0  0  0  0  0  0
    3.0616   -6.3498    6.0471 H   0  0  0  0  0  0  0  0  0  0  0  0
   -0.0875   -5.2971    4.2712 H   0  0  0  0  0  0  0  0  0  0  0  0
    0.6181   -5.1913    2.6784 H   0  0  0  0  0  0  0  0  0  0  0  0
   -0.0490   -7.7444    4.2107 H   0  0  0  0  0  0  0  0  0  0  0  0
   -0.8760   -7.1354    2.8219 H   0  0  0  0  0  0  0  0  0  0  0  0
    0.6900   -9.0017    2.2837 H   0  0  0  0  0  0  0  0  0  0  0  0
    0.6587   -8.1450    0.4897 H   0  0  0  0  0  0  0  0  0  0  0  0
    3.4007   -8.7760    4.7722 H   0  0  0  0  0  0  0  0  0  0  0  0
    2.7439  -10.0406    3.7550 H   0  0  0  0  0  0  0  0  0  0  0  0
    1.6620   -9.0571    4.6537 H   0  0  0  0  0  0  0  0  0  0  0  0
    4.4901   -8.7009    2.1698 H   0  0  0  0  0  0  0  0  0  0  0  0
    3.4453   -8.1597    0.8644 H   0  0  0  0  0  0  0  0  0  0  0  0
    3.1546   -9.7005    1.6027 H   0  0  0  0  0  0  0  0  0  0  0  0
    3.9059   -6.7552    3.9043 H   0  0  0  0  0  0  0  0  0  0  0  0
    4.6443   -6.0503    1.9608 H   0  0  0  0  0  0  0  0  0  0  0  0
    3.1123   -6.0972    1.1495 H   0  0  0  0  0  0  0  0  0  0  0  0
    4.1775   -3.8599    1.3883 H   0  0  0  0  0  0  0  0  0  0  0  0
    2.4791   -4.0474    1.6828 H   0  0  0  0  0  0  0  0  0  0  0  0
    5.7832   -3.8235    3.4796 H   0  0  0  0  0  0  0  0  0  0  0  0
    4.9853   -5.0406    4.4271 H   0  0  0  0  0  0  0  0  0  0  0  0
    5.1356   -3.4519    5.0719 H   0  0  0  0  0  0  0  0  0  0  0  0
    0.3288    2.6258    2.5289 H   0  0  0  0  0  0  0  0  0  0  0  0
   -0.1157    3.3387    4.0243 H   0  0  0  0  0  0  0  0  0  0  0  0
   -0.3380    1.6155    3.8187 H   0  0  0  0  0  0  0  0  0  0  0  0
    2.6941    3.5902    2.7212 H   0  0  0  0  0  0  0  0  0  0  0  0
    3.6210    3.3962    4.1990 H   0  0  0  0  0  0  0  0  0  0  0  0
    2.1483    4.3508    4.2079 H   0  0  0  0  0  0  0  0  0  0  0  0
  1  2  1  0
  1 38  1  0
  1 39  1  0
  1 40  1  0
  2  3  1  0
  2 41  1  0
  2 42  1  0
  3  4  1  0
  4  5  2  0
  4  6  1  0
  6 35  1  0
  6  7  2  0
  7  8  1  0
  7 43  1  0
  8 17  1  0
  8  9  1  1
  8 10  1  0
  9 44  1  0
  9 45  1  0
  9 46  1  0
 10 11  1  0
 10 35  1  0
 10 47  1  6
 11 12  1  0
 11 13  1  0
 11 48  1  1
 12 49  1  0
 13 14  1  0
 13 15  1  0
 13 50  1  6
 14 51  1  0
 15 33  1  0
 15 16  1  6
 15 17  1  0
 16 52  1  0
 16 53  1  0
 16 54  1  0
 17 18  1  0
 17 55  1  1
 18 19  1  0
 18 56  1  0
 18 57  1  0
 19 20  2  0
 19 58  1  0
 20 33  1  0
 20 21  1  0
 21 30  1  0
 21 22  1  1
 21 23  1  0
 22 59  1  0
 22 60  1  0
 22 61  1  0
 23 24  1  0
 23 62  1  0
 23 63  1  0
 24 25  1  0
 24 64  1  0
 24 65  1  0
 25 26  1  0
 25 27  1  0
 25 66  1  6
 26 67  1  0
 27 28  1  0
 27 29  1  0
 27 30  1  0
 28 68  1  0
 28 69  1  0
 28 70  1  0
 29 71  1  0
 29 72  1  0
 29 73  1  0
 30 31  1  0
 30 74  1  1
 31 32  1  0
 31 75  1  0
 31 76  1  0
 32 33  1  0
 32 77  1  0
 32 78  1  0
 33 34  1  1
 34 79  1  0
 34 80  1  0
 34 81  1  0
 35 36  1  0
 35 37  1  0
 36 82  1  0
 36 83  1  0
 36 84  1  0
 37 85  1  0
 37 86  1  0
 37 87  1  0
M  END
>  <i_m_ct_stereo_status>  (136) 
1

>  <s_m_source_file>  (136) 
/var/tmp/pbs.5076255.sched01/tmpx9mnojvb/44r91_cmns.sdf

>  <i_m_source_file_index>  (136) 
24

>  <i_lp_mmshare_version>  (136) 
48012

>  <i_f3d_flags>  (136) 
0

>  <s_epik_input>  (136) 
W0NIM11bQ0gyXU9DKD1PKUMoPVtDSF0xKUMoW0NIM10pKFtDSDNdKVtDQEBIXShbQ0BAXTEyW0NIM10pW0NAQEhdKFtPSF0pW0NAQEhdKFtPSF0pW0NAQF0zKFtDSDNdKVtDQEBIXTJbQ0gyXVtDSF09QzRbQ0BdNShbQ0gzXSlbQ0BASF0oQyhbQ0gzXSkoW0NIM10pW0NASF0oW09IXSlbQ0gyXVtDSDJdNSlbQ0gyXVtDSDJdW0NAQF0zNFtDSDNd

>  <s_epik_cmdline>  (136) 
J2VwaWtfcHl0aG9uJywgJy1waHQnLCAnMi4wJywgJy1waCcsICc3LjAnLCAnLXRuJywgJzgnLCAnLW1hJywgJzIwMCcsICctaW1hZScsICc8aW5maWxlLm1hZT4nLCAnLW9tYWUnLCAnPG91dGZpbGUubWFlPic=

>  <r_lp_tautomer_probability>  (136) 
1

>  <r_epik_Ionization_Penalty>  (136) 
3.05349e-06

>  <r_epik_Ionization_Penalty_Charging>  (136) 
0

>  <r_epik_Ionization_Penalty_Neutral>  (136) 
3.05349e-06

>  <r_epik_State_Penalty>  (136) 
-0

>  <r_epik_Charging_Adjusted_Penalty>  (136) 
0

>  <i_epik_Tot_Q>  (136) 
0

>  <i_epik_Tot_abs_Q>  (136) 
0

>  <s_epik_Chemistry_Notes>  (136) 
This compound has an ester and may undergo hydrolysis at high or low pH.

>  <s_lp_Force_Field>  (136) 
OPLS3e

>  <r_lp_Energy>  (136) 
93.8777

>  <b_lp_Chiralities_Consistent>  (136) 
1

>  <s_lp_Variant>  (136) 
35:0-1

>  <s_i_glide_gridfile>  (136) 
pfpi4k_grid

>  <i_i_glide_lignum>  (136) 
24

>  <i_i_glide_rotatable_bonds>  (136) 
6

>  <r_i_docking_score>  (136) 
-3.04924

>  <r_i_glide_ligand_efficiency>  (136) 
-0.0824118

>  <r_i_glide_ligand_efficiency_sa>  (136) 
-0.274615

>  <r_i_glide_ligand_efficiency_ln>  (136) 
-0.661308

>  <r_i_glide_gscore>  (136) 
-3.04924

>  <r_i_glide_lipo>  (136) 
-0.135099

>  <r_i_glide_hbond>  (136) 
-0.288

>  <r_i_glide_metal>  (136) 
-0

>  <r_i_glide_rewards>  (136) 
0

>  <r_i_glide_evdw>  (136) 
-28.5421

>  <r_i_glide_ecoul>  (136) 
-9.02592

>  <r_i_glide_erotb>  (136) 
0.154854

>  <r_i_glide_esite>  (136) 
0

>  <r_i_glide_emodel>  (136) 
-43.2044

>  <r_i_glide_energy>  (136) 
-37.568

>  <r_i_glide_einternal>  (136) 
3.19508

>  <r_i_glide_intrahb_reward>  (136) 
-0

>  <i_i_glide_confnum>  (136) 
5

>  <i_i_glide_posenum>  (136) 
5

>  <r_i_glide_eff_state_penalty>  (136) 
0

>  <ligand_id>  (136) 
35

>  <original_smiles>  (136) 
CCOC(=O)C1=CC2(C)C(C(O)C(O)C3(C)C2CC=C2C4(C)CCC(O)C(C)(C)C4CCC23C)C1(C)C

>  <smiles>  (136) 
[H]OC1([H])C([H])(O[H])C2(C([H])([H])[H])C([H])(C([H])([H])C([H])=C3C4(C([H])([H])[H])C([H])([H])C([H])([H])C([H])(O[H])C(C([H])([H])[H])(C([H])([H])[H])C4([H])C([H])([H])C([H])([H])C32C([H])([H])[H])C2(C([H])([H])[H])C([H])=C(C(=O)OC([H])([H])C([H])([H])[H])C(C([H])([H])[H])(C([H])([H])[H])C12[H]

$$$$
35:0:2
     RDKit          3D

 87 91  0  0  1  0  0  0  0  0999 V2000
    5.1240   -0.1399    4.5519 C   0  0  0  0  0  0  0  0  0  0  0  0
    5.2292   -1.0052    3.2904 C   0  0  0  0  0  0  0  0  0  0  0  0
    5.9097   -0.3063    2.2700 O   0  0  0  0  0  0  0  0  0  0  0  0
    6.0032   -0.7271    0.9958 C   0  0  0  0  0  0  0  0  0  0  0  0
    6.5154   -0.1209    0.0919 O   0  0  0  0  0  0  0  0  0  0  0  0
    5.5628   -2.0939    0.7566 C   0  0  0  0  0  0  0  0  0  0  0  0
    5.9536   -3.1483    1.4215 C   0  0  0  0  0  0  0  0  0  0  0  0
    5.3786   -4.4146    0.9006 C   0  0  2  0  0  0  0  0  0  0  0  0
    6.5586   -5.0332    0.1381 C   0  0  0  0  0  0  0  0  0  0  0  0
    4.2748   -3.8861   -0.0977 C   0  0  1  0  0  0  0  0  0  0  0  0
    2.8632   -4.0774    0.4855 C   0  0  1  0  0  0  0  0  0  0  0  0
    2.0110   -3.7713   -0.6082 O   0  0  0  0  0  0  0  0  0  0  0  0
    2.5421   -5.4889    1.0931 C   0  0  1  0  0  0  0  0  0  0  0  0
    1.7218   -6.1945    0.1703 O   0  0  0  0  0  0  0  0  0  0  0  0
    3.7626   -6.3632    1.5874 C   0  0  1  0  0  0  0  0  0  0  0  0
    4.3606   -7.2001    0.4249 C   0  0  0  0  0  0  0  0  0  0  0  0
    4.8513   -5.3395    2.0433 C   0  0  2  0  0  0  0  0  0  0  0  0
    4.4231   -4.5607    3.3195 C   0  0  0  0  0  0  0  0  0  0  0  0
    3.5620   -5.3345    4.2666 C   0  0  0  0  0  0  0  0  0  0  0  0
    3.1194   -6.6003    4.1012 C   0  0  0  0  0  0  0  0  0  0  0  0
    2.2848   -7.2939    5.2035 C   0  0  1  0  0  0  0  0  0  0  0  0
    3.0785   -7.1505    6.5346 C   0  0  0  0  0  0  0  0  0  0  0  0
    0.9485   -6.5194    5.3190 C   0  0  0  0  0  0  0  0  0  0  0  0
   -0.0424   -7.1191    6.2921 C   0  0  0  0  0  0  0  0  0  0  0  0
   -0.3523   -8.5741    5.9546 C   0  0  1  0  0  0  0  0  0  0  0  0
   -1.2432   -8.6418    4.8729 O   0  0  0  0  0  0  0  0  0  0  0  0
    0.8954   -9.4623    5.8729 C   0  0  0  0  0  0  0  0  0  0  0  0
    1.3727   -9.6048    7.3565 C   0  0  0  0  0  0  0  0  0  0  0  0
    0.5831  -10.9105    5.3740 C   0  0  0  0  0  0  0  0  0  0  0  0
    1.9752   -8.8178    4.9421 C   0  0  1  0  0  0  0  0  0  0  0  0
    1.6747   -9.1684    3.4610 C   0  0  0  0  0  0  0  0  0  0  0  0
    2.1111   -8.1468    2.4295 C   0  0  0  0  0  0  0  0  0  0  0  0
    3.3961   -7.3548    2.7793 C   0  0  1  0  0  0  0  0  0  0  0  0
    4.5660   -8.3434    3.0489 C   0  0  0  0  0  0  0  0  0  0  0  0
    4.6268   -2.3946   -0.4276 C   0  0  0  0  0  0  0  0  0  0  0  0
    3.5165   -1.3296   -0.4485 C   0  0  0  0  0  0  0  0  0  0  0  0
    5.3615   -2.2898   -1.7893 C   0  0  0  0  0  0  0  0  0  0  0  0
    4.5677   -0.7124    5.3043 H   0  0  0  0  0  0  0  0  0  0  0  0
    4.6078    0.8006    4.3626 H   0  0  0  0  0  0  0  0  0  0  0  0
    6.1094    0.0675    4.9673 H   0  0  0  0  0  0  0  0  0  0  0  0
    5.7697   -1.9043    3.6012 H   0  0  0  0  0  0  0  0  0  0  0  0
    4.2378   -1.2546    2.9217 H   0  0  0  0  0  0  0  0  0  0  0  0
    6.7148   -3.1608    2.1910 H   0  0  0  0  0  0  0  0  0  0  0  0
    6.1744   -5.6921   -0.6335 H   0  0  0  0  0  0  0  0  0  0  0  0
    7.2327   -5.5883    0.8029 H   0  0  0  0  0  0  0  0  0  0  0  0
    7.1613   -4.2715   -0.3649 H   0  0  0  0  0  0  0  0  0  0  0  0
    4.2947   -4.4546   -1.0364 H   0  0  0  0  0  0  0  0  0  0  0  0
    2.7041   -3.3558    1.2907 H   0  0  0  0  0  0  0  0  0  0  0  0
    2.0541   -2.8258   -0.7366 H   0  0  0  0  0  0  0  0  0  0  0  0
    1.8712   -5.3097    1.9335 H   0  0  0  0  0  0  0  0  0  0  0  0
    2.1951   -6.2058   -0.6449 H   0  0  0  0  0  0  0  0  0  0  0  0
    5.4037   -7.4607    0.6179 H   0  0  0  0  0  0  0  0  0  0  0  0
    4.3158   -6.6625   -0.5183 H   0  0  0  0  0  0  0  0  0  0  0  0
    3.8246   -8.1324    0.2601 H   0  0  0  0  0  0  0  0  0  0  0  0
    5.7178   -5.9012    2.3770 H   0  0  0  0  0  0  0  0  0  0  0  0
    5.3161   -4.2729    3.8827 H   0  0  0  0  0  0  0  0  0  0  0  0
    3.8884   -3.6379    3.0965 H   0  0  0  0  0  0  0  0  0  0  0  0
    3.2996   -4.7913    5.1706 H   0  0  0  0  0  0  0  0  0  0  0  0
    2.5172   -7.3937    7.4201 H   0  0  0  0  0  0  0  0  0  0  0  0
    3.4028   -6.1364    6.7455 H   0  0  0  0  0  0  0  0  0  0  0  0
    3.9608   -7.7895    6.5193 H   0  0  0  0  0  0  0  0  0  0  0  0
    1.1192   -5.4979    5.6385 H   0  0  0  0  0  0  0  0  0  0  0  0
    0.4513   -6.4713    4.3512 H   0  0  0  0  0  0  0  0  0  0  0  0
    0.3275   -7.0536    7.3214 H   0  0  0  0  0  0  0  0  0  0  0  0
   -0.9430   -6.5005    6.2362 H   0  0  0  0  0  0  0  0  0  0  0  0
   -0.9206   -9.0060    6.7690 H   0  0  0  0  0  0  0  0  0  0  0  0
   -1.5949   -9.4943    4.8620 H   0  0  0  0  0  0  0  0  0  0  0  0
    2.4076   -9.9676    7.4162 H   0  0  0  0  0  0  0  0  0  0  0  0
    0.7031  -10.2644    7.9026 H   0  0  0  0  0  0  0  0  0  0  0  0
    1.2346   -8.7486    8.0038 H   0  0  0  0  0  0  0  0  0  0  0  0
    1.4575  -11.5668    5.2608 H   0  0  0  0  0  0  0  0  0  0  0  0
   -0.0072  -10.9307    4.4534 H   0  0  0  0  0  0  0  0  0  0  0  0
   -0.0848  -11.3853    6.0939 H   0  0  0  0  0  0  0  0  0  0  0  0
    2.8758   -9.3762    5.1939 H   0  0  0  0  0  0  0  0  0  0  0  0
    2.1554  -10.1209    3.2521 H   0  0  0  0  0  0  0  0  0  0  0  0
    0.6114   -9.3351    3.2746 H   0  0  0  0  0  0  0  0  0  0  0  0
    2.1931   -8.6594    1.4707 H   0  0  0  0  0  0  0  0  0  0  0  0
    1.2739   -7.4571    2.3347 H   0  0  0  0  0  0  0  0  0  0  0  0
    4.6748   -9.0762    2.2492 H   0  0  0  0  0  0  0  0  0  0  0  0
    4.4391   -8.9171    3.9579 H   0  0  0  0  0  0  0  0  0  0  0  0
    5.5228   -7.8380    3.1765 H   0  0  0  0  0  0  0  0  0  0  0  0
    2.8433   -1.5091   -1.2787 H   0  0  0  0  0  0  0  0  0  0  0  0
    3.9037   -0.3238   -0.6233 H   0  0  0  0  0  0  0  0  0  0  0  0
    2.9532   -1.2736    0.4823 H   0  0  0  0  0  0  0  0  0  0  0  0
    4.7047   -2.6171   -2.6004 H   0  0  0  0  0  0  0  0  0  0  0  0
    6.2717   -2.8894   -1.8301 H   0  0  0  0  0  0  0  0  0  0  0  0
    5.6496   -1.2625   -2.0307 H   0  0  0  0  0  0  0  0  0  0  0  0
  1  2  1  0
  1 38  1  0
  1 39  1  0
  1 40  1  0
  2  3  1  0
  2 41  1  0
  2 42  1  0
  3  4  1  0
  4  5  2  0
  4  6  1  0
  6 35  1  0
  6  7  2  0
  7  8  1  0
  7 43  1  0
  8 17  1  0
  8  9  1  6
  8 10  1  0
  9 44  1  0
  9 45  1  0
  9 46  1  0
 10 11  1  0
 10 35  1  0
 10 47  1  6
 11 12  1  0
 11 13  1  0
 11 48  1  1
 12 49  1  0
 13 14  1  0
 13 15  1  0
 13 50  1  1
 14 51  1  0
 15 33  1  0
 15 16  1  6
 15 17  1  0
 16 52  1  0
 16 53  1  0
 16 54  1  0
 17 18  1  0
 17 55  1  1
 18 19  1  0
 18 56  1  0
 18 57  1  0
 19 20  2  0
 19 58  1  0
 20 33  1  0
 20 21  1  0
 21 30  1  0
 21 22  1  1
 21 23  1  0
 22 59  1  0
 22 60  1  0
 22 61  1  0
 23 24  1  0
 23 62  1  0
 23 63  1  0
 24 25  1  0
 24 64  1  0
 24 65  1  0
 25 26  1  0
 25 27  1  0
 25 66  1  1
 26 67  1  0
 27 28  1  0
 27 29  1  0
 27 30  1  0
 28 68  1  0
 28 69  1  0
 28 70  1  0
 29 71  1  0
 29 72  1  0
 29 73  1  0
 30 31  1  0
 30 74  1  1
 31 32  1  0
 31 75  1  0
 31 76  1  0
 32 33  1  0
 32 77  1  0
 32 78  1  0
 33 34  1  1
 34 79  1  0
 34 80  1  0
 34 81  1  0
 35 36  1  0
 35 37  1  0
 36 82  1  0
 36 83  1  0
 36 84  1  0
 37 85  1  0
 37 86  1  0
 37 87  1  0
M  END
>  <i_m_ct_stereo_status>  (137) 
1

>  <s_m_source_file>  (137) 
/var/tmp/pbs.5076255.sched01/tmpx9mnojvb/44r91_cmns.sdf

>  <i_m_source_file_index>  (137) 
24

>  <i_lp_mmshare_version>  (137) 
48012

>  <i_f3d_flags>  (137) 
0

>  <s_epik_input>  (137) 
W0NIM11bQ0gyXU9DKD1PKUMoPVtDSF0xKUMoW0NIM10pKFtDSDNdKVtDQEBIXShbQ0BAXTEyW0NIM10pW0NAQEhdKFtPSF0pW0NAQEhdKFtPSF0pW0NAQF0zKFtDSDNdKVtDQEBIXTJbQ0gyXVtDSF09QzRbQ0BdNShbQ0gzXSlbQ0BASF0oQyhbQ0gzXSkoW0NIM10pW0NASF0oW09IXSlbQ0gyXVtDSDJdNSlbQ0gyXVtDSDJdW0NAQF0zNFtDSDNd

>  <s_epik_cmdline>  (137) 
J2VwaWtfcHl0aG9uJywgJy1waHQnLCAnMi4wJywgJy1waCcsICc3LjAnLCAnLXRuJywgJzgnLCAnLW1hJywgJzIwMCcsICctaW1hZScsICc8aW5maWxlLm1hZT4nLCAnLW9tYWUnLCAnPG91dGZpbGUubWFlPic=

>  <r_lp_tautomer_probability>  (137) 
1

>  <r_epik_Ionization_Penalty>  (137) 
3.05349e-06

>  <r_epik_Ionization_Penalty_Charging>  (137) 
0

>  <r_epik_Ionization_Penalty_Neutral>  (137) 
3.05349e-06

>  <r_epik_State_Penalty>  (137) 
-0

>  <r_epik_Charging_Adjusted_Penalty>  (137) 
0

>  <i_epik_Tot_Q>  (137) 
0

>  <i_epik_Tot_abs_Q>  (137) 
0

>  <s_epik_Chemistry_Notes>  (137) 
This compound has an ester and may undergo hydrolysis at high or low pH.

>  <s_lp_Force_Field>  (137) 
OPLS3e

>  <r_lp_Energy>  (137) 
93.8777

>  <b_lp_Chiralities_Consistent>  (137) 
1

>  <s_lp_Variant>  (137) 
35:0-1

>  <s_i_glide_gridfile>  (137) 
pfpi4k_grid

>  <i_i_glide_lignum>  (137) 
24

>  <i_i_glide_rotatable_bonds>  (137) 
6

>  <r_i_docking_score>  (137) 
-2.18576

>  <r_i_glide_ligand_efficiency>  (137) 
-0.0590745

>  <r_i_glide_ligand_efficiency_sa>  (137) 
-0.196849

>  <r_i_glide_ligand_efficiency_ln>  (137) 
-0.474039

>  <r_i_glide_gscore>  (137) 
-2.18576

>  <r_i_glide_lipo>  (137) 
-0.71566

>  <r_i_glide_hbond>  (137) 
-0.366186

>  <r_i_glide_metal>  (137) 
-0

>  <r_i_glide_rewards>  (137) 
-0.126736

>  <r_i_glide_evdw>  (137) 
0.381033

>  <r_i_glide_ecoul>  (137) 
-8.62679

>  <r_i_glide_erotb>  (137) 
0.154854

>  <r_i_glide_esite>  (137) 
0

>  <r_i_glide_emodel>  (137) 
-5.72335

>  <r_i_glide_energy>  (137) 
-8.24576

>  <r_i_glide_einternal>  (137) 
7.86346

>  <r_i_glide_intrahb_reward>  (137) 
-0

>  <i_i_glide_confnum>  (137) 
5

>  <i_i_glide_posenum>  (137) 
9

>  <r_i_glide_eff_state_penalty>  (137) 
0

>  <ligand_id>  (137) 
35

>  <original_smiles>  (137) 
CCOC(=O)C1=CC2(C)C(C(O)C(O)C3(C)C2CC=C2C4(C)CCC(O)C(C)(C)C4CCC23C)C1(C)C

>  <smiles>  (137) 
[H]OC1([H])C([H])(O[H])C2(C([H])([H])[H])C([H])(C([H])([H])C([H])=C3C4(C([H])([H])[H])C([H])([H])C([H])([H])C([H])(O[H])C(C([H])([H])[H])(C([H])([H])[H])C4([H])C([H])([H])C([H])([H])C32C([H])([H])[H])C2(C([H])([H])[H])C([H])=C(C(=O)OC([H])([H])C([H])([H])[H])C(C([H])([H])[H])(C([H])([H])[H])C12[H]

$$$$
36:0:0
     RDKit          3D

 71 76  0  0  1  0  0  0  0  0999 V2000
   -3.8114    3.0437    2.1716 C   0  0  0  0  0  0  0  0  0  0  0  0
   -2.5278    2.7406    2.7405 O   0  0  0  0  0  0  0  0  0  0  0  0
   -1.7285    3.7201    3.2127 C   0  0  0  0  0  0  0  0  0  0  0  0
   -2.0710    4.9170    3.2593 O   0  0  0  0  0  0  0  0  0  0  0  0
   -0.3941    3.2450    3.7401 C   0  0  1  0  0  0  0  0  0  0  0  0
    0.2543    2.3194    2.8820 O   0  0  0  0  0  0  0  0  0  0  0  0
    0.2776    1.0023    3.3104 C   0  0  1  0  0  0  0  0  0  0  0  0
    1.1868    0.3031    2.5167 O   0  0  0  0  0  0  0  0  0  0  0  0
    1.3641   -1.0678    2.8512 C   0  0  0  0  0  0  0  0  0  0  0  0
    2.4000   -1.7107    1.9114 C   0  0  2  0  0  0  0  0  0  0  0  0
    2.2121   -3.0904    2.0233 O   0  0  0  0  0  0  0  0  0  0  0  0
    3.0785   -3.7859    1.1518 C   0  0  2  0  0  0  0  0  0  0  0  0
    3.2237   -5.2967    1.3195 C   0  0  0  0  0  0  0  0  0  0  0  0
    4.7298   -5.0871    1.0880 C   0  0  1  0  0  0  0  0  0  0  0  0
    5.2762   -5.2197   -0.3260 C   0  0  0  0  0  0  0  0  0  0  0  0
    4.5015   -3.6966    1.6793 C   0  0  1  0  0  0  0  0  0  0  0  0
    5.1392   -2.6162    1.0325 O   0  0  0  0  0  0  0  0  0  0  0  0
    4.7721   -1.3548    1.5192 C   0  0  0  0  0  0  0  0  0  0  0  0
    5.9331   -0.8725    2.3881 C   0  0  0  0  0  0  0  0  0  0  0  0
    4.5984   -0.4337    0.2918 C   0  0  0  0  0  0  0  0  0  0  0  0
    3.6548   -1.3006    2.3919 O   0  0  0  0  0  0  0  0  0  0  0  0
    0.6348    0.9353    4.6602 O   0  0  0  0  0  0  0  0  0  0  0  0
   -0.2717    1.5821    5.4894 C   0  0  1  0  0  0  0  0  0  0  0  0
   -0.0815    1.2108    6.8322 O   0  0  0  0  0  0  0  0  0  0  0  0
   -0.9046    1.7694    7.7604 C   0  0  0  0  0  0  0  0  0  0  0  0
   -1.0629    1.3170    8.8818 O   0  0  0  0  0  0  0  0  0  0  0  0
   -1.6283    3.0548    7.3300 C   0  0  1  0  0  0  0  0  0  0  0  0
   -2.2171    3.8283    8.5223 C   0  0  0  0  0  0  0  0  0  0  0  0
   -0.6675    3.8889    6.4715 C   0  0  1  0  0  0  0  0  0  0  0  0
    0.6147    4.3851    7.2335 C   0  0  0  0  0  0  0  0  0  0  0  0
    1.8048    4.8902    6.3632 C   0  0  0  0  0  0  0  0  0  0  0  0
    1.9960    4.1334    5.0226 C   0  0  1  0  0  0  0  0  0  0  0  0
    2.7710    2.8088    5.2166 C   0  0  0  0  0  0  0  0  0  0  0  0
    0.6202    4.0984    4.3785 C   0  0  2  0  0  0  0  0  0  0  0  0
   -0.2291    3.1123    5.2398 C   0  0  2  0  0  0  0  0  0  0  0  0
   -4.2852    2.1517    1.7618 H   0  0  0  0  0  0  0  0  0  0  0  0
   -3.7831    3.7480    1.3406 H   0  0  0  0  0  0  0  0  0  0  0  0
   -4.4856    3.4747    2.9131 H   0  0  0  0  0  0  0  0  0  0  0  0
   -0.7075    0.5530    3.1791 H   0  0  0  0  0  0  0  0  0  0  0  0
    1.6976   -1.2050    3.8832 H   0  0  0  0  0  0  0  0  0  0  0  0
    0.4133   -1.5881    2.7461 H   0  0  0  0  0  0  0  0  0  0  0  0
    2.2218   -1.3997    0.8798 H   0  0  0  0  0  0  0  0  0  0  0  0
    2.9989   -3.5066    0.0985 H   0  0  0  0  0  0  0  0  0  0  0  0
    2.9959   -5.6497    2.3297 H   0  0  0  0  0  0  0  0  0  0  0  0
    2.7448   -5.8850    0.5353 H   0  0  0  0  0  0  0  0  0  0  0  0
    5.2966   -5.6930    1.7901 H   0  0  0  0  0  0  0  0  0  0  0  0
    4.7265   -4.6076   -1.0418 H   0  0  0  0  0  0  0  0  0  0  0  0
    5.2120   -6.2449   -0.6766 H   0  0  0  0  0  0  0  0  0  0  0  0
    6.3200   -4.9094   -0.3470 H   0  0  0  0  0  0  0  0  0  0  0  0
    4.5720   -3.7068    2.7703 H   0  0  0  0  0  0  0  0  0  0  0  0
    6.0149   -1.5271    3.2528 H   0  0  0  0  0  0  0  0  0  0  0  0
    5.7377    0.1390    2.7479 H   0  0  0  0  0  0  0  0  0  0  0  0
    6.8738   -0.8880    1.8373 H   0  0  0  0  0  0  0  0  0  0  0  0
    3.8823   -0.8502   -0.4160 H   0  0  0  0  0  0  0  0  0  0  0  0
    5.5527   -0.3512   -0.2318 H   0  0  0  0  0  0  0  0  0  0  0  0
    4.2784    0.5634    0.5945 H   0  0  0  0  0  0  0  0  0  0  0  0
   -1.2655    1.2068    5.2338 H   0  0  0  0  0  0  0  0  0  0  0  0
   -2.4610    2.7604    6.6925 H   0  0  0  0  0  0  0  0  0  0  0  0
   -2.9836    3.2395    9.0220 H   0  0  0  0  0  0  0  0  0  0  0  0
   -2.6798    4.7616    8.2045 H   0  0  0  0  0  0  0  0  0  0  0  0
   -1.4552    4.0673    9.2647 H   0  0  0  0  0  0  0  0  0  0  0  0
   -1.2049    4.7652    6.1133 H   0  0  0  0  0  0  0  0  0  0  0  0
    0.3354    5.1812    7.9170 H   0  0  0  0  0  0  0  0  0  0  0  0
    1.0032    3.5935    7.8756 H   0  0  0  0  0  0  0  0  0  0  0  0
    1.6643    5.9555    6.1470 H   0  0  0  0  0  0  0  0  0  0  0  0
    2.7139    4.8339    6.9655 H   0  0  0  0  0  0  0  0  0  0  0  0
    2.6373    4.7468    4.3887 H   0  0  0  0  0  0  0  0  0  0  0  0
    2.3588    2.1775    6.0081 H   0  0  0  0  0  0  0  0  0  0  0  0
    3.8038    3.0134    5.5121 H   0  0  0  0  0  0  0  0  0  0  0  0
    2.8195    2.2271    4.2933 H   0  0  0  0  0  0  0  0  0  0  0  0
    0.2891    5.1257    4.2933 H   0  0  0  0  0  0  0  0  0  0  0  0
  1  2  1  0
  1 36  1  0
  1 37  1  0
  1 38  1  0
  2  3  1  0
  3  4  2  0
  5  3  1  1
  5 34  1  0
 35  5  1  6
  5  6  1  0
  6  7  1  0
  7  8  1  0
  7 22  1  0
  7 39  1  1
  8  9  1  0
  9 10  1  0
  9 40  1  0
  9 41  1  0
 10 21  1  0
 10 11  1  0
 10 42  1  6
 11 12  1  0
 12 16  1  0
 12 13  1  0
 12 43  1  6
 13 14  1  0
 13 44  1  0
 13 45  1  0
 14 15  1  0
 14 16  1  0
 14 46  1  1
 15 47  1  0
 15 48  1  0
 15 49  1  0
 16 17  1  0
 16 50  1  1
 17 18  1  0
 18 19  1  0
 18 20  1  0
 18 21  1  0
 19 51  1  0
 19 52  1  0
 19 53  1  0
 20 54  1  0
 20 55  1  0
 20 56  1  0
 22 23  1  0
 23 35  1  0
 23 24  1  0
 23 57  1  6
 24 25  1  0
 25 26  2  0
 25 27  1  0
 27 28  1  0
 27 29  1  0
 27 58  1  6
 28 59  1  0
 28 60  1  0
 28 61  1  0
 29 35  1  0
 29 30  1  0
 29 62  1  6
 30 31  1  0
 30 63  1  0
 30 64  1  0
 31 32  1  0
 31 65  1  0
 31 66  1  0
 32 33  1  0
 32 34  1  0
 32 67  1  6
 33 68  1  0
 33 69  1  0
 33 70  1  0
 34 35  1  0
 34 71  1  1
M  END
>  <i_m_ct_stereo_status>  (138) 
1

>  <s_m_source_file>  (138) 
/var/tmp/pbs.5076255.sched01/tmpx9mnojvb/44r91_cmns.sdf

>  <i_m_source_file_index>  (138) 
25

>  <i_lp_mmshare_version>  (138) 
48012

>  <i_f3d_flags>  (138) 
0

>  <s_epik_input>  (138) 
W0NIM11PQyg9TylbQ0BdMShbQ0BdMjM0KVtDQEBIXTRbQ0BIXShbQ0gzXSlbQ0gyXVtDSDJdW0NAQEhdM1tDQEhdKFtDSDNdKUMoPU8pT1tDQEBIXTJPW0NAQEhdKE8xKU9bQ0gyXVtDQEhdKE81KU9DKFtDSDNdKShbQ0gzXSlPW0NAQEhdKFtDQEhdNTYpW0NAQEhdKFtDSDJdNilbQ0gzXQ==

>  <s_epik_cmdline>  (138) 
J2VwaWtfcHl0aG9uJywgJy1waHQnLCAnMi4wJywgJy1waCcsICc3LjAnLCAnLXRuJywgJzgnLCAnLW1hJywgJzIwMCcsICctaW1hZScsICc8aW5maWxlLm1hZT4nLCAnLW9tYWUnLCAnPG91dGZpbGUubWFlPic=

>  <r_lp_tautomer_probability>  (138) 
1

>  <r_epik_Ionization_Penalty>  (138) 
3.30964e-11

>  <r_epik_Ionization_Penalty_Charging>  (138) 
0

>  <r_epik_Ionization_Penalty_Neutral>  (138) 
3.30964e-11

>  <r_epik_State_Penalty>  (138) 
-0

>  <r_epik_Charging_Adjusted_Penalty>  (138) 
0

>  <i_epik_Tot_Q>  (138) 
0

>  <i_epik_Tot_abs_Q>  (138) 
0

>  <s_epik_Chemistry_Notes>  (138) 
This compound has an ester and may undergo hydrolysis at high or low pH. This compound contains an acetal/aminal-like group ( X-CH(R)-Y where X, Y are N, S, or O) that may be acid/base labile, releasing an aldehyde.

>  <s_lp_Force_Field>  (138) 
OPLS3e

>  <r_lp_Energy>  (138) 
135.072

>  <b_lp_Chiralities_Consistent>  (138) 
1

>  <s_lp_Variant>  (138) 
36:0-1

>  <s_i_glide_gridfile>  (138) 
pfpi4k_grid

>  <i_i_glide_lignum>  (138) 
25

>  <i_i_glide_rotatable_bonds>  (138) 
5

>  <r_i_docking_score>  (138) 
-2.23094

>  <r_i_glide_ligand_efficiency>  (138) 
-0.063741

>  <r_i_glide_ligand_efficiency_sa>  (138) 
-0.208501

>  <r_i_glide_ligand_efficiency_ln>  (138) 
-0.48974

>  <r_i_glide_gscore>  (138) 
-2.23094

>  <r_i_glide_lipo>  (138) 
-0.314695

>  <r_i_glide_hbond>  (138) 
-0.16

>  <r_i_glide_metal>  (138) 
-0

>  <r_i_glide_rewards>  (138) 
-0.095221

>  <r_i_glide_evdw>  (138) 
-23.9248

>  <r_i_glide_ecoul>  (138) 
-4.07754

>  <r_i_glide_erotb>  (138) 
0.330842

>  <r_i_glide_esite>  (138) 
-0.18399

>  <r_i_glide_emodel>  (138) 
-31.6683

>  <r_i_glide_energy>  (138) 
-28.0024

>  <r_i_glide_einternal>  (138) 
1.58191

>  <r_i_glide_intrahb_reward>  (138) 
-0

>  <i_i_glide_confnum>  (138) 
5

>  <i_i_glide_posenum>  (138) 
5

>  <r_i_glide_eff_state_penalty>  (138) 
0

>  <ligand_id>  (138) 
36

>  <original_smiles>  (138) 
COC(=O)C12OC(OCC3OC4CC(C)C4OC(C)(C)O3)OC3OC(=O)C(C)C4CCC(C)C1C342

>  <smiles>  (138) 
[H]C([H])([H])OC(=O)C12OC([H])(OC([H])([H])C3([H])OC4([H])C([H])([H])C([H])(C([H])([H])[H])C4([H])OC(C([H])([H])[H])(C([H])([H])[H])O3)OC3([H])OC(=O)C([H])(C([H])([H])[H])C4([H])C([H])([H])C([H])([H])C([H])(C([H])([H])[H])C1([H])C324

$$$$
36:0:1
     RDKit          3D

 71 76  0  0  1  0  0  0  0  0999 V2000
    3.7007   -7.2738    1.3134 C   0  0  0  0  0  0  0  0  0  0  0  0
    3.9774   -5.8838    1.4131 O   0  0  0  0  0  0  0  0  0  0  0  0
    2.9877   -5.0118    1.6624 C   0  0  0  0  0  0  0  0  0  0  0  0
    1.7956   -5.3217    1.7182 O   0  0  0  0  0  0  0  0  0  0  0  0
    3.4529   -3.5782    1.8603 C   0  0  1  0  0  0  0  0  0  0  0  0
    2.6632   -2.8379    2.7883 O   0  0  0  0  0  0  0  0  0  0  0  0
    1.8955   -1.8249    2.2116 C   0  0  1  0  0  0  0  0  0  0  0  0
    1.3163   -0.9939    3.1746 O   0  0  0  0  0  0  0  0  0  0  0  0
    2.2128   -0.0489    3.7560 C   0  0  0  0  0  0  0  0  0  0  0  0
    1.4535    0.9672    4.5718 C   0  0  2  0  0  0  0  0  0  0  0  0
    1.0792    0.3281    5.7478 O   0  0  0  0  0  0  0  0  0  0  0  0
    0.4085    1.2300    6.5848 C   0  0  2  0  0  0  0  0  0  0  0  0
   -0.3320    0.6402    7.7711 C   0  0  0  0  0  0  0  0  0  0  0  0
   -1.4696    1.6213    7.4283 C   0  0  1  0  0  0  0  0  0  0  0  0
   -1.4733    2.9841    8.1240 C   0  0  0  0  0  0  0  0  0  0  0  0
   -0.9584    1.5258    5.9915 C   0  0  1  0  0  0  0  0  0  0  0  0
   -0.8714    2.7243    5.2544 O   0  0  0  0  0  0  0  0  0  0  0  0
   -0.2603    2.5918    3.9992 C   0  0  0  0  0  0  0  0  0  0  0  0
   -1.3806    2.6026    2.9587 C   0  0  0  0  0  0  0  0  0  0  0  0
    0.6794    3.8045    3.8165 C   0  0  0  0  0  0  0  0  0  0  0  0
    0.3996    1.3719    3.7461 O   0  0  0  0  0  0  0  0  0  0  0  0
    2.6273   -1.0980    1.2715 O   0  0  0  0  0  0  0  0  0  0  0  0
    3.0624   -1.8689    0.1955 C   0  0  1  0  0  0  0  0  0  0  0  0
    3.4953   -1.0501   -0.8626 O   0  0  0  0  0  0  0  0  0  0  0  0
    3.9072   -1.6789   -1.9987 C   0  0  0  0  0  0  0  0  0  0  0  0
    4.0042   -1.1265   -3.0894 O   0  0  0  0  0  0  0  0  0  0  0  0
    4.3479   -3.1365   -1.8139 C   0  0  1  0  0  0  0  0  0  0  0  0
    5.2051   -3.6278   -2.9884 C   0  0  0  0  0  0  0  0  0  0  0  0
    5.0533   -3.2751   -0.4544 C   0  0  1  0  0  0  0  0  0  0  0  0
    6.3625   -2.4162   -0.3171 C   0  0  0  0  0  0  0  0  0  0  0  0
    6.9139   -2.1993    1.1174 C   0  0  0  0  0  0  0  0  0  0  0  0
    5.8158   -2.0185    2.1912 C   0  0  1  0  0  0  0  0  0  0  0  0
    5.3115   -0.5811    2.2305 C   0  0  0  0  0  0  0  0  0  0  0  0
    4.8768   -3.1878    1.9950 C   0  0  2  0  0  0  0  0  0  0  0  0
    4.1124   -2.8871    0.6810 C   0  0  2  0  0  0  0  0  0  0  0  0
    4.6290   -7.8125    1.1254 H   0  0  0  0  0  0  0  0  0  0  0  0
    3.0164   -7.4898    0.4948 H   0  0  0  0  0  0  0  0  0  0  0  0
    3.2658   -7.6575    2.2390 H   0  0  0  0  0  0  0  0  0  0  0  0
    1.0458   -2.2621    1.7074 H   0  0  0  0  0  0  0  0  0  0  0  0
    2.9539   -0.5397    4.3870 H   0  0  0  0  0  0  0  0  0  0  0  0
    2.6902    0.5485    2.9801 H   0  0  0  0  0  0  0  0  0  0  0  0
    2.1367    1.7888    4.8002 H   0  0  0  0  0  0  0  0  0  0  0  0
    0.9766    2.1287    6.8471 H   0  0  0  0  0  0  0  0  0  0  0  0
   -0.5826   -0.4160    7.6149 H   0  0  0  0  0  0  0  0  0  0  0  0
    0.1514    0.8237    8.7299 H   0  0  0  0  0  0  0  0  0  0  0  0
   -2.4323    1.1279    7.5059 H   0  0  0  0  0  0  0  0  0  0  0  0
   -0.5135    3.4920    8.0309 H   0  0  0  0  0  0  0  0  0  0  0  0
   -1.6850    2.8782    9.1862 H   0  0  0  0  0  0  0  0  0  0  0  0
   -2.2320    3.6379    7.6976 H   0  0  0  0  0  0  0  0  0  0  0  0
   -1.3925    0.6741    5.4512 H   0  0  0  0  0  0  0  0  0  0  0  0
   -2.0109    1.7234    3.0909 H   0  0  0  0  0  0  0  0  0  0  0  0
   -0.9442    2.5441    1.9616 H   0  0  0  0  0  0  0  0  0  0  0  0
   -1.9901    3.5015    3.0405 H   0  0  0  0  0  0  0  0  0  0  0  0
    1.3929    3.8771    4.6355 H   0  0  0  0  0  0  0  0  0  0  0  0
    0.0845    4.7200    3.8182 H   0  0  0  0  0  0  0  0  0  0  0  0
    1.2169    3.7488    2.8691 H   0  0  0  0  0  0  0  0  0  0  0  0
    2.2169   -2.4302   -0.2006 H   0  0  0  0  0  0  0  0  0  0  0  0
    3.4511   -3.7563   -1.7853 H   0  0  0  0  0  0  0  0  0  0  0  0
    4.6319   -3.6273   -3.9106 H   0  0  0  0  0  0  0  0  0  0  0  0
    5.5080   -4.6502   -2.7966 H   0  0  0  0  0  0  0  0  0  0  0  0
    6.0922   -3.0090   -3.1338 H   0  0  0  0  0  0  0  0  0  0  0  0
    5.3151   -4.3236   -0.3052 H   0  0  0  0  0  0  0  0  0  0  0  0
    7.1525   -2.8775   -0.9062 H   0  0  0  0  0  0  0  0  0  0  0  0
    6.2135   -1.4270   -0.7515 H   0  0  0  0  0  0  0  0  0  0  0  0
    7.5282   -3.0645    1.3791 H   0  0  0  0  0  0  0  0  0  0  0  0
    7.5604   -1.3232    1.1151 H   0  0  0  0  0  0  0  0  0  0  0  0
    6.2127   -2.1630    3.1856 H   0  0  0  0  0  0  0  0  0  0  0  0
    4.9285   -0.2044    1.2782 H   0  0  0  0  0  0  0  0  0  0  0  0
    6.0961    0.1090    2.5577 H   0  0  0  0  0  0  0  0  0  0  0  0
    4.5441   -0.5550    2.9860 H   0  0  0  0  0  0  0  0  0  0  0  0
    5.4691   -4.0842    2.0859 H   0  0  0  0  0  0  0  0  0  0  0  0
  1  2  1  0
  1 36  1  0
  1 37  1  0
  1 38  1  0
  2  3  1  0
  3  4  2  0
  5  3  1  6
  5 34  1  0
 35  5  1  1
  5  6  1  0
  6  7  1  0
  7  8  1  0
  7 22  1  0
  7 39  1  6
  8  9  1  0
  9 10  1  0
  9 40  1  0
  9 41  1  0
 10 21  1  0
 10 11  1  0
 10 42  1  1
 11 12  1  0
 12 16  1  0
 12 13  1  0
 12 43  1  1
 13 14  1  0
 13 44  1  0
 13 45  1  0
 14 15  1  0
 14 16  1  0
 14 46  1  6
 15 47  1  0
 15 48  1  0
 15 49  1  0
 16 17  1  0
 16 50  1  6
 17 18  1  0
 18 19  1  0
 18 20  1  0
 18 21  1  0
 19 51  1  0
 19 52  1  0
 19 53  1  0
 20 54  1  0
 20 55  1  0
 20 56  1  0
 22 23  1  0
 23 35  1  0
 23 24  1  0
 23 57  1  6
 24 25  1  0
 25 26  2  0
 25 27  1  0
 27 28  1  0
 27 29  1  0
 27 58  1  1
 28 59  1  0
 28 60  1  0
 28 61  1  0
 29 35  1  0
 29 30  1  0
 29 62  1  1
 30 31  1  0
 30 63  1  0
 30 64  1  0
 31 32  1  0
 31 65  1  0
 31 66  1  0
 32 33  1  0
 32 34  1  0
 32 67  1  1
 33 68  1  0
 33 69  1  0
 33 70  1  0
 34 35  1  0
 34 71  1  6
M  END
>  <i_m_ct_stereo_status>  (139) 
1

>  <s_m_source_file>  (139) 
/var/tmp/pbs.5076255.sched01/tmpx9mnojvb/44r91_cmns.sdf

>  <i_m_source_file_index>  (139) 
25

>  <i_lp_mmshare_version>  (139) 
48012

>  <i_f3d_flags>  (139) 
0

>  <s_epik_input>  (139) 
W0NIM11PQyg9TylbQ0BdMShbQ0BdMjM0KVtDQEBIXTRbQ0BIXShbQ0gzXSlbQ0gyXVtDSDJdW0NAQEhdM1tDQEhdKFtDSDNdKUMoPU8pT1tDQEBIXTJPW0NAQEhdKE8xKU9bQ0gyXVtDQEhdKE81KU9DKFtDSDNdKShbQ0gzXSlPW0NAQEhdKFtDQEhdNTYpW0NAQEhdKFtDSDJdNilbQ0gzXQ==

>  <s_epik_cmdline>  (139) 
J2VwaWtfcHl0aG9uJywgJy1waHQnLCAnMi4wJywgJy1waCcsICc3LjAnLCAnLXRuJywgJzgnLCAnLW1hJywgJzIwMCcsICctaW1hZScsICc8aW5maWxlLm1hZT4nLCAnLW9tYWUnLCAnPG91dGZpbGUubWFlPic=

>  <r_lp_tautomer_probability>  (139) 
1

>  <r_epik_Ionization_Penalty>  (139) 
3.30964e-11

>  <r_epik_Ionization_Penalty_Charging>  (139) 
0

>  <r_epik_Ionization_Penalty_Neutral>  (139) 
3.30964e-11

>  <r_epik_State_Penalty>  (139) 
-0

>  <r_epik_Charging_Adjusted_Penalty>  (139) 
0

>  <i_epik_Tot_Q>  (139) 
0

>  <i_epik_Tot_abs_Q>  (139) 
0

>  <s_epik_Chemistry_Notes>  (139) 
This compound has an ester and may undergo hydrolysis at high or low pH. This compound contains an acetal/aminal-like group ( X-CH(R)-Y where X, Y are N, S, or O) that may be acid/base labile, releasing an aldehyde.

>  <s_lp_Force_Field>  (139) 
OPLS3e

>  <r_lp_Energy>  (139) 
135.072

>  <b_lp_Chiralities_Consistent>  (139) 
1

>  <s_lp_Variant>  (139) 
36:0-1

>  <s_i_glide_gridfile>  (139) 
pfpi4k_grid

>  <i_i_glide_lignum>  (139) 
25

>  <i_i_glide_rotatable_bonds>  (139) 
5

>  <r_i_docking_score>  (139) 
-2.19471

>  <r_i_glide_ligand_efficiency>  (139) 
-0.062706

>  <r_i_glide_ligand_efficiency_sa>  (139) 
-0.205116

>  <r_i_glide_ligand_efficiency_ln>  (139) 
-0.481788

>  <r_i_glide_gscore>  (139) 
-2.19471

>  <r_i_glide_lipo>  (139) 
-0.521103

>  <r_i_glide_hbond>  (139) 
-0.0437151

>  <r_i_glide_metal>  (139) 
-0

>  <r_i_glide_rewards>  (139) 
-0.0235409

>  <r_i_glide_evdw>  (139) 
-26.5562

>  <r_i_glide_ecoul>  (139) 
-2.74235

>  <r_i_glide_erotb>  (139) 
0.330842

>  <r_i_glide_esite>  (139) 
-0.198029

>  <r_i_glide_emodel>  (139) 
-31.1673

>  <r_i_glide_energy>  (139) 
-29.2986

>  <r_i_glide_einternal>  (139) 
3.01518

>  <r_i_glide_intrahb_reward>  (139) 
-0

>  <i_i_glide_confnum>  (139) 
6

>  <i_i_glide_posenum>  (139) 
21

>  <r_i_glide_eff_state_penalty>  (139) 
0

>  <ligand_id>  (139) 
36

>  <original_smiles>  (139) 
COC(=O)C12OC(OCC3OC4CC(C)C4OC(C)(C)O3)OC3OC(=O)C(C)C4CCC(C)C1C342

>  <smiles>  (139) 
[H]C([H])([H])OC(=O)C12OC([H])(OC([H])([H])C3([H])OC4([H])C([H])([H])C([H])(C([H])([H])[H])C4([H])OC(C([H])([H])[H])(C([H])([H])[H])O3)OC3([H])OC(=O)C([H])(C([H])([H])[H])C4([H])C([H])([H])C([H])([H])C([H])(C([H])([H])[H])C1([H])C324

$$$$
36:0:2
     RDKit          3D

 71 76  0  0  1  0  0  0  0  0999 V2000
    4.7289   -1.3548   -1.1311 C   0  0  0  0  0  0  0  0  0  0  0  0
    4.1434   -1.7228    0.1238 O   0  0  0  0  0  0  0  0  0  0  0  0
    4.5787   -1.1428    1.2709 C   0  0  0  0  0  0  0  0  0  0  0  0
    5.4405   -0.2647    1.3127 O   0  0  0  0  0  0  0  0  0  0  0  0
    3.8520   -1.6219    2.5164 C   0  0  1  0  0  0  0  0  0  0  0  0
    3.4873   -2.9906    2.5004 O   0  0  0  0  0  0  0  0  0  0  0  0
    2.1253   -3.2126    2.3006 C   0  0  1  0  0  0  0  0  0  0  0  0
    1.7969   -4.5610    2.4698 O   0  0  0  0  0  0  0  0  0  0  0  0
    1.8848   -5.0091    3.8142 C   0  0  0  0  0  0  0  0  0  0  0  0
    1.6025   -6.4887    3.8984 C   0  0  2  0  0  0  0  0  0  0  0  0
    2.7561   -7.0925    3.4267 O   0  0  0  0  0  0  0  0  0  0  0  0
    2.6611   -8.4897    3.5410 C   0  0  2  0  0  0  0  0  0  0  0  0
    3.7077   -9.3042    2.8025 C   0  0  0  0  0  0  0  0  0  0  0  0
    2.5435  -10.2077    2.3715 C   0  0  1  0  0  0  0  0  0  0  0  0
    2.2173  -11.4367    3.2305 C   0  0  0  0  0  0  0  0  0  0  0  0
    1.6797   -8.9636    2.4897 C   0  0  1  0  0  0  0  0  0  0  0  0
    0.4147   -9.1026    3.1038 O   0  0  0  0  0  0  0  0  0  0  0  0
   -0.2724   -7.9042    3.3238 C   0  0  0  0  0  0  0  0  0  0  0  0
   -1.3597   -7.8220    2.2625 C   0  0  0  0  0  0  0  0  0  0  0  0
   -0.8927   -7.9805    4.7367 C   0  0  0  0  0  0  0  0  0  0  0  0
    0.4464   -6.7024    3.1385 O   0  0  0  0  0  0  0  0  0  0  0  0
    1.3418   -2.3830    3.1271 O   0  0  0  0  0  0  0  0  0  0  0  0
    1.5299   -1.0261    2.8589 C   0  0  1  0  0  0  0  0  0  0  0  0
    0.5099   -0.2590    3.4681 O   0  0  0  0  0  0  0  0  0  0  0  0
    0.5679    1.1013    3.3125 C   0  0  0  0  0  0  0  0  0  0  0  0
   -0.3652    1.8426    3.5475 O   0  0  0  0  0  0  0  0  0  0  0  0
    1.9378    1.6626    2.8859 C   0  0  1  0  0  0  0  0  0  0  0  0
    2.0549    3.1815    3.1074 C   0  0  0  0  0  0  0  0  0  0  0  0
    3.0466    0.8698    3.5940 C   0  0  1  0  0  0  0  0  0  0  0  0
    3.0482    1.0062    5.1652 C   0  0  0  0  0  0  0  0  0  0  0  0
    3.8930   -0.0168    5.9803 C   0  0  0  0  0  0  0  0  0  0  0  0
    3.8833   -1.4427    5.3691 C   0  0  1  0  0  0  0  0  0  0  0  0
    2.6045   -2.1574    5.8052 C   0  0  0  0  0  0  0  0  0  0  0  0
    4.2338   -1.2506    3.9033 C   0  0  2  0  0  0  0  0  0  0  0  0
    2.9732   -0.5983    3.2347 C   0  0  2  0  0  0  0  0  0  0  0  0
    4.2940   -1.9493   -1.9416 H   0  0  0  0  0  0  0  0  0  0  0  0
    5.8093   -1.5442   -1.1313 H   0  0  0  0  0  0  0  0  0  0  0  0
    4.5663   -0.2956   -1.3704 H   0  0  0  0  0  0  0  0  0  0  0  0
    1.8796   -2.9754    1.2739 H   0  0  0  0  0  0  0  0  0  0  0  0
    2.8908   -4.8660    4.2082 H   0  0  0  0  0  0  0  0  0  0  0  0
    1.1417   -4.5077    4.4317 H   0  0  0  0  0  0  0  0  0  0  0  0
    1.4557   -6.7598    4.9474 H   0  0  0  0  0  0  0  0  0  0  0  0
    2.4593   -8.8733    4.5480 H   0  0  0  0  0  0  0  0  0  0  0  0
    4.1631   -8.7652    1.9625 H   0  0  0  0  0  0  0  0  0  0  0  0
    4.4416   -9.7799    3.4533 H   0  0  0  0  0  0  0  0  0  0  0  0
    2.6609  -10.4432    1.3222 H   0  0  0  0  0  0  0  0  0  0  0  0
    2.0911  -11.1960    4.2868 H   0  0  0  0  0  0  0  0  0  0  0  0
    3.0056  -12.1795    3.1536 H   0  0  0  0  0  0  0  0  0  0  0  0
    1.2946  -11.9067    2.8951 H   0  0  0  0  0  0  0  0  0  0  0  0
    1.6979   -8.3627    1.5722 H   0  0  0  0  0  0  0  0  0  0  0  0
   -0.8901   -7.7237    1.2850 H   0  0  0  0  0  0  0  0  0  0  0  0
   -1.9678   -6.9376    2.4566 H   0  0  0  0  0  0  0  0  0  0  0  0
   -1.9947   -8.7067    2.2749 H   0  0  0  0  0  0  0  0  0  0  0  0
   -0.1399   -8.1957    5.4922 H   0  0  0  0  0  0  0  0  0  0  0  0
   -1.6156   -8.7981    4.7577 H   0  0  0  0  0  0  0  0  0  0  0  0
   -1.4116   -7.0491    4.9809 H   0  0  0  0  0  0  0  0  0  0  0  0
    1.3686   -0.8681    1.7847 H   0  0  0  0  0  0  0  0  0  0  0  0
    2.0359    1.4744    1.8164 H   0  0  0  0  0  0  0  0  0  0  0  0
    1.3387    3.6958    2.4796 H   0  0  0  0  0  0  0  0  0  0  0  0
    3.0445    3.5364    2.8373 H   0  0  0  0  0  0  0  0  0  0  0  0
    1.8534    3.4481    4.1421 H   0  0  0  0  0  0  0  0  0  0  0  0
    4.0068    1.2264    3.2456 H   0  0  0  0  0  0  0  0  0  0  0  0
    3.4016    2.0006    5.4247 H   0  0  0  0  0  0  0  0  0  0  0  0
    2.0257    0.9580    5.5529 H   0  0  0  0  0  0  0  0  0  0  0  0
    4.9269    0.3315    6.0519 H   0  0  0  0  0  0  0  0  0  0  0  0
    3.5112   -0.0483    6.9958 H   0  0  0  0  0  0  0  0  0  0  0  0
    4.6987   -2.0026    5.8311 H   0  0  0  0  0  0  0  0  0  0  0  0
    1.6875   -1.6291    5.5633 H   0  0  0  0  0  0  0  0  0  0  0  0
    2.5772   -2.3395    6.8774 H   0  0  0  0  0  0  0  0  0  0  0  0
    2.5891   -3.1288    5.3292 H   0  0  0  0  0  0  0  0  0  0  0  0
    5.1735   -0.7521    3.8492 H   0  0  0  0  0  0  0  0  0  0  0  0
  1  2  1  0
  1 36  1  0
  1 37  1  0
  1 38  1  0
  2  3  1  0
  3  4  2  0
  5  3  1  6
  5 34  1  0
 35  5  1  6
  5  6  1  0
  6  7  1  0
  7  8  1  0
  7 22  1  0
  7 39  1  6
  8  9  1  0
  9 10  1  0
  9 40  1  0
  9 41  1  0
 10 21  1  0
 10 11  1  0
 10 42  1  1
 11 12  1  0
 12 16  1  0
 12 13  1  0
 12 43  1  1
 13 14  1  0
 13 44  1  0
 13 45  1  0
 14 15  1  0
 14 16  1  0
 14 46  1  6
 15 47  1  0
 15 48  1  0
 15 49  1  0
 16 17  1  0
 16 50  1  6
 17 18  1  0
 18 19  1  0
 18 20  1  0
 18 21  1  0
 19 51  1  0
 19 52  1  0
 19 53  1  0
 20 54  1  0
 20 55  1  0
 20 56  1  0
 22 23  1  0
 23 35  1  0
 23 24  1  0
 23 57  1  6
 24 25  1  0
 25 26  2  0
 25 27  1  0
 27 28  1  0
 27 29  1  0
 27 58  1  6
 28 59  1  0
 28 60  1  0
 28 61  1  0
 29 35  1  0
 29 30  1  0
 29 62  1  6
 30 31  1  0
 30 63  1  0
 30 64  1  0
 31 32  1  0
 31 65  1  0
 31 66  1  0
 32 33  1  0
 32 34  1  0
 32 67  1  1
 33 68  1  0
 33 69  1  0
 33 70  1  0
 34 35  1  0
 34 71  1  1
M  END
>  <i_m_ct_stereo_status>  (140) 
1

>  <s_m_source_file>  (140) 
/var/tmp/pbs.5076255.sched01/tmpx9mnojvb/44r91_cmns.sdf

>  <i_m_source_file_index>  (140) 
25

>  <i_lp_mmshare_version>  (140) 
48012

>  <i_f3d_flags>  (140) 
0

>  <s_epik_input>  (140) 
W0NIM11PQyg9TylbQ0BdMShbQ0BdMjM0KVtDQEBIXTRbQ0BIXShbQ0gzXSlbQ0gyXVtDSDJdW0NAQEhdM1tDQEhdKFtDSDNdKUMoPU8pT1tDQEBIXTJPW0NAQEhdKE8xKU9bQ0gyXVtDQEhdKE81KU9DKFtDSDNdKShbQ0gzXSlPW0NAQEhdKFtDQEhdNTYpW0NAQEhdKFtDSDJdNilbQ0gzXQ==

>  <s_epik_cmdline>  (140) 
J2VwaWtfcHl0aG9uJywgJy1waHQnLCAnMi4wJywgJy1waCcsICc3LjAnLCAnLXRuJywgJzgnLCAnLW1hJywgJzIwMCcsICctaW1hZScsICc8aW5maWxlLm1hZT4nLCAnLW9tYWUnLCAnPG91dGZpbGUubWFlPic=

>  <r_lp_tautomer_probability>  (140) 
1

>  <r_epik_Ionization_Penalty>  (140) 
3.30964e-11

>  <r_epik_Ionization_Penalty_Charging>  (140) 
0

>  <r_epik_Ionization_Penalty_Neutral>  (140) 
3.30964e-11

>  <r_epik_State_Penalty>  (140) 
-0

>  <r_epik_Charging_Adjusted_Penalty>  (140) 
0

>  <i_epik_Tot_Q>  (140) 
0

>  <i_epik_Tot_abs_Q>  (140) 
0

>  <s_epik_Chemistry_Notes>  (140) 
This compound has an ester and may undergo hydrolysis at high or low pH. This compound contains an acetal/aminal-like group ( X-CH(R)-Y where X, Y are N, S, or O) that may be acid/base labile, releasing an aldehyde.

>  <s_lp_Force_Field>  (140) 
OPLS3e

>  <r_lp_Energy>  (140) 
135.072

>  <b_lp_Chiralities_Consistent>  (140) 
1

>  <s_lp_Variant>  (140) 
36:0-1

>  <s_i_glide_gridfile>  (140) 
pfpi4k_grid

>  <i_i_glide_lignum>  (140) 
25

>  <i_i_glide_rotatable_bonds>  (140) 
5

>  <r_i_docking_score>  (140) 
-1.75722

>  <r_i_glide_ligand_efficiency>  (140) 
-0.0502062

>  <r_i_glide_ligand_efficiency_sa>  (140) 
-0.164228

>  <r_i_glide_ligand_efficiency_ln>  (140) 
-0.385749

>  <r_i_glide_gscore>  (140) 
-1.75722

>  <r_i_glide_lipo>  (140) 
-0.0881647

>  <r_i_glide_hbond>  (140) 
-0.170096

>  <r_i_glide_metal>  (140) 
-0

>  <r_i_glide_rewards>  (140) 
-0.0920639

>  <r_i_glide_evdw>  (140) 
-28.4337

>  <r_i_glide_ecoul>  (140) 
-1.38856

>  <r_i_glide_erotb>  (140) 
0.330842

>  <r_i_glide_esite>  (140) 
-0.107768

>  <r_i_glide_emodel>  (140) 
-31.6622

>  <r_i_glide_energy>  (140) 
-29.8222

>  <r_i_glide_einternal>  (140) 
1.64094

>  <r_i_glide_intrahb_reward>  (140) 
-0

>  <i_i_glide_confnum>  (140) 
6

>  <i_i_glide_posenum>  (140) 
1

>  <r_i_glide_eff_state_penalty>  (140) 
0

>  <ligand_id>  (140) 
36

>  <original_smiles>  (140) 
COC(=O)C12OC(OCC3OC4CC(C)C4OC(C)(C)O3)OC3OC(=O)C(C)C4CCC(C)C1C342

>  <smiles>  (140) 
[H]C([H])([H])OC(=O)C12OC([H])(OC([H])([H])C3([H])OC4([H])C([H])([H])C([H])(C([H])([H])[H])C4([H])OC(C([H])([H])[H])(C([H])([H])[H])O3)OC3([H])OC(=O)C([H])(C([H])([H])[H])C4([H])C([H])([H])C([H])([H])C([H])(C([H])([H])[H])C1([H])C324

$$$$
37:0:0
     RDKit          3D

 60 64  0  0  1  0  0  0  0  0999 V2000
    2.4109   -3.8462   -0.8460 C   0  0  0  0  0  0  0  0  0  0  0  0
    3.4388   -3.1943    0.0826 C   0  0  2  0  0  0  0  0  0  0  0  0
    4.8992   -3.5810   -0.1313 C   0  0  2  0  0  0  0  0  0  0  0  0
    5.1430   -5.1123   -0.2002 C   0  0  0  0  0  0  0  0  0  0  0  0
    4.7768   -5.9359    1.0737 C   0  0  2  0  0  0  0  0  0  0  0  0
    3.4136   -6.3137    1.0628 O   0  0  0  0  0  0  0  0  0  0  0  0
    3.1198   -6.9123    2.3112 C   0  0  2  0  0  0  0  0  0  0  0  0
    1.5867   -7.1565    2.5461 C   0  0  0  0  0  0  0  0  0  0  0  0
    0.8622   -7.2276    1.1892 C   0  0  0  0  0  0  0  0  0  0  0  0
    1.3934   -8.5295    3.2361 C   0  0  0  0  0  0  0  0  0  0  0  0
    0.9442   -6.0258    3.3824 C   0  0  1  0  0  0  0  0  0  0  0  0
   -0.4006   -6.3169    3.6918 O   0  0  0  0  0  0  0  0  0  0  0  0
    1.7119   -5.7486    4.6694 C   0  0  0  0  0  0  0  0  0  0  0  0
    3.0910   -5.2025    4.3268 C   0  0  0  0  0  0  0  0  0  0  0  0
    3.9429   -6.0867    3.3626 C   0  0  1  0  0  0  0  0  0  0  0  0
    4.6318   -7.1406    4.2824 C   0  0  0  0  0  0  0  0  0  0  0  0
    4.9638   -5.2488    2.4599 C   0  0  1  0  0  0  0  0  0  0  0  0
    6.4409   -5.4781    2.9432 C   0  0  0  0  0  0  0  0  0  0  0  0
    4.6480   -3.6860    2.2486 C   0  0  1  0  0  0  0  0  0  0  0  0
    5.0196   -2.7189    3.4135 C   0  0  0  0  0  0  0  0  0  0  0  0
    5.7023   -1.5961    2.8455 O   0  0  0  0  0  0  0  0  0  0  0  0
    5.6376   -1.6402    1.4601 C   0  0  1  0  0  0  0  0  0  0  0  0
    6.7592   -1.0587    0.8466 O   0  0  0  0  0  0  0  0  0  0  0  0
    5.5694   -3.1442    1.1635 C   0  0  2  0  0  0  0  0  0  0  0  0
    3.2304   -3.4282    1.5870 C   0  0  1  0  0  0  0  0  0  0  0  0
    2.5512   -2.3075    2.1086 O   0  0  0  0  0  0  0  0  0  0  0  0
    2.3623   -4.9235   -0.6993 H   0  0  0  0  0  0  0  0  0  0  0  0
    2.6621   -3.6677   -1.8914 H   0  0  0  0  0  0  0  0  0  0  0  0
    1.4191   -3.4427   -0.6826 H   0  0  0  0  0  0  0  0  0  0  0  0
    3.3712   -2.1246   -0.1238 H   0  0  0  0  0  0  0  0  0  0  0  0
    5.3289   -3.0811   -0.9986 H   0  0  0  0  0  0  0  0  0  0  0  0
    4.6492   -5.5438   -1.0695 H   0  0  0  0  0  0  0  0  0  0  0  0
    6.2122   -5.2511   -0.3515 H   0  0  0  0  0  0  0  0  0  0  0  0
    5.3451   -6.8681    1.0470 H   0  0  0  0  0  0  0  0  0  0  0  0
    3.5822   -7.8959    2.2034 H   0  0  0  0  0  0  0  0  0  0  0  0
   -0.1838   -7.5142    1.3020 H   0  0  0  0  0  0  0  0  0  0  0  0
    1.3320   -7.9786    0.5557 H   0  0  0  0  0  0  0  0  0  0  0  0
    0.8927   -6.2756    0.6584 H   0  0  0  0  0  0  0  0  0  0  0  0
    0.3402   -8.7659    3.3840 H   0  0  0  0  0  0  0  0  0  0  0  0
    1.8792   -8.5788    4.2097 H   0  0  0  0  0  0  0  0  0  0  0  0
    1.8073   -9.3355    2.6287 H   0  0  0  0  0  0  0  0  0  0  0  0
    0.9241   -5.1052    2.8028 H   0  0  0  0  0  0  0  0  0  0  0  0
   -0.4156   -7.1281    4.1794 H   0  0  0  0  0  0  0  0  0  0  0  0
    1.1772   -5.0010    5.2548 H   0  0  0  0  0  0  0  0  0  0  0  0
    1.7823   -6.6290    5.3012 H   0  0  0  0  0  0  0  0  0  0  0  0
    2.8862   -4.2162    3.9472 H   0  0  0  0  0  0  0  0  0  0  0  0
    3.6415   -5.0235    5.2487 H   0  0  0  0  0  0  0  0  0  0  0  0
    5.2816   -6.6835    5.0300 H   0  0  0  0  0  0  0  0  0  0  0  0
    5.2346   -7.8595    3.7238 H   0  0  0  0  0  0  0  0  0  0  0  0
    3.9019   -7.7293    4.8354 H   0  0  0  0  0  0  0  0  0  0  0  0
    6.5919   -5.1531    3.9718 H   0  0  0  0  0  0  0  0  0  0  0  0
    7.2065   -4.9884    2.3555 H   0  0  0  0  0  0  0  0  0  0  0  0
    6.7397   -6.5229    2.8940 H   0  0  0  0  0  0  0  0  0  0  0  0
    4.1517   -2.3823    3.9860 H   0  0  0  0  0  0  0  0  0  0  0  0
    5.6815   -3.1815    4.1424 H   0  0  0  0  0  0  0  0  0  0  0  0
    4.7551   -1.0807    1.1521 H   0  0  0  0  0  0  0  0  0  0  0  0
    6.9198   -0.2171    1.2616 H   0  0  0  0  0  0  0  0  0  0  0  0
    6.6000   -3.4923    1.2070 H   0  0  0  0  0  0  0  0  0  0  0  0
    2.5556   -4.2613    1.7116 H   0  0  0  0  0  0  0  0  0  0  0  0
    2.0054   -1.9489    1.4189 H   0  0  0  0  0  0  0  0  0  0  0  0
  1  2  1  0
  1 27  1  0
  1 28  1  0
  1 29  1  0
  2 25  1  0
  2  3  1  0
  2 30  1  1
  3 24  1  0
  3  4  1  0
  3 31  1  6
  4  5  1  0
  4 32  1  0
  4 33  1  0
  5 17  1  0
  5  6  1  0
  5 34  1  1
  6  7  1  0
  7 15  1  0
  7  8  1  0
  7 35  1  6
  8  9  1  0
  8 10  1  0
  8 11  1  0
  9 36  1  0
  9 37  1  0
  9 38  1  0
 10 39  1  0
 10 40  1  0
 10 41  1  0
 11 12  1  0
 11 13  1  0
 11 42  1  6
 12 43  1  0
 13 14  1  0
 13 44  1  0
 13 45  1  0
 14 15  1  0
 14 46  1  0
 14 47  1  0
 15 16  1  1
 15 17  1  0
 16 48  1  0
 16 49  1  0
 16 50  1  0
 17 18  1  1
 17 19  1  0
 18 51  1  0
 18 52  1  0
 18 53  1  0
 19 24  1  0
 19 20  1  1
 19 25  1  0
 20 21  1  0
 20 54  1  0
 20 55  1  0
 21 22  1  0
 22 23  1  0
 22 24  1  0
 22 56  1  6
 23 57  1  0
 24 58  1  1
 25 26  1  0
 25 59  1  6
 26 60  1  0
M  END
>  <i_m_ct_stereo_status>  (141) 
1

>  <s_m_source_file>  (141) 
/var/tmp/pbs.5076255.sched01/tmpx9mnojvb/44r91_cmns.sdf

>  <i_m_source_file_index>  (141) 
26

>  <i_lp_mmshare_version>  (141) 
48012

>  <i_f3d_flags>  (141) 
0

>  <s_epik_input>  (141) 
W0NIMl0xT1tDQEBIXShbT0hdKVtDQEBIXTJbQ0BIXShbQ0BASF0oW0NIM10pW0NAQEhdM1tPSF0pW0NIMl1bQ0BASF0oW0NAXTQoW0NAQF0xMjMpW0NIM10pT1tDQEhdNVtDQF00KFtDSDNdKVtDSDJdW0NIMl1bQ0BIXShbT0hdKUM1KFtDSDNdKVtDSDNd

>  <s_epik_cmdline>  (141) 
J2VwaWtfcHl0aG9uJywgJy1waHQnLCAnMi4wJywgJy1waCcsICc3LjAnLCAnLXRuJywgJzgnLCAnLW1hJywgJzIwMCcsICctaW1hZScsICc8aW5maWxlLm1hZT4nLCAnLW9tYWUnLCAnPG91dGZpbGUubWFlPic=

>  <r_lp_tautomer_probability>  (141) 
1

>  <r_epik_Ionization_Penalty>  (141) 
8.5274e-07

>  <r_epik_Ionization_Penalty_Charging>  (141) 
0

>  <r_epik_Ionization_Penalty_Neutral>  (141) 
8.5274e-07

>  <r_epik_State_Penalty>  (141) 
-0

>  <r_epik_Charging_Adjusted_Penalty>  (141) 
0

>  <i_epik_Tot_Q>  (141) 
0

>  <i_epik_Tot_abs_Q>  (141) 
0

>  <s_epik_Chemistry_Notes>  (141) 
This compound contains an acetal/aminal-like group ( X-CH(R)-Y where X, Y are N, S, or O) that may be acid/base labile, releasing an aldehyde.

>  <s_lp_Force_Field>  (141) 
OPLS3e

>  <r_lp_Energy>  (141) 
65.9121

>  <b_lp_Chiralities_Consistent>  (141) 
1

>  <s_lp_Variant>  (141) 
37:0-1

>  <s_i_glide_gridfile>  (141) 
pfpi4k_grid

>  <i_i_glide_lignum>  (141) 
26

>  <i_i_glide_rotatable_bonds>  (141) 
3

>  <r_i_docking_score>  (141) 
-3.32899

>  <r_i_glide_ligand_efficiency>  (141) 
-0.128038

>  <r_i_glide_ligand_efficiency_sa>  (141) 
-0.379312

>  <r_i_glide_ligand_efficiency_ln>  (141) 
-0.781802

>  <r_i_glide_gscore>  (141) 
-3.32899

>  <r_i_glide_lipo>  (141) 
-0.291113

>  <r_i_glide_hbond>  (141) 
-0.102468

>  <r_i_glide_metal>  (141) 
-0

>  <r_i_glide_rewards>  (141) 
-1.09299

>  <r_i_glide_evdw>  (141) 
-20.3729

>  <r_i_glide_ecoul>  (141) 
-5.49182

>  <r_i_glide_erotb>  (141) 
0

>  <r_i_glide_esite>  (141) 
0

>  <r_i_glide_emodel>  (141) 
-30.2254

>  <r_i_glide_energy>  (141) 
-25.8647

>  <r_i_glide_einternal>  (141) 
1.88712

>  <r_i_glide_intrahb_reward>  (141) 
-0

>  <i_i_glide_confnum>  (141) 
1

>  <i_i_glide_posenum>  (141) 
37

>  <r_i_glide_eff_state_penalty>  (141) 
0

>  <ligand_id>  (141) 
37

>  <original_smiles>  (141) 
CC1C2CC3OC4C(C)(C)C(O)CCC4(C)C3(C)C3(COC(O)C23)C1O

>  <smiles>  (141) 
[H]OC1([H])OC([H])([H])C23C([H])(O[H])C([H])(C([H])([H])[H])C([H])(C([H])([H])C4([H])OC5([H])C(C([H])([H])[H])(C([H])([H])[H])C([H])(O[H])C([H])([H])C([H])([H])C5(C([H])([H])[H])C42C([H])([H])[H])C13[H]

$$$$
37:0:1
     RDKit          3D

 60 64  0  0  1  0  0  0  0  0999 V2000
    1.3784   -6.3943    2.0582 C   0  0  0  0  0  0  0  0  0  0  0  0
    2.1241   -5.0780    2.3382 C   0  0  2  0  0  0  0  0  0  0  0  0
    2.6288   -4.2908    1.1263 C   0  0  2  0  0  0  0  0  0  0  0  0
    3.4184   -5.1497    0.1039 C   0  0  0  0  0  0  0  0  0  0  0  0
    4.7312   -5.8129    0.6287 C   0  0  2  0  0  0  0  0  0  0  0  0
    4.4535   -7.0628    1.2335 O   0  0  0  0  0  0  0  0  0  0  0  0
    5.6436   -7.5336    1.8404 C   0  0  2  0  0  0  0  0  0  0  0  0
    5.4335   -8.7888    2.7623 C   0  0  0  0  0  0  0  0  0  0  0  0
    4.1442   -9.5338    2.3429 C   0  0  0  0  0  0  0  0  0  0  0  0
    6.6120   -9.7723    2.5590 C   0  0  0  0  0  0  0  0  0  0  0  0
    5.3148   -8.3904    4.2553 C   0  0  1  0  0  0  0  0  0  0  0  0
    5.2648   -9.5184    5.1023 O   0  0  0  0  0  0  0  0  0  0  0  0
    6.4645   -7.4885    4.7061 C   0  0  0  0  0  0  0  0  0  0  0  0
    6.3955   -6.1566    3.9689 C   0  0  0  0  0  0  0  0  0  0  0  0
    6.3500   -6.2514    2.4103 C   0  0  1  0  0  0  0  0  0  0  0  0
    7.8422   -6.3566    1.9709 C   0  0  0  0  0  0  0  0  0  0  0  0
    5.5512   -5.0491    1.7148 C   0  0  1  0  0  0  0  0  0  0  0  0
    6.5442   -4.0690    0.9911 C   0  0  0  0  0  0  0  0  0  0  0  0
    4.4919   -4.2515    2.6224 C   0  0  1  0  0  0  0  0  0  0  0  0
    5.0534   -3.1824    3.6030 C   0  0  0  0  0  0  0  0  0  0  0  0
    4.2697   -1.9938    3.4708 O   0  0  0  0  0  0  0  0  0  0  0  0
    3.1627   -2.2529    2.6789 C   0  0  1  0  0  0  0  0  0  0  0  0
    2.7199   -1.1157    1.9771 O   0  0  0  0  0  0  0  0  0  0  0  0
    3.6580   -3.3454    1.7263 C   0  0  2  0  0  0  0  0  0  0  0  0
    3.3717   -5.1972    3.2266 C   0  0  1  0  0  0  0  0  0  0  0  0
    2.9982   -4.9031    4.5573 O   0  0  0  0  0  0  0  0  0  0  0  0
    2.0119   -7.1351    1.5784 H   0  0  0  0  0  0  0  0  0  0  0  0
    0.5142   -6.2374    1.4172 H   0  0  0  0  0  0  0  0  0  0  0  0
    1.0230   -6.8311    2.9923 H   0  0  0  0  0  0  0  0  0  0  0  0
    1.4041   -4.4381    2.8465 H   0  0  0  0  0  0  0  0  0  0  0  0
    1.8313   -3.7415    0.6301 H   0  0  0  0  0  0  0  0  0  0  0  0
    2.7697   -5.9153   -0.3225 H   0  0  0  0  0  0  0  0  0  0  0  0
    3.6821   -4.5030   -0.7311 H   0  0  0  0  0  0  0  0  0  0  0  0
    5.3650   -6.0317   -0.2296 H   0  0  0  0  0  0  0  0  0  0  0  0
    6.2092   -7.8851    0.9746 H   0  0  0  0  0  0  0  0  0  0  0  0
    4.0307  -10.4755    2.8811 H   0  0  0  0  0  0  0  0  0  0  0  0
    4.1528   -9.7767    1.2787 H   0  0  0  0  0  0  0  0  0  0  0  0
    3.2521   -8.9411    2.5421 H   0  0  0  0  0  0  0  0  0  0  0  0
    6.4968  -10.6725    3.1633 H   0  0  0  0  0  0  0  0  0  0  0  0
    7.5719   -9.3299    2.8219 H   0  0  0  0  0  0  0  0  0  0  0  0
    6.6756  -10.1008    1.5206 H   0  0  0  0  0  0  0  0  0  0  0  0
    4.3792   -7.8646    4.4284 H   0  0  0  0  0  0  0  0  0  0  0  0
    4.5001  -10.0287    4.8753 H   0  0  0  0  0  0  0  0  0  0  0  0
    6.3817   -7.3026    5.7776 H   0  0  0  0  0  0  0  0  0  0  0  0
    7.4302   -7.9679    4.5671 H   0  0  0  0  0  0  0  0  0  0  0  0
    5.5319   -5.6789    4.4012 H   0  0  0  0  0  0  0  0  0  0  0  0
    7.2264   -5.5282    4.2843 H   0  0  0  0  0  0  0  0  0  0  0  0
    8.4286   -5.4860    2.2683 H   0  0  0  0  0  0  0  0  0  0  0  0
    7.9582   -6.4764    0.8933 H   0  0  0  0  0  0  0  0  0  0  0  0
    8.3359   -7.2168    2.4204 H   0  0  0  0  0  0  0  0  0  0  0  0
    7.2582   -3.6170    1.6794 H   0  0  0  0  0  0  0  0  0  0  0  0
    6.0843   -3.2477    0.4569 H   0  0  0  0  0  0  0  0  0  0  0  0
    7.1266   -4.5670    0.2190 H   0  0  0  0  0  0  0  0  0  0  0  0
    5.0733   -3.5077    4.6441 H   0  0  0  0  0  0  0  0  0  0  0  0
    6.0709   -2.9014    3.3509 H   0  0  0  0  0  0  0  0  0  0  0  0
    2.3592   -2.5610    3.3466 H   0  0  0  0  0  0  0  0  0  0  0  0
    3.3266   -0.9455    1.2710 H   0  0  0  0  0  0  0  0  0  0  0  0
    4.2029   -2.8261    0.9421 H   0  0  0  0  0  0  0  0  0  0  0  0
    3.6785   -6.2336    3.2454 H   0  0  0  0  0  0  0  0  0  0  0  0
    3.7279   -5.1199    5.1220 H   0  0  0  0  0  0  0  0  0  0  0  0
  1  2  1  0
  1 27  1  0
  1 28  1  0
  1 29  1  0
  2 25  1  0
  2  3  1  0
  2 30  1  1
  3 24  1  0
  3  4  1  0
  3 31  1  6
  4  5  1  0
  4 32  1  0
  4 33  1  0
  5 17  1  0
  5  6  1  0
  5 34  1  6
  6  7  1  0
  7 15  1  0
  7  8  1  0
  7 35  1  6
  8  9  1  0
  8 10  1  0
  8 11  1  0
  9 36  1  0
  9 37  1  0
  9 38  1  0
 10 39  1  0
 10 40  1  0
 10 41  1  0
 11 12  1  0
 11 13  1  0
 11 42  1  6
 12 43  1  0
 13 14  1  0
 13 44  1  0
 13 45  1  0
 14 15  1  0
 14 46  1  0
 14 47  1  0
 15 16  1  6
 15 17  1  0
 16 48  1  0
 16 49  1  0
 16 50  1  0
 17 18  1  6
 17 19  1  0
 18 51  1  0
 18 52  1  0
 18 53  1  0
 19 24  1  0
 19 20  1  1
 19 25  1  0
 20 21  1  0
 20 54  1  0
 20 55  1  0
 21 22  1  0
 22 23  1  0
 22 24  1  0
 22 56  1  1
 23 57  1  0
 24 58  1  6
 25 26  1  0
 25 59  1  1
 26 60  1  0
M  END
>  <i_m_ct_stereo_status>  (142) 
1

>  <s_m_source_file>  (142) 
/var/tmp/pbs.5076255.sched01/tmpx9mnojvb/44r91_cmns.sdf

>  <i_m_source_file_index>  (142) 
26

>  <i_lp_mmshare_version>  (142) 
48012

>  <i_f3d_flags>  (142) 
0

>  <s_epik_input>  (142) 
W0NIMl0xT1tDQEBIXShbT0hdKVtDQEBIXTJbQ0BIXShbQ0BASF0oW0NIM10pW0NAQEhdM1tPSF0pW0NIMl1bQ0BASF0oW0NAXTQoW0NAQF0xMjMpW0NIM10pT1tDQEhdNVtDQF00KFtDSDNdKVtDSDJdW0NIMl1bQ0BIXShbT0hdKUM1KFtDSDNdKVtDSDNd

>  <s_epik_cmdline>  (142) 
J2VwaWtfcHl0aG9uJywgJy1waHQnLCAnMi4wJywgJy1waCcsICc3LjAnLCAnLXRuJywgJzgnLCAnLW1hJywgJzIwMCcsICctaW1hZScsICc8aW5maWxlLm1hZT4nLCAnLW9tYWUnLCAnPG91dGZpbGUubWFlPic=

>  <r_lp_tautomer_probability>  (142) 
1

>  <r_epik_Ionization_Penalty>  (142) 
8.5274e-07

>  <r_epik_Ionization_Penalty_Charging>  (142) 
0

>  <r_epik_Ionization_Penalty_Neutral>  (142) 
8.5274e-07

>  <r_epik_State_Penalty>  (142) 
-0

>  <r_epik_Charging_Adjusted_Penalty>  (142) 
0

>  <i_epik_Tot_Q>  (142) 
0

>  <i_epik_Tot_abs_Q>  (142) 
0

>  <s_epik_Chemistry_Notes>  (142) 
This compound contains an acetal/aminal-like group ( X-CH(R)-Y where X, Y are N, S, or O) that may be acid/base labile, releasing an aldehyde.

>  <s_lp_Force_Field>  (142) 
OPLS3e

>  <r_lp_Energy>  (142) 
65.9121

>  <b_lp_Chiralities_Consistent>  (142) 
1

>  <s_lp_Variant>  (142) 
37:0-1

>  <s_i_glide_gridfile>  (142) 
pfpi4k_grid

>  <i_i_glide_lignum>  (142) 
26

>  <i_i_glide_rotatable_bonds>  (142) 
3

>  <r_i_docking_score>  (142) 
-2.32202

>  <r_i_glide_ligand_efficiency>  (142) 
-0.0893085

>  <r_i_glide_ligand_efficiency_sa>  (142) 
-0.264576

>  <r_i_glide_ligand_efficiency_ln>  (142) 
-0.545319

>  <r_i_glide_gscore>  (142) 
-2.32202

>  <r_i_glide_lipo>  (142) 
-0.384216

>  <r_i_glide_hbond>  (142) 
0

>  <r_i_glide_metal>  (142) 
-0

>  <r_i_glide_rewards>  (142) 
-0.910284

>  <r_i_glide_evdw>  (142) 
-19.8693

>  <r_i_glide_ecoul>  (142) 
-0.225272

>  <r_i_glide_erotb>  (142) 
0

>  <r_i_glide_esite>  (142) 
-0.000266323

>  <r_i_glide_emodel>  (142) 
-23.4413

>  <r_i_glide_energy>  (142) 
-20.0945

>  <r_i_glide_einternal>  (142) 
0.788222

>  <r_i_glide_intrahb_reward>  (142) 
-0

>  <i_i_glide_confnum>  (142) 
2

>  <i_i_glide_posenum>  (142) 
38

>  <r_i_glide_eff_state_penalty>  (142) 
0

>  <ligand_id>  (142) 
37

>  <original_smiles>  (142) 
CC1C2CC3OC4C(C)(C)C(O)CCC4(C)C3(C)C3(COC(O)C23)C1O

>  <smiles>  (142) 
[H]OC1([H])OC([H])([H])C23C([H])(O[H])C([H])(C([H])([H])[H])C([H])(C([H])([H])C4([H])OC5([H])C(C([H])([H])[H])(C([H])([H])[H])C([H])(O[H])C([H])([H])C([H])([H])C5(C([H])([H])[H])C42C([H])([H])[H])C13[H]

$$$$
38:0:0
     RDKit          3D

 72 75  0  0  1  0  0  0  0  0999 V2000
    2.5492   -0.0472    4.1478 C   0  0  0  0  0  0  0  0  0  0  0  0
    2.1453   -0.3329    2.7082 C   0  0  0  0  0  0  0  0  0  0  0  0
    1.1595    0.6742    2.1450 C   0  0  0  0  0  0  0  0  0  0  0  0
    2.5911   -1.3632    1.9626 C   0  0  0  0  0  0  0  0  0  0  0  0
    3.5388   -2.3888    2.3761 C   0  0  0  0  0  0  0  0  0  0  0  0
    3.9160   -3.3914    1.5662 C   0  0  0  0  0  0  0  0  0  0  0  0
    4.8926   -4.4952    1.9567 C   0  0  2  0  0  0  0  0  0  0  0  0
    6.2481   -4.2420    1.2629 C   0  0  0  0  0  0  0  0  0  0  0  0
    4.3165   -5.9557    1.7817 C   0  0  1  0  0  0  0  0  0  0  0  0
    4.1021   -6.2489    0.2689 C   0  0  0  0  0  0  0  0  0  0  0  0
    5.3159   -7.0127    2.3284 C   0  0  0  0  0  0  0  0  0  0  0  0
    5.7705   -6.7591    3.7790 C   0  0  0  0  0  0  0  0  0  0  0  0
    4.6162   -6.4321    4.7499 C   0  0  2  0  0  0  0  0  0  0  0  0
    5.1399   -5.3888    5.7470 C   0  0  0  0  0  0  0  0  0  0  0  0
    3.9842   -7.6481    5.4311 C   0  0  0  0  0  0  0  0  0  0  0  0
    2.5617   -7.2022    5.0577 C   0  0  2  0  0  0  0  0  0  0  0  0
    1.7292   -6.6064    6.2061 C   0  0  0  0  0  0  0  0  0  0  0  0
    1.3702   -7.6256    7.3040 C   0  0  0  0  0  0  0  0  0  0  0  0
    1.3394   -9.0799    6.7989 C   0  0  1  0  0  0  0  0  0  0  0  0
    0.5973   -9.8532    7.7262 O   0  0  0  0  0  0  0  0  0  0  0  0
    0.8276   -9.1953    5.3317 C   0  0  0  0  0  0  0  0  0  0  0  0
    0.9542  -10.6719    4.8924 C   0  0  0  0  0  0  0  0  0  0  0  0
   -0.6559   -8.7685    5.2599 C   0  0  0  0  0  0  0  0  0  0  0  0
    1.7212   -8.3105    4.3759 C   0  0  1  0  0  0  0  0  0  0  0  0
    1.0225   -7.7589    3.1151 C   0  0  0  0  0  0  0  0  0  0  0  0
    2.0689   -7.2858    2.0968 C   0  0  0  0  0  0  0  0  0  0  0  0
    2.9853   -6.1317    2.5997 C   0  0  1  0  0  0  0  0  0  0  0  0
    3.2219   -6.1466    4.1346 C   0  0  2  0  0  0  0  0  0  0  0  0
    3.0173    0.9348    4.2107 H   0  0  0  0  0  0  0  0  0  0  0  0
    3.2426   -0.7722    4.5666 H   0  0  0  0  0  0  0  0  0  0  0  0
    1.6631   -0.0332    4.7834 H   0  0  0  0  0  0  0  0  0  0  0  0
    0.2448    0.6856    2.7376 H   0  0  0  0  0  0  0  0  0  0  0  0
    0.8854    0.4502    1.1151 H   0  0  0  0  0  0  0  0  0  0  0  0
    1.5851    1.6767    2.1591 H   0  0  0  0  0  0  0  0  0  0  0  0
    2.2143   -1.4371    0.9510 H   0  0  0  0  0  0  0  0  0  0  0  0
    3.9640   -2.3622    3.3684 H   0  0  0  0  0  0  0  0  0  0  0  0
    3.5109   -3.4493    0.5645 H   0  0  0  0  0  0  0  0  0  0  0  0
    5.0764   -4.3388    3.0157 H   0  0  0  0  0  0  0  0  0  0  0  0
    6.6382   -3.2657    1.5558 H   0  0  0  0  0  0  0  0  0  0  0  0
    6.1636   -4.2369    0.1746 H   0  0  0  0  0  0  0  0  0  0  0  0
    7.0066   -4.9753    1.5410 H   0  0  0  0  0  0  0  0  0  0  0  0
    3.8372   -7.2929    0.0996 H   0  0  0  0  0  0  0  0  0  0  0  0
    5.0111   -6.0889   -0.3094 H   0  0  0  0  0  0  0  0  0  0  0  0
    3.3162   -5.6323   -0.1636 H   0  0  0  0  0  0  0  0  0  0  0  0
    4.8532   -8.0036    2.2932 H   0  0  0  0  0  0  0  0  0  0  0  0
    6.1908   -7.0954    1.6862 H   0  0  0  0  0  0  0  0  0  0  0  0
    6.3263   -7.6281    4.1374 H   0  0  0  0  0  0  0  0  0  0  0  0
    6.5050   -5.9504    3.7657 H   0  0  0  0  0  0  0  0  0  0  0  0
    4.3988   -5.1561    6.5105 H   0  0  0  0  0  0  0  0  0  0  0  0
    5.3997   -4.4427    5.2703 H   0  0  0  0  0  0  0  0  0  0  0  0
    6.0226   -5.7445    6.2765 H   0  0  0  0  0  0  0  0  0  0  0  0
    4.2926   -8.5881    4.9638 H   0  0  0  0  0  0  0  0  0  0  0  0
    4.1652   -7.6827    6.5077 H   0  0  0  0  0  0  0  0  0  0  0  0
    2.2547   -5.7714    6.6724 H   0  0  0  0  0  0  0  0  0  0  0  0
    0.8187   -6.1638    5.8011 H   0  0  0  0  0  0  0  0  0  0  0  0
    2.1019   -7.5576    8.1109 H   0  0  0  0  0  0  0  0  0  0  0  0
    0.4152   -7.3343    7.7412 H   0  0  0  0  0  0  0  0  0  0  0  0
    2.3587   -9.4631    6.8336 H   0  0  0  0  0  0  0  0  0  0  0  0
    0.8685  -10.7867    7.6634 H   0  0  0  0  0  0  0  0  0  0  0  0
    0.6806  -10.8111    3.8438 H   0  0  0  0  0  0  0  0  0  0  0  0
    0.3147  -11.3250    5.4870 H   0  0  0  0  0  0  0  0  0  0  0  0
    1.9810  -11.0318    5.0141 H   0  0  0  0  0  0  0  0  0  0  0  0
   -1.0929   -8.9935    4.2867 H   0  0  0  0  0  0  0  0  0  0  0  0
   -0.7929   -7.7049    5.4460 H   0  0  0  0  0  0  0  0  0  0  0  0
   -1.2373   -9.3110    6.0054 H   0  0  0  0  0  0  0  0  0  0  0  0
    2.4361   -9.0147    3.9589 H   0  0  0  0  0  0  0  0  0  0  0  0
    0.4154   -8.5368    2.6507 H   0  0  0  0  0  0  0  0  0  0  0  0
    0.3441   -6.9357    3.3706 H   0  0  0  0  0  0  0  0  0  0  0  0
    2.6588   -8.1511    1.8054 H   0  0  0  0  0  0  0  0  0  0  0  0
    1.5401   -6.9617    1.1953 H   0  0  0  0  0  0  0  0  0  0  0  0
    2.3726   -5.2620    2.3988 H   0  0  0  0  0  0  0  0  0  0  0  0
    2.9295   -5.1635    4.5097 H   0  0  0  0  0  0  0  0  0  0  0  0
  1  2  1  0
  1 29  1  0
  1 30  1  0
  1 31  1  0
  2  3  1  0
  2  4  2  3
  3 32  1  0
  3 33  1  0
  3 34  1  0
  4  5  1  0
  4 35  1  0
  5  6  2  3
  5 36  1  0
  6  7  1  0
  6 37  1  0
  7  8  1  0
  7  9  1  0
  7 38  1  1
  8 39  1  0
  8 40  1  0
  8 41  1  0
  9 27  1  0
  9 10  1  6
  9 11  1  0
 10 42  1  0
 10 43  1  0
 10 44  1  0
 11 12  1  0
 11 45  1  0
 11 46  1  0
 12 13  1  0
 12 47  1  0
 12 48  1  0
 13 28  1  0
 13 14  1  1
 13 15  1  0
 14 49  1  0
 14 50  1  0
 14 51  1  0
 16 15  1  1
 15 52  1  0
 15 53  1  0
 16 24  1  0
 16 28  1  0
 16 17  1  0
 17 18  1  0
 17 54  1  0
 17 55  1  0
 18 19  1  0
 18 56  1  0
 18 57  1  0
 19 20  1  0
 19 21  1  0
 19 58  1  6
 20 59  1  0
 21 22  1  0
 21 23  1  0
 21 24  1  0
 22 60  1  0
 22 61  1  0
 22 62  1  0
 23 63  1  0
 23 64  1  0
 23 65  1  0
 24 25  1  0
 24 66  1  6
 25 26  1  0
 25 67  1  0
 25 68  1  0
 26 27  1  0
 26 69  1  0
 26 70  1  0
 27 28  1  0
 27 71  1  1
 28 72  1  1
M  END
>  <i_m_ct_stereo_status>  (143) 
1

>  <s_m_source_file>  (143) 
/var/tmp/pbs.5076255.sched01/tmpx9mnojvb/44r91_cmns.sdf

>  <i_m_source_file_index>  (143) 
27

>  <i_lp_mmshare_version>  (143) 
48012

>  <i_f3d_flags>  (143) 
0

>  <s_epik_input>  (143) 
W0NIM11DKFtDSDNdKT1bQ0hdL1tDSF09W0NIXS9bQ0BIXShbQ0gzXSlbQ0BAXTEoW0NIM10pW0NIMl1bQ0gyXVtDQF0oW0NIM10pKFtDSDJdMilbQ0BIXTNbQ0BASF0xW0NIMl1bQ0gyXVtDQEBIXShbQ0BAXTIzNClDKFtDSDNdKShbQ0gzXSlbQ0BIXShbT0hdKVtDSDJdW0NIMl00

>  <s_epik_cmdline>  (143) 
J2VwaWtfcHl0aG9uJywgJy1waHQnLCAnMi4wJywgJy1waCcsICc3LjAnLCAnLXRuJywgJzgnLCAnLW1hJywgJzIwMCcsICctaW1hZScsICc8aW5maWxlLm1hZT4nLCAnLW9tYWUnLCAnPG91dGZpbGUubWFlPic=

>  <r_lp_tautomer_probability>  (143) 
1

>  <r_epik_Ionization_Penalty>  (143) 
3.34435e-06

>  <r_epik_Ionization_Penalty_Charging>  (143) 
0

>  <r_epik_Ionization_Penalty_Neutral>  (143) 
3.34435e-06

>  <r_epik_State_Penalty>  (143) 
-0

>  <r_epik_Charging_Adjusted_Penalty>  (143) 
0

>  <i_epik_Tot_Q>  (143) 
0

>  <i_epik_Tot_abs_Q>  (143) 
0

>  <s_lp_Force_Field>  (143) 
OPLS3e

>  <r_lp_Energy>  (143) 
65.7849

>  <b_lp_Chiralities_Consistent>  (143) 
1

>  <s_lp_Variant>  (143) 
38:0-1

>  <s_i_glide_gridfile>  (143) 
pfpi4k_grid

>  <i_i_glide_lignum>  (143) 
27

>  <i_i_glide_rotatable_bonds>  (143) 
4

>  <r_i_docking_score>  (143) 
-2.49627

>  <r_i_glide_ligand_efficiency>  (143) 
-0.0891524

>  <r_i_glide_ligand_efficiency_sa>  (143) 
-0.270719

>  <r_i_glide_ligand_efficiency_ln>  (143) 
-0.576212

>  <r_i_glide_gscore>  (143) 
-2.49627

>  <r_i_glide_lipo>  (143) 
-0.259425

>  <r_i_glide_hbond>  (143) 
-0.16

>  <r_i_glide_metal>  (143) 
-0

>  <r_i_glide_rewards>  (143) 
-0.786561

>  <r_i_glide_evdw>  (143) 
-14.7083

>  <r_i_glide_ecoul>  (143) 
-6.32773

>  <r_i_glide_erotb>  (143) 
0.394292

>  <r_i_glide_esite>  (143) 
0

>  <r_i_glide_emodel>  (143) 
-24.3723

>  <r_i_glide_energy>  (143) 
-21.036

>  <r_i_glide_einternal>  (143) 
0.881497

>  <r_i_glide_intrahb_reward>  (143) 
-0

>  <i_i_glide_confnum>  (143) 
1

>  <i_i_glide_posenum>  (143) 
1

>  <r_i_glide_eff_state_penalty>  (143) 
0

>  <ligand_id>  (143) 
38

>  <original_smiles>  (143) 
CC(C)=CC=CC(C)C1(C)CCC2(C)CC34CCC(O)C(C)(C)C3CCC1C24

>  <smiles>  (143) 
[H]OC1([H])C([H])([H])C([H])([H])C23C([H])([H])C4(C([H])([H])[H])C([H])([H])C([H])([H])C(C([H])([H])[H])(C([H])(C([H])=C([H])C([H])=C(C([H])([H])[H])C([H])([H])[H])C([H])([H])[H])C([H])(C([H])([H])C([H])([H])C2([H])C1(C([H])([H])[H])C([H])([H])[H])C43[H]

$$$$
38:0:1
     RDKit          3D

 72 75  0  0  1  0  0  0  0  0999 V2000
    0.1664    0.3052    4.4332 C   0  0  0  0  0  0  0  0  0  0  0  0
    0.2629    0.5010    2.9304 C   0  0  0  0  0  0  0  0  0  0  0  0
   -0.7714    1.4547    2.3677 C   0  0  0  0  0  0  0  0  0  0  0  0
    1.1699   -0.0933    2.1226 C   0  0  0  0  0  0  0  0  0  0  0  0
    2.2145   -1.0216    2.5211 C   0  0  0  0  0  0  0  0  0  0  0  0
    3.0327   -1.6090    1.6345 C   0  0  0  0  0  0  0  0  0  0  0  0
    4.1453   -2.5947    1.9954 C   0  0  2  0  0  0  0  0  0  0  0  0
    5.5119   -1.9060    1.7739 C   0  0  0  0  0  0  0  0  0  0  0  0
    3.9862   -4.0170    1.3391 C   0  0  1  0  0  0  0  0  0  0  0  0
    4.0535   -3.8714   -0.2107 C   0  0  0  0  0  0  0  0  0  0  0  0
    5.1436   -4.9589    1.7794 C   0  0  0  0  0  0  0  0  0  0  0  0
    5.3117   -5.0633    3.3103 C   0  0  0  0  0  0  0  0  0  0  0  0
    4.0036   -5.2907    4.0698 C   0  0  2  0  0  0  0  0  0  0  0  0
    4.1083   -4.5124    5.3927 C   0  0  0  0  0  0  0  0  0  0  0  0
    3.6126   -6.7541    4.2690 C   0  0  0  0  0  0  0  0  0  0  0  0
    2.1867   -6.5218    3.7476 C   0  0  2  0  0  0  0  0  0  0  0  0
    1.0883   -6.4826    4.8250 C   0  0  0  0  0  0  0  0  0  0  0  0
    0.8552   -7.8354    5.5217 C   0  0  0  0  0  0  0  0  0  0  0  0
    1.2483   -9.0345    4.6512 C   0  0  1  0  0  0  0  0  0  0  0  0
    0.6221  -10.1972    5.1472 O   0  0  0  0  0  0  0  0  0  0  0  0
    0.9872   -8.8071    3.1411 C   0  0  0  0  0  0  0  0  0  0  0  0
    1.5567  -10.0207    2.3690 C   0  0  0  0  0  0  0  0  0  0  0  0
   -0.5366   -8.7255    2.8701 C   0  0  0  0  0  0  0  0  0  0  0  0
    1.7439   -7.5117    2.6540 C   0  0  1  0  0  0  0  0  0  0  0  0
    1.1081   -6.7704    1.4615 C   0  0  0  0  0  0  0  0  0  0  0  0
    2.1293   -5.8011    0.8423 C   0  0  0  0  0  0  0  0  0  0  0  0
    2.6423   -4.6892    1.7923 C   0  0  1  0  0  0  0  0  0  0  0  0
    2.6789   -5.1257    3.2825 C   0  0  2  0  0  0  0  0  0  0  0  0
    0.3055    1.2618    4.9379 H   0  0  0  0  0  0  0  0  0  0  0  0
    0.8983   -0.3909    4.8356 H   0  0  0  0  0  0  0  0  0  0  0  0
   -0.8246   -0.0667    4.6919 H   0  0  0  0  0  0  0  0  0  0  0  0
   -1.7788    1.0966    2.5778 H   0  0  0  0  0  0  0  0  0  0  0  0
   -0.6672    1.5643    1.2880 H   0  0  0  0  0  0  0  0  0  0  0  0
   -0.6636    2.4439    2.8128 H   0  0  0  0  0  0  0  0  0  0  0  0
    1.1186    0.1509    1.0716 H   0  0  0  0  0  0  0  0  0  0  0  0
    2.3557   -1.2563    3.5667 H   0  0  0  0  0  0  0  0  0  0  0  0
    2.9136   -1.3872    0.5812 H   0  0  0  0  0  0  0  0  0  0  0  0
    4.0611   -2.7195    3.0730 H   0  0  0  0  0  0  0  0  0  0  0  0
    5.5863   -1.0038    2.3831 H   0  0  0  0  0  0  0  0  0  0  0  0
    5.6624   -1.6075    0.7360 H   0  0  0  0  0  0  0  0  0  0  0  0
    6.3521   -2.5370    2.0653 H   0  0  0  0  0  0  0  0  0  0  0  0
    4.0865   -4.8387   -0.7096 H   0  0  0  0  0  0  0  0  0  0  0  0
    4.9580   -3.3515   -0.5289 H   0  0  0  0  0  0  0  0  0  0  0  0
    3.1973   -3.3284   -0.6162 H   0  0  0  0  0  0  0  0  0  0  0  0
    4.9514   -5.9566    1.3915 H   0  0  0  0  0  0  0  0  0  0  0  0
    6.0850   -4.6604    1.3175 H   0  0  0  0  0  0  0  0  0  0  0  0
    6.0242   -5.8637    3.5216 H   0  0  0  0  0  0  0  0  0  0  0  0
    5.8122   -4.1593    3.6522 H   0  0  0  0  0  0  0  0  0  0  0  0
    3.2432   -4.6796    6.0251 H   0  0  0  0  0  0  0  0  0  0  0  0
    4.1804   -3.4366    5.2423 H   0  0  0  0  0  0  0  0  0  0  0  0
    4.9766   -4.8241    5.9738 H   0  0  0  0  0  0  0  0  0  0  0  0
    4.2115   -7.4244    3.6422 H   0  0  0  0  0  0  0  0  0  0  0  0
    3.6565   -7.0758    5.3072 H   0  0  0  0  0  0  0  0  0  0  0  0
    1.3193   -5.7439    5.5870 H   0  0  0  0  0  0  0  0  0  0  0  0
    0.1554   -6.1370    4.3789 H   0  0  0  0  0  0  0  0  0  0  0  0
    1.4377   -7.8742    6.4432 H   0  0  0  0  0  0  0  0  0  0  0  0
   -0.1889   -7.8916    5.8267 H   0  0  0  0  0  0  0  0  0  0  0  0
    2.3199   -9.1957    4.7830 H   0  0  0  0  0  0  0  0  0  0  0  0
   -0.3278  -10.1769    4.9877 H   0  0  0  0  0  0  0  0  0  0  0  0
    1.4870   -9.8738    1.2911 H   0  0  0  0  0  0  0  0  0  0  0  0
    1.0357  -10.9466    2.6222 H   0  0  0  0  0  0  0  0  0  0  0  0
    2.6134  -10.1821    2.5959 H   0  0  0  0  0  0  0  0  0  0  0  0
   -0.7598   -8.6904    1.8030 H   0  0  0  0  0  0  0  0  0  0  0  0
   -0.9777   -7.8418    3.3286 H   0  0  0  0  0  0  0  0  0  0  0  0
   -1.0647   -9.5963    3.2616 H   0  0  0  0  0  0  0  0  0  0  0  0
    2.6645   -7.9011    2.2154 H   0  0  0  0  0  0  0  0  0  0  0  0
    0.7878   -7.4794    0.6954 H   0  0  0  0  0  0  0  0  0  0  0  0
    0.2208   -6.2239    1.7889 H   0  0  0  0  0  0  0  0  0  0  0  0
    2.9594   -6.3959    0.4572 H   0  0  0  0  0  0  0  0  0  0  0  0
    1.6715   -5.3419   -0.0376 H   0  0  0  0  0  0  0  0  0  0  0  0
    1.8686   -3.9239    1.7148 H   0  0  0  0  0  0  0  0  0  0  0  0
    2.1066   -4.3993    3.8441 H   0  0  0  0  0  0  0  0  0  0  0  0
  1  2  1  0
  1 29  1  0
  1 30  1  0
  1 31  1  0
  2  3  1  0
  2  4  2  3
  3 32  1  0
  3 33  1  0
  3 34  1  0
  4  5  1  0
  4 35  1  0
  5  6  2  3
  5 36  1  0
  6  7  1  0
  6 37  1  0
  7  8  1  0
  7  9  1  0
  7 38  1  1
  8 39  1  0
  8 40  1  0
  8 41  1  0
  9 27  1  0
  9 10  1  6
  9 11  1  0
 10 42  1  0
 10 43  1  0
 10 44  1  0
 11 12  1  0
 11 45  1  0
 11 46  1  0
 12 13  1  0
 12 47  1  0
 12 48  1  0
 13 28  1  0
 13 14  1  1
 13 15  1  0
 14 49  1  0
 14 50  1  0
 14 51  1  0
 16 15  1  1
 15 52  1  0
 15 53  1  0
 16 24  1  0
 16 28  1  0
 16 17  1  0
 17 18  1  0
 17 54  1  0
 17 55  1  0
 18 19  1  0
 18 56  1  0
 18 57  1  0
 19 20  1  0
 19 21  1  0
 19 58  1  6
 20 59  1  0
 21 22  1  0
 21 23  1  0
 21 24  1  0
 22 60  1  0
 22 61  1  0
 22 62  1  0
 23 63  1  0
 23 64  1  0
 23 65  1  0
 24 25  1  0
 24 66  1  6
 25 26  1  0
 25 67  1  0
 25 68  1  0
 26 27  1  0
 26 69  1  0
 26 70  1  0
 27 28  1  0
 27 71  1  1
 28 72  1  1
M  END
>  <i_m_ct_stereo_status>  (144) 
1

>  <s_m_source_file>  (144) 
/var/tmp/pbs.5076255.sched01/tmpx9mnojvb/44r91_cmns.sdf

>  <i_m_source_file_index>  (144) 
27

>  <i_lp_mmshare_version>  (144) 
48012

>  <i_f3d_flags>  (144) 
0

>  <s_epik_input>  (144) 
W0NIM11DKFtDSDNdKT1bQ0hdL1tDSF09W0NIXS9bQ0BIXShbQ0gzXSlbQ0BAXTEoW0NIM10pW0NIMl1bQ0gyXVtDQF0oW0NIM10pKFtDSDJdMilbQ0BIXTNbQ0BASF0xW0NIMl1bQ0gyXVtDQEBIXShbQ0BAXTIzNClDKFtDSDNdKShbQ0gzXSlbQ0BIXShbT0hdKVtDSDJdW0NIMl00

>  <s_epik_cmdline>  (144) 
J2VwaWtfcHl0aG9uJywgJy1waHQnLCAnMi4wJywgJy1waCcsICc3LjAnLCAnLXRuJywgJzgnLCAnLW1hJywgJzIwMCcsICctaW1hZScsICc8aW5maWxlLm1hZT4nLCAnLW9tYWUnLCAnPG91dGZpbGUubWFlPic=

>  <r_lp_tautomer_probability>  (144) 
1

>  <r_epik_Ionization_Penalty>  (144) 
3.34435e-06

>  <r_epik_Ionization_Penalty_Charging>  (144) 
0

>  <r_epik_Ionization_Penalty_Neutral>  (144) 
3.34435e-06

>  <r_epik_State_Penalty>  (144) 
-0

>  <r_epik_Charging_Adjusted_Penalty>  (144) 
0

>  <i_epik_Tot_Q>  (144) 
0

>  <i_epik_Tot_abs_Q>  (144) 
0

>  <s_lp_Force_Field>  (144) 
OPLS3e

>  <r_lp_Energy>  (144) 
65.7849

>  <b_lp_Chiralities_Consistent>  (144) 
1

>  <s_lp_Variant>  (144) 
38:0-1

>  <s_i_glide_gridfile>  (144) 
pfpi4k_grid

>  <i_i_glide_lignum>  (144) 
27

>  <i_i_glide_rotatable_bonds>  (144) 
4

>  <r_i_docking_score>  (144) 
-2.10257

>  <r_i_glide_ligand_efficiency>  (144) 
-0.0750919

>  <r_i_glide_ligand_efficiency_sa>  (144) 
-0.228023

>  <r_i_glide_ligand_efficiency_ln>  (144) 
-0.485336

>  <r_i_glide_gscore>  (144) 
-2.10257

>  <r_i_glide_lipo>  (144) 
-0.27082

>  <r_i_glide_hbond>  (144) 
-0.148193

>  <r_i_glide_metal>  (144) 
-0

>  <r_i_glide_rewards>  (144) 
-0.786561

>  <r_i_glide_evdw>  (144) 
-21.0063

>  <r_i_glide_ecoul>  (144) 
-1.60652

>  <r_i_glide_erotb>  (144) 
0.394292

>  <r_i_glide_esite>  (144) 
0

>  <r_i_glide_emodel>  (144) 
-25.7143

>  <r_i_glide_energy>  (144) 
-22.6128

>  <r_i_glide_einternal>  (144) 
0.142005

>  <r_i_glide_intrahb_reward>  (144) 
-0

>  <i_i_glide_confnum>  (144) 
1

>  <i_i_glide_posenum>  (144) 
21

>  <r_i_glide_eff_state_penalty>  (144) 
0

>  <ligand_id>  (144) 
38

>  <original_smiles>  (144) 
CC(C)=CC=CC(C)C1(C)CCC2(C)CC34CCC(O)C(C)(C)C3CCC1C24

>  <smiles>  (144) 
[H]OC1([H])C([H])([H])C([H])([H])C23C([H])([H])C4(C([H])([H])[H])C([H])([H])C([H])([H])C(C([H])([H])[H])(C([H])(C([H])=C([H])C([H])=C(C([H])([H])[H])C([H])([H])[H])C([H])([H])[H])C([H])(C([H])([H])C([H])([H])C2([H])C1(C([H])([H])[H])C([H])([H])[H])C43[H]

$$$$
38:0:2
     RDKit          3D

 72 75  0  0  1  0  0  0  0  0999 V2000
    0.4005    0.7704    4.6914 C   0  0  0  0  0  0  0  0  0  0  0  0
    0.2245    0.7245    3.1834 C   0  0  0  0  0  0  0  0  0  0  0  0
   -0.9095    1.5916    2.6753 C   0  0  0  0  0  0  0  0  0  0  0  0
    0.9860    0.0083    2.3276 C   0  0  0  0  0  0  0  0  0  0  0  0
    2.1021   -0.8568    2.6755 C   0  0  0  0  0  0  0  0  0  0  0  0
    2.8456   -1.4796    1.7458 C   0  0  0  0  0  0  0  0  0  0  0  0
    4.0234   -2.4040    2.0518 C   0  0  2  0  0  0  0  0  0  0  0  0
    5.3386   -1.6253    1.8173 C   0  0  0  0  0  0  0  0  0  0  0  0
    3.9388   -3.8139    1.3547 C   0  0  1  0  0  0  0  0  0  0  0  0
    3.9663   -3.6245   -0.1911 C   0  0  0  0  0  0  0  0  0  0  0  0
    5.1585   -4.6978    1.7453 C   0  0  0  0  0  0  0  0  0  0  0  0
    5.3670   -4.8339    3.2676 C   0  0  0  0  0  0  0  0  0  0  0  0
    4.0901   -5.1636    4.0476 C   0  0  2  0  0  0  0  0  0  0  0  0
    4.1730   -4.4187    5.3907 C   0  0  0  0  0  0  0  0  0  0  0  0
    3.7947   -6.6541    4.2094 C   0  0  0  0  0  0  0  0  0  0  0  0
    2.3462   -6.4927    3.7229 C   0  0  2  0  0  0  0  0  0  0  0  0
    1.2706   -6.5514    4.8214 C   0  0  0  0  0  0  0  0  0  0  0  0
    1.1420   -7.9341    5.4849 C   0  0  0  0  0  0  0  0  0  0  0  0
    1.6033   -9.0804    4.5739 C   0  0  1  0  0  0  0  0  0  0  0  0
    1.0303  -10.2862    5.0411 O   0  0  0  0  0  0  0  0  0  0  0  0
    1.2816   -8.8292    3.0725 C   0  0  0  0  0  0  0  0  0  0  0  0
    1.9065   -9.9839    2.2508 C   0  0  0  0  0  0  0  0  0  0  0  0
   -0.2530   -8.8340    2.8367 C   0  0  0  0  0  0  0  0  0  0  0  0
    1.9438   -7.4767    2.6045 C   0  0  1  0  0  0  0  0  0  0  0  0
    1.2369   -6.7412    1.4506 C   0  0  0  0  0  0  0  0  0  0  0  0
    2.1829   -5.6964    0.8375 C   0  0  0  0  0  0  0  0  0  0  0  0
    2.6507   -4.5850    1.8143 C   0  0  1  0  0  0  0  0  0  0  0  0
    2.7394   -5.0550    3.2925 C   0  0  2  0  0  0  0  0  0  0  0  0
    0.6102    1.7938    5.0044 H   0  0  0  0  0  0  0  0  0  0  0  0
    1.2071    0.1419    5.0622 H   0  0  0  0  0  0  0  0  0  0  0  0
   -0.5205    0.4559    5.1812 H   0  0  0  0  0  0  0  0  0  0  0  0
   -1.8510    1.2865    3.1259 H   0  0  0  0  0  0  0  0  0  0  0  0
   -1.0107    1.5241    1.5931 H   0  0  0  0  0  0  0  0  0  0  0  0
   -0.7364    2.6371    2.9301 H   0  0  0  0  0  0  0  0  0  0  0  0
    0.7440    0.0845    1.2783 H   0  0  0  0  0  0  0  0  0  0  0  0
    2.3563   -1.0187    3.7120 H   0  0  0  0  0  0  0  0  0  0  0  0
    2.6150   -1.3288    0.7000 H   0  0  0  0  0  0  0  0  0  0  0  0
    3.9749   -2.5641    3.1265 H   0  0  0  0  0  0  0  0  0  0  0  0
    5.3699   -0.7379    2.4517 H   0  0  0  0  0  0  0  0  0  0  0  0
    5.4425   -1.2864    0.7856 H   0  0  0  0  0  0  0  0  0  0  0  0
    6.2241   -2.2094    2.0705 H   0  0  0  0  0  0  0  0  0  0  0  0
    4.0478   -4.5739   -0.7191 H   0  0  0  0  0  0  0  0  0  0  0  0
    4.8301   -3.0398   -0.5093 H   0  0  0  0  0  0  0  0  0  0  0  0
    3.0707   -3.1251   -0.5665 H   0  0  0  0  0  0  0  0  0  0  0  0
    5.0218   -5.6945    1.3319 H   0  0  0  0  0  0  0  0  0  0  0  0
    6.0711   -4.3273    1.2776 H   0  0  0  0  0  0  0  0  0  0  0  0
    6.1305   -5.5947    3.4448 H   0  0  0  0  0  0  0  0  0  0  0  0
    5.8169   -3.9104    3.6287 H   0  0  0  0  0  0  0  0  0  0  0  0
    3.3322   -4.6568    6.0338 H   0  0  0  0  0  0  0  0  0  0  0  0
    4.1770   -3.3366    5.2705 H   0  0  0  0  0  0  0  0  0  0  0  0
    5.0707   -4.6926    5.9454 H   0  0  0  0  0  0  0  0  0  0  0  0
    4.4190   -7.2682    3.5520 H   0  0  0  0  0  0  0  0  0  0  0  0
    3.8782   -7.0017    5.2378 H   0  0  0  0  0  0  0  0  0  0  0  0
    1.4693   -5.8205    5.6007 H   0  0  0  0  0  0  0  0  0  0  0  0
    0.3076   -6.2564    4.4023 H   0  0  0  0  0  0  0  0  0  0  0  0
    1.7361   -7.9577    6.3991 H   0  0  0  0  0  0  0  0  0  0  0  0
    0.1057   -8.0703    5.7968 H   0  0  0  0  0  0  0  0  0  0  0  0
    2.6846   -9.1828    4.6751 H   0  0  0  0  0  0  0  0  0  0  0  0
    1.3790  -10.5140    5.8952 H   0  0  0  0  0  0  0  0  0  0  0  0
    1.8113   -9.8205    1.1778 H   0  0  0  0  0  0  0  0  0  0  0  0
    1.4433  -10.9436    2.4900 H   0  0  0  0  0  0  0  0  0  0  0  0
    2.9745  -10.0873    2.4532 H   0  0  0  0  0  0  0  0  0  0  0  0
   -0.5029   -8.7831    1.7769 H   0  0  0  0  0  0  0  0  0  0  0  0
   -0.7407   -7.9934    3.3278 H   0  0  0  0  0  0  0  0  0  0  0  0
   -0.7165   -9.7471    3.2156 H   0  0  0  0  0  0  0  0  0  0  0  0
    2.8770   -7.7965    2.1397 H   0  0  0  0  0  0  0  0  0  0  0  0
    0.9436   -7.4494    0.6722 H   0  0  0  0  0  0  0  0  0  0  0  0
    0.3243   -6.2595    1.8088 H   0  0  0  0  0  0  0  0  0  0  0  0
    3.0377   -6.2303    0.4182 H   0  0  0  0  0  0  0  0  0  0  0  0
    1.6816   -5.2404   -0.0185 H   0  0  0  0  0  0  0  0  0  0  0  0
    1.8294   -3.8673    1.7753 H   0  0  0  0  0  0  0  0  0  0  0  0
    2.1334   -4.3788    3.8832 H   0  0  0  0  0  0  0  0  0  0  0  0
  1  2  1  0
  1 29  1  0
  1 30  1  0
  1 31  1  0
  2  3  1  0
  2  4  2  3
  3 32  1  0
  3 33  1  0
  3 34  1  0
  4  5  1  0
  4 35  1  0
  5  6  2  3
  5 36  1  0
  6  7  1  0
  6 37  1  0
  7  8  1  0
  7  9  1  0
  7 38  1  1
  8 39  1  0
  8 40  1  0
  8 41  1  0
  9 27  1  0
  9 10  1  6
  9 11  1  0
 10 42  1  0
 10 43  1  0
 10 44  1  0
 11 12  1  0
 11 45  1  0
 11 46  1  0
 12 13  1  0
 12 47  1  0
 12 48  1  0
 13 28  1  0
 13 14  1  1
 13 15  1  0
 14 49  1  0
 14 50  1  0
 14 51  1  0
 16 15  1  1
 15 52  1  0
 15 53  1  0
 16 24  1  0
 16 28  1  0
 16 17  1  0
 17 18  1  0
 17 54  1  0
 17 55  1  0
 18 19  1  0
 18 56  1  0
 18 57  1  0
 19 20  1  0
 19 21  1  0
 19 58  1  6
 20 59  1  0
 21 22  1  0
 21 23  1  0
 21 24  1  0
 22 60  1  0
 22 61  1  0
 22 62  1  0
 23 63  1  0
 23 64  1  0
 23 65  1  0
 24 25  1  0
 24 66  1  6
 25 26  1  0
 25 67  1  0
 25 68  1  0
 26 27  1  0
 26 69  1  0
 26 70  1  0
 27 28  1  0
 27 71  1  1
 28 72  1  1
M  END
>  <i_m_ct_stereo_status>  (145) 
1

>  <s_m_source_file>  (145) 
/var/tmp/pbs.5076255.sched01/tmpx9mnojvb/44r91_cmns.sdf

>  <i_m_source_file_index>  (145) 
27

>  <i_lp_mmshare_version>  (145) 
48012

>  <i_f3d_flags>  (145) 
0

>  <s_epik_input>  (145) 
W0NIM11DKFtDSDNdKT1bQ0hdL1tDSF09W0NIXS9bQ0BIXShbQ0gzXSlbQ0BAXTEoW0NIM10pW0NIMl1bQ0gyXVtDQF0oW0NIM10pKFtDSDJdMilbQ0BIXTNbQ0BASF0xW0NIMl1bQ0gyXVtDQEBIXShbQ0BAXTIzNClDKFtDSDNdKShbQ0gzXSlbQ0BIXShbT0hdKVtDSDJdW0NIMl00

>  <s_epik_cmdline>  (145) 
J2VwaWtfcHl0aG9uJywgJy1waHQnLCAnMi4wJywgJy1waCcsICc3LjAnLCAnLXRuJywgJzgnLCAnLW1hJywgJzIwMCcsICctaW1hZScsICc8aW5maWxlLm1hZT4nLCAnLW9tYWUnLCAnPG91dGZpbGUubWFlPic=

>  <r_lp_tautomer_probability>  (145) 
1

>  <r_epik_Ionization_Penalty>  (145) 
3.34435e-06

>  <r_epik_Ionization_Penalty_Charging>  (145) 
0

>  <r_epik_Ionization_Penalty_Neutral>  (145) 
3.34435e-06

>  <r_epik_State_Penalty>  (145) 
-0

>  <r_epik_Charging_Adjusted_Penalty>  (145) 
0

>  <i_epik_Tot_Q>  (145) 
0

>  <i_epik_Tot_abs_Q>  (145) 
0

>  <s_lp_Force_Field>  (145) 
OPLS3e

>  <r_lp_Energy>  (145) 
65.7849

>  <b_lp_Chiralities_Consistent>  (145) 
1

>  <s_lp_Variant>  (145) 
38:0-1

>  <s_i_glide_gridfile>  (145) 
pfpi4k_grid

>  <i_i_glide_lignum>  (145) 
27

>  <i_i_glide_rotatable_bonds>  (145) 
4

>  <r_i_docking_score>  (145) 
-1.82744

>  <r_i_glide_ligand_efficiency>  (145) 
-0.0652655

>  <r_i_glide_ligand_efficiency_sa>  (145) 
-0.198185

>  <r_i_glide_ligand_efficiency_ln>  (145) 
-0.421826

>  <r_i_glide_gscore>  (145) 
-1.82744

>  <r_i_glide_lipo>  (145) 
-0.249792

>  <r_i_glide_hbond>  (145) 
0

>  <r_i_glide_metal>  (145) 
-0

>  <r_i_glide_rewards>  (145) 
-0.786561

>  <r_i_glide_evdw>  (145) 
-20.803

>  <r_i_glide_ecoul>  (145) 
-0.968147

>  <r_i_glide_erotb>  (145) 
0.394292

>  <r_i_glide_esite>  (145) 
0

>  <r_i_glide_emodel>  (145) 
-24.1915

>  <r_i_glide_energy>  (145) 
-21.7712

>  <r_i_glide_einternal>  (145) 
0.712979

>  <r_i_glide_intrahb_reward>  (145) 
-0

>  <i_i_glide_confnum>  (145) 
1

>  <i_i_glide_posenum>  (145) 
9

>  <r_i_glide_eff_state_penalty>  (145) 
0

>  <ligand_id>  (145) 
38

>  <original_smiles>  (145) 
CC(C)=CC=CC(C)C1(C)CCC2(C)CC34CCC(O)C(C)(C)C3CCC1C24

>  <smiles>  (145) 
[H]OC1([H])C([H])([H])C([H])([H])C23C([H])([H])C4(C([H])([H])[H])C([H])([H])C([H])([H])C(C([H])([H])[H])(C([H])(C([H])=C([H])C([H])=C(C([H])([H])[H])C([H])([H])[H])C([H])([H])[H])C([H])(C([H])([H])C([H])([H])C2([H])C1(C([H])([H])[H])C([H])([H])[H])C43[H]

$$$$
38:1:0
     RDKit          3D

 72 75  0  0  1  0  0  0  0  0999 V2000
    1.9677    1.5459    2.2134 C   0  0  0  0  0  0  0  0  0  0  0  0
    2.8787    0.6007    2.9883 C   0  0  0  0  0  0  0  0  0  0  0  0
    3.1653    1.0676    4.4041 C   0  0  0  0  0  0  0  0  0  0  0  0
    3.4140   -0.5412    2.5125 C   0  0  0  0  0  0  0  0  0  0  0  0
    3.2239   -1.0812    1.1721 C   0  0  0  0  0  0  0  0  0  0  0  0
    3.7550   -2.2243    0.6884 C   0  0  0  0  0  0  0  0  0  0  0  0
    4.6380   -3.2351    1.4206 C   0  0  2  0  0  0  0  0  0  0  0  0
    6.1174   -2.8592    1.1839 C   0  0  0  0  0  0  0  0  0  0  0  0
    4.2714   -4.7396    1.1207 C   0  0  1  0  0  0  0  0  0  0  0  0
    4.5032   -5.0365   -0.3897 C   0  0  0  0  0  0  0  0  0  0  0  0
    5.1828   -5.7088    1.9260 C   0  0  0  0  0  0  0  0  0  0  0  0
    5.1984   -5.4336    3.4425 C   0  0  0  0  0  0  0  0  0  0  0  0
    3.8081   -5.2416    4.0600 C   0  0  2  0  0  0  0  0  0  0  0  0
    3.9462   -4.1777    5.1609 C   0  0  0  0  0  0  0  0  0  0  0  0
    3.1315   -6.5243    4.5484 C   0  0  0  0  0  0  0  0  0  0  0  0
    1.8239   -6.2007    3.8091 C   0  0  2  0  0  0  0  0  0  0  0  0
    0.6735   -5.6994    4.6952 C   0  0  0  0  0  0  0  0  0  0  0  0
    0.1252   -6.7651    5.6560 C   0  0  0  0  0  0  0  0  0  0  0  0
    0.3385   -8.2078    5.1580 C   0  0  1  0  0  0  0  0  0  0  0  0
   -0.5746   -9.0529    5.8454 O   0  0  0  0  0  0  0  0  0  0  0  0
    0.2458   -8.3340    3.6153 C   0  0  0  0  0  0  0  0  0  0  0  0
    0.6143   -9.7914    3.2364 C   0  0  0  0  0  0  0  0  0  0  0  0
   -1.2042   -8.0571    3.1386 C   0  0  0  0  0  0  0  0  0  0  0  0
    1.2879   -7.3608    2.9353 C   0  0  1  0  0  0  0  0  0  0  0  0
    0.9145   -6.8540    1.5311 C   0  0  0  0  0  0  0  0  0  0  0  0
    2.1488   -6.2565    0.8368 C   0  0  0  0  0  0  0  0  0  0  0  0
    2.7903   -5.0413    1.5493 C   0  0  1  0  0  0  0  0  0  0  0  0
    2.6088   -5.0695    3.0914 C   0  0  2  0  0  0  0  0  0  0  0  0
    2.4450    2.5194    2.0950 H   0  0  0  0  0  0  0  0  0  0  0  0
    1.0387    1.7033    2.7603 H   0  0  0  0  0  0  0  0  0  0  0  0
    1.6950    1.1886    1.2246 H   0  0  0  0  0  0  0  0  0  0  0  0
    3.6493    2.0453    4.3892 H   0  0  0  0  0  0  0  0  0  0  0  0
    3.8196    0.3744    4.9336 H   0  0  0  0  0  0  0  0  0  0  0  0
    2.2377    1.1565    4.9685 H   0  0  0  0  0  0  0  0  0  0  0  0
    4.0450   -1.0971    3.1925 H   0  0  0  0  0  0  0  0  0  0  0  0
    2.6117   -0.5380    0.4725 H   0  0  0  0  0  0  0  0  0  0  0  0
    3.5248   -2.4580   -0.3387 H   0  0  0  0  0  0  0  0  0  0  0  0
    4.4540   -3.0733    2.4778 H   0  0  0  0  0  0  0  0  0  0  0  0
    6.3141   -1.8520    1.5526 H   0  0  0  0  0  0  0  0  0  0  0  0
    6.3830   -2.8693    0.1269 H   0  0  0  0  0  0  0  0  0  0  0  0
    6.8086   -3.5205    1.7058 H   0  0  0  0  0  0  0  0  0  0  0  0
    4.4018   -6.0963   -0.6211 H   0  0  0  0  0  0  0  0  0  0  0  0
    5.5112   -4.7675   -0.7063 H   0  0  0  0  0  0  0  0  0  0  0  0
    3.8024   -4.5058   -1.0354 H   0  0  0  0  0  0  0  0  0  0  0  0
    4.8422   -6.7317    1.7711 H   0  0  0  0  0  0  0  0  0  0  0  0
    6.2006   -5.6963    1.5361 H   0  0  0  0  0  0  0  0  0  0  0  0
    5.7258   -6.2516    3.9377 H   0  0  0  0  0  0  0  0  0  0  0  0
    5.8242   -4.5590    3.6155 H   0  0  0  0  0  0  0  0  0  0  0  0
    3.0077   -4.0118    5.6804 H   0  0  0  0  0  0  0  0  0  0  0  0
    4.2607   -3.2101    4.7722 H   0  0  0  0  0  0  0  0  0  0  0  0
    4.6695   -4.4783    5.9199 H   0  0  0  0  0  0  0  0  0  0  0  0
    3.6406   -7.4211    4.1811 H   0  0  0  0  0  0  0  0  0  0  0  0
    3.0255   -6.5706    5.6316 H   0  0  0  0  0  0  0  0  0  0  0  0
    0.9803   -4.8360    5.2820 H   0  0  0  0  0  0  0  0  0  0  0  0
   -0.1361   -5.3262    4.0687 H   0  0  0  0  0  0  0  0  0  0  0  0
    0.6020   -6.6566    6.6306 H   0  0  0  0  0  0  0  0  0  0  0  0
   -0.9304   -6.5488    5.8097 H   0  0  0  0  0  0  0  0  0  0  0  0
    1.3380   -8.5192    5.4632 H   0  0  0  0  0  0  0  0  0  0  0  0
   -0.8420   -9.7881    5.2992 H   0  0  0  0  0  0  0  0  0  0  0  0
    0.6524   -9.9358    2.1555 H   0  0  0  0  0  0  0  0  0  0  0  0
   -0.0981  -10.5125    3.6409 H   0  0  0  0  0  0  0  0  0  0  0  0
    1.5967  -10.0605    3.6344 H   0  0  0  0  0  0  0  0  0  0  0  0
   -1.3264   -8.2686    2.0758 H   0  0  0  0  0  0  0  0  0  0  0  0
   -1.4919   -7.0210    3.3065 H   0  0  0  0  0  0  0  0  0  0  0  0
   -1.9259   -8.6851    3.6611 H   0  0  0  0  0  0  0  0  0  0  0  0
    2.1485   -7.9993    2.7321 H   0  0  0  0  0  0  0  0  0  0  0  0
    0.5330   -7.6759    0.9206 H   0  0  0  0  0  0  0  0  0  0  0  0
    0.1221   -6.1080    1.5952 H   0  0  0  0  0  0  0  0  0  0  0  0
    2.8862   -7.0533    0.7331 H   0  0  0  0  0  0  0  0  0  0  0  0
    1.8638   -5.9718   -0.1796 H   0  0  0  0  0  0  0  0  0  0  0  0
    2.1889   -4.2094    1.1845 H   0  0  0  0  0  0  0  0  0  0  0  0
    2.1400   -4.1324    3.3746 H   0  0  0  0  0  0  0  0  0  0  0  0
  1  2  1  0
  1 29  1  0
  1 30  1  0
  1 31  1  0
  2  3  1  0
  2  4  2  3
  3 32  1  0
  3 33  1  0
  3 34  1  0
  4  5  1  0
  4 35  1  0
  5  6  2  3
  5 36  1  0
  6  7  1  0
  6 37  1  0
  7  8  1  0
  7  9  1  0
  7 38  1  1
  8 39  1  0
  8 40  1  0
  8 41  1  0
  9 27  1  0
  9 10  1  6
  9 11  1  0
 10 42  1  0
 10 43  1  0
 10 44  1  0
 11 12  1  0
 11 45  1  0
 11 46  1  0
 12 13  1  0
 12 47  1  0
 12 48  1  0
 13 28  1  0
 13 14  1  1
 13 15  1  0
 14 49  1  0
 14 50  1  0
 14 51  1  0
 16 15  1  1
 15 52  1  0
 15 53  1  0
 16 24  1  0
 16 28  1  0
 16 17  1  0
 17 18  1  0
 17 54  1  0
 17 55  1  0
 18 19  1  0
 18 56  1  0
 18 57  1  0
 19 20  1  0
 19 21  1  0
 19 58  1  1
 20 59  1  0
 21 22  1  0
 21 23  1  0
 21 24  1  0
 22 60  1  0
 22 61  1  0
 22 62  1  0
 23 63  1  0
 23 64  1  0
 23 65  1  0
 24 25  1  0
 24 66  1  6
 25 26  1  0
 25 67  1  0
 25 68  1  0
 26 27  1  0
 26 69  1  0
 26 70  1  0
 27 28  1  0
 27 71  1  6
 28 72  1  1
M  END
>  <i_m_ct_stereo_status>  (146) 
1

>  <s_m_source_file>  (146) 
/var/tmp/pbs.5076255.sched01/tmpx9mnojvb/44r91_cmns.sdf

>  <i_m_source_file_index>  (146) 
28

>  <i_lp_mmshare_version>  (146) 
48012

>  <i_f3d_flags>  (146) 
0

>  <s_epik_input>  (146) 
W0NIM11DKFtDSDNdKT1bQ0hdL1tDSF09W0NIXS9bQ0BIXShbQ0gzXSlbQ0BAXTEoW0NIM10pW0NIMl1bQ0gyXVtDQF0oW0NIM10pKFtDSDJdMilbQ0BIXTNbQ0BASF0xW0NIMl1bQ0gyXVtDQEBIXShbQ0BAXTIzNClDKFtDSDNdKShbQ0gzXSlbQ0BIXShbT0hdKVtDSDJdW0NIMl00

>  <s_epik_cmdline>  (146) 
J2VwaWtfcHl0aG9uJywgJy1waHQnLCAnMi4wJywgJy1waCcsICc3LjAnLCAnLXRuJywgJzgnLCAnLW1hJywgJzIwMCcsICctaW1hZScsICc8aW5maWxlLm1hZT4nLCAnLW9tYWUnLCAnPG91dGZpbGUubWFlPic=

>  <r_lp_tautomer_probability>  (146) 
1

>  <r_epik_Ionization_Penalty>  (146) 
3.34435e-06

>  <r_epik_Ionization_Penalty_Charging>  (146) 
0

>  <r_epik_Ionization_Penalty_Neutral>  (146) 
3.34435e-06

>  <r_epik_State_Penalty>  (146) 
-0

>  <r_epik_Charging_Adjusted_Penalty>  (146) 
0

>  <i_epik_Tot_Q>  (146) 
0

>  <i_epik_Tot_abs_Q>  (146) 
0

>  <s_lp_Force_Field>  (146) 
OPLS3e

>  <r_lp_Energy>  (146) 
66.6496

>  <b_lp_Chiralities_Consistent>  (146) 
1

>  <s_lp_Variant>  (146) 
38:0-2

>  <s_i_glide_gridfile>  (146) 
pfpi4k_grid

>  <i_i_glide_lignum>  (146) 
28

>  <i_i_glide_rotatable_bonds>  (146) 
4

>  <r_i_docking_score>  (146) 
-2.24963

>  <r_i_glide_ligand_efficiency>  (146) 
-0.0803441

>  <r_i_glide_ligand_efficiency_sa>  (146) 
-0.243972

>  <r_i_glide_ligand_efficiency_ln>  (146) 
-0.519282

>  <r_i_glide_gscore>  (146) 
-2.24963

>  <r_i_glide_lipo>  (146) 
-0.227417

>  <r_i_glide_hbond>  (146) 
-0.130905

>  <r_i_glide_metal>  (146) 
-0

>  <r_i_glide_rewards>  (146) 
-0.786561

>  <r_i_glide_evdw>  (146) 
-20.2889

>  <r_i_glide_ecoul>  (146) 
-3.23066

>  <r_i_glide_erotb>  (146) 
0.394292

>  <r_i_glide_esite>  (146) 
0

>  <r_i_glide_emodel>  (146) 
-25.7883

>  <r_i_glide_energy>  (146) 
-23.5196

>  <r_i_glide_einternal>  (146) 
1.99422

>  <r_i_glide_intrahb_reward>  (146) 
-0

>  <i_i_glide_confnum>  (146) 
2

>  <i_i_glide_posenum>  (146) 
19

>  <r_i_glide_eff_state_penalty>  (146) 
0

>  <ligand_id>  (146) 
38

>  <original_smiles>  (146) 
CC(C)=CC=CC(C)C1(C)CCC2(C)CC34CCC(O)C(C)(C)C3CCC1C24

>  <smiles>  (146) 
[H]OC1([H])C([H])([H])C([H])([H])C23C([H])([H])C4(C([H])([H])[H])C([H])([H])C([H])([H])C(C([H])([H])[H])(C([H])(C([H])=C([H])C([H])=C(C([H])([H])[H])C([H])([H])[H])C([H])([H])[H])C([H])(C([H])([H])C([H])([H])C2([H])C1(C([H])([H])[H])C([H])([H])[H])C43[H]

$$$$
38:1:1
     RDKit          3D

 72 75  0  0  1  0  0  0  0  0999 V2000
    7.8747   -3.4553   -0.4343 C   0  0  0  0  0  0  0  0  0  0  0  0
    7.1013   -3.8807    0.8063 C   0  0  0  0  0  0  0  0  0  0  0  0
    6.2885   -2.7600    1.4264 C   0  0  0  0  0  0  0  0  0  0  0  0
    7.1198   -5.1079    1.3652 C   0  0  0  0  0  0  0  0  0  0  0  0
    7.8489   -6.2661    0.8750 C   0  0  0  0  0  0  0  0  0  0  0  0
    7.9373   -7.4669    1.4888 C   0  0  0  0  0  0  0  0  0  0  0  0
    7.3647   -7.9055    2.8359 C   0  0  2  0  0  0  0  0  0  0  0  0
    8.5528   -8.4138    3.6947 C   0  0  0  0  0  0  0  0  0  0  0  0
    6.1341   -8.8866    2.7074 C   0  0  1  0  0  0  0  0  0  0  0  0
    6.4887  -10.0376    1.7216 C   0  0  0  0  0  0  0  0  0  0  0  0
    5.7820   -9.5142    4.0802 C   0  0  0  0  0  0  0  0  0  0  0  0
    5.5273   -8.4931    5.2130 C   0  0  0  0  0  0  0  0  0  0  0  0
    4.6291   -7.3223    4.8153 C   0  0  2  0  0  0  0  0  0  0  0  0
    5.1812   -6.0774    5.5180 C   0  0  0  0  0  0  0  0  0  0  0  0
    3.1438   -7.5586    5.0647 C   0  0  0  0  0  0  0  0  0  0  0  0
    2.7674   -7.1083    3.6471 C   0  0  2  0  0  0  0  0  0  0  0  0
    2.1500   -5.7069    3.5435 C   0  0  0  0  0  0  0  0  0  0  0  0
    0.7687   -5.5933    4.1990 C   0  0  0  0  0  0  0  0  0  0  0  0
    0.0237   -6.9400    4.2483 C   0  0  1  0  0  0  0  0  0  0  0  0
   -1.3596   -6.6971    4.4088 O   0  0  0  0  0  0  0  0  0  0  0  0
    0.3008   -7.8419    3.0177 C   0  0  0  0  0  0  0  0  0  0  0  0
   -0.4125   -9.1971    3.2469 C   0  0  0  0  0  0  0  0  0  0  0  0
   -0.2802   -7.1875    1.7410 C   0  0  0  0  0  0  0  0  0  0  0  0
    1.8513   -8.0974    2.8960 C   0  0  1  0  0  0  0  0  0  0  0  0
    2.3840   -8.3619    1.4774 C   0  0  0  0  0  0  0  0  0  0  0  0
    3.7838   -8.9878    1.5405 C   0  0  0  0  0  0  0  0  0  0  0  0
    4.8649   -8.0973    2.2174 C   0  0  1  0  0  0  0  0  0  0  0  0
    4.2809   -7.1691    3.3143 C   0  0  2  0  0  0  0  0  0  0  0  0
    8.5955   -2.6793   -0.1772 H   0  0  0  0  0  0  0  0  0  0  0  0
    7.1824   -3.0378   -1.1699 H   0  0  0  0  0  0  0  0  0  0  0  0
    8.4264   -4.2538   -0.9207 H   0  0  0  0  0  0  0  0  0  0  0  0
    6.9435   -1.9286    1.6855 H   0  0  0  0  0  0  0  0  0  0  0  0
    5.7666   -3.0851    2.3263 H   0  0  0  0  0  0  0  0  0  0  0  0
    5.5483   -2.3867    0.7184 H   0  0  0  0  0  0  0  0  0  0  0  0
    6.5210   -5.2402    2.2556 H   0  0  0  0  0  0  0  0  0  0  0  0
    8.3654   -6.2031   -0.0686 H   0  0  0  0  0  0  0  0  0  0  0  0
    8.5067   -8.2262    0.9729 H   0  0  0  0  0  0  0  0  0  0  0  0
    7.0074   -7.0156    3.3449 H   0  0  0  0  0  0  0  0  0  0  0  0
    9.2834   -7.6161    3.8243 H   0  0  0  0  0  0  0  0  0  0  0  0
    9.0751   -9.2530    3.2418 H   0  0  0  0  0  0  0  0  0  0  0  0
    8.2982   -8.7440    4.6984 H   0  0  0  0  0  0  0  0  0  0  0  0
    5.7161  -10.8085    1.6846 H   0  0  0  0  0  0  0  0  0  0  0  0
    7.3902  -10.5534    2.0406 H   0  0  0  0  0  0  0  0  0  0  0  0
    6.6281   -9.6945    0.6941 H   0  0  0  0  0  0  0  0  0  0  0  0
    4.8778  -10.1147    3.9568 H   0  0  0  0  0  0  0  0  0  0  0  0
    6.5426  -10.2301    4.3722 H   0  0  0  0  0  0  0  0  0  0  0  0
    5.0992   -9.0317    6.0633 H   0  0  0  0  0  0  0  0  0  0  0  0
    6.4678   -8.1109    5.5961 H   0  0  0  0  0  0  0  0  0  0  0  0
    4.5655   -5.1997    5.3334 H   0  0  0  0  0  0  0  0  0  0  0  0
    6.1882   -5.8251    5.1921 H   0  0  0  0  0  0  0  0  0  0  0  0
    5.2134   -6.2111    6.5988 H   0  0  0  0  0  0  0  0  0  0  0  0
    2.9260   -8.6151    5.2699 H   0  0  0  0  0  0  0  0  0  0  0  0
    2.7394   -6.9277    5.8567 H   0  0  0  0  0  0  0  0  0  0  0  0
    2.8037   -4.9620    3.9975 H   0  0  0  0  0  0  0  0  0  0  0  0
    2.0916   -5.4131    2.4918 H   0  0  0  0  0  0  0  0  0  0  0  0
    0.8759   -5.2188    5.2183 H   0  0  0  0  0  0  0  0  0  0  0  0
    0.2134   -4.8305    3.6639 H   0  0  0  0  0  0  0  0  0  0  0  0
    0.3459   -7.4650    5.1428 H   0  0  0  0  0  0  0  0  0  0  0  0
   -1.7769   -7.5251    4.5761 H   0  0  0  0  0  0  0  0  0  0  0  0
   -0.1840   -9.9146    2.4573 H   0  0  0  0  0  0  0  0  0  0  0  0
   -1.4987   -9.0957    3.2902 H   0  0  0  0  0  0  0  0  0  0  0  0
   -0.1021   -9.6485    4.1948 H   0  0  0  0  0  0  0  0  0  0  0  0
   -0.2089   -7.8529    0.8806 H   0  0  0  0  0  0  0  0  0  0  0  0
    0.2430   -6.2730    1.4769 H   0  0  0  0  0  0  0  0  0  0  0  0
   -1.3369   -6.9627    1.8595 H   0  0  0  0  0  0  0  0  0  0  0  0
    1.9909   -9.0674    3.3835 H   0  0  0  0  0  0  0  0  0  0  0  0
    1.7384   -9.0547    0.9482 H   0  0  0  0  0  0  0  0  0  0  0  0
    2.4189   -7.4313    0.8982 H   0  0  0  0  0  0  0  0  0  0  0  0
    3.6941   -9.9489    2.0447 H   0  0  0  0  0  0  0  0  0  0  0  0
    4.0896   -9.2215    0.5135 H   0  0  0  0  0  0  0  0  0  0  0  0
    5.1960   -7.4587    1.4027 H   0  0  0  0  0  0  0  0  0  0  0  0
    4.5681   -6.1469    3.0548 H   0  0  0  0  0  0  0  0  0  0  0  0
  1  2  1  0
  1 29  1  0
  1 30  1  0
  1 31  1  0
  2  3  1  0
  2  4  2  3
  3 32  1  0
  3 33  1  0
  3 34  1  0
  4  5  1  0
  4 35  1  0
  5  6  2  3
  5 36  1  0
  6  7  1  0
  6 37  1  0
  7  8  1  0
  7  9  1  0
  7 38  1  1
  8 39  1  0
  8 40  1  0
  8 41  1  0
  9 27  1  0
  9 10  1  6
  9 11  1  0
 10 42  1  0
 10 43  1  0
 10 44  1  0
 11 12  1  0
 11 45  1  0
 11 46  1  0
 12 13  1  0
 12 47  1  0
 12 48  1  0
 13 28  1  0
 13 14  1  1
 13 15  1  0
 14 49  1  0
 14 50  1  0
 14 51  1  0
 16 15  1  1
 15 52  1  0
 15 53  1  0
 16 24  1  0
 16 28  1  0
 16 17  1  0
 17 18  1  0
 17 54  1  0
 17 55  1  0
 18 19  1  0
 18 56  1  0
 18 57  1  0
 19 20  1  0
 19 21  1  0
 19 58  1  1
 20 59  1  0
 21 22  1  0
 21 23  1  0
 21 24  1  0
 22 60  1  0
 22 61  1  0
 22 62  1  0
 23 63  1  0
 23 64  1  0
 23 65  1  0
 24 25  1  0
 24 66  1  1
 25 26  1  0
 25 67  1  0
 25 68  1  0
 26 27  1  0
 26 69  1  0
 26 70  1  0
 27 28  1  0
 27 71  1  6
 28 72  1  6
M  END
>  <i_m_ct_stereo_status>  (147) 
1

>  <s_m_source_file>  (147) 
/var/tmp/pbs.5076255.sched01/tmpx9mnojvb/44r91_cmns.sdf

>  <i_m_source_file_index>  (147) 
28

>  <i_lp_mmshare_version>  (147) 
48012

>  <i_f3d_flags>  (147) 
0

>  <s_epik_input>  (147) 
W0NIM11DKFtDSDNdKT1bQ0hdL1tDSF09W0NIXS9bQ0BIXShbQ0gzXSlbQ0BAXTEoW0NIM10pW0NIMl1bQ0gyXVtDQF0oW0NIM10pKFtDSDJdMilbQ0BIXTNbQ0BASF0xW0NIMl1bQ0gyXVtDQEBIXShbQ0BAXTIzNClDKFtDSDNdKShbQ0gzXSlbQ0BIXShbT0hdKVtDSDJdW0NIMl00

>  <s_epik_cmdline>  (147) 
J2VwaWtfcHl0aG9uJywgJy1waHQnLCAnMi4wJywgJy1waCcsICc3LjAnLCAnLXRuJywgJzgnLCAnLW1hJywgJzIwMCcsICctaW1hZScsICc8aW5maWxlLm1hZT4nLCAnLW9tYWUnLCAnPG91dGZpbGUubWFlPic=

>  <r_lp_tautomer_probability>  (147) 
1

>  <r_epik_Ionization_Penalty>  (147) 
3.34435e-06

>  <r_epik_Ionization_Penalty_Charging>  (147) 
0

>  <r_epik_Ionization_Penalty_Neutral>  (147) 
3.34435e-06

>  <r_epik_State_Penalty>  (147) 
-0

>  <r_epik_Charging_Adjusted_Penalty>  (147) 
0

>  <i_epik_Tot_Q>  (147) 
0

>  <i_epik_Tot_abs_Q>  (147) 
0

>  <s_lp_Force_Field>  (147) 
OPLS3e

>  <r_lp_Energy>  (147) 
66.6496

>  <b_lp_Chiralities_Consistent>  (147) 
1

>  <s_lp_Variant>  (147) 
38:0-2

>  <s_i_glide_gridfile>  (147) 
pfpi4k_grid

>  <i_i_glide_lignum>  (147) 
28

>  <i_i_glide_rotatable_bonds>  (147) 
4

>  <r_i_docking_score>  (147) 
-2.1708

>  <r_i_glide_ligand_efficiency>  (147) 
-0.0775285

>  <r_i_glide_ligand_efficiency_sa>  (147) 
-0.235422

>  <r_i_glide_ligand_efficiency_ln>  (147) 
-0.501084

>  <r_i_glide_gscore>  (147) 
-2.1708

>  <r_i_glide_lipo>  (147) 
-0.520128

>  <r_i_glide_hbond>  (147) 
0

>  <r_i_glide_metal>  (147) 
-0

>  <r_i_glide_rewards>  (147) 
-0.786561

>  <r_i_glide_evdw>  (147) 
-21.5223

>  <r_i_glide_ecoul>  (147) 
-1.21523

>  <r_i_glide_erotb>  (147) 
0.394292

>  <r_i_glide_esite>  (147) 
0

>  <r_i_glide_emodel>  (147) 
-25.0009

>  <r_i_glide_energy>  (147) 
-22.7376

>  <r_i_glide_einternal>  (147) 
1.76862

>  <r_i_glide_intrahb_reward>  (147) 
-0

>  <i_i_glide_confnum>  (147) 
2

>  <i_i_glide_posenum>  (147) 
8

>  <r_i_glide_eff_state_penalty>  (147) 
0

>  <ligand_id>  (147) 
38

>  <original_smiles>  (147) 
CC(C)=CC=CC(C)C1(C)CCC2(C)CC34CCC(O)C(C)(C)C3CCC1C24

>  <smiles>  (147) 
[H]OC1([H])C([H])([H])C([H])([H])C23C([H])([H])C4(C([H])([H])[H])C([H])([H])C([H])([H])C(C([H])([H])[H])(C([H])(C([H])=C([H])C([H])=C(C([H])([H])[H])C([H])([H])[H])C([H])([H])[H])C([H])(C([H])([H])C([H])([H])C2([H])C1(C([H])([H])[H])C([H])([H])[H])C43[H]

$$$$
38:1:2
     RDKit          3D

 72 75  0  0  1  0  0  0  0  0999 V2000
    0.8113    0.8719    2.2964 C   0  0  0  0  0  0  0  0  0  0  0  0
    1.6828   -0.0626    3.1266 C   0  0  0  0  0  0  0  0  0  0  0  0
    1.4872    0.0933    4.6237 C   0  0  0  0  0  0  0  0  0  0  0  0
    2.5685   -0.9526    2.6377 C   0  0  0  0  0  0  0  0  0  0  0  0
    2.8665   -1.1854    1.2307 C   0  0  0  0  0  0  0  0  0  0  0  0
    3.7193   -2.1056    0.7301 C   0  0  0  0  0  0  0  0  0  0  0  0
    4.5732   -3.1151    1.4946 C   0  0  2  0  0  0  0  0  0  0  0  0
    6.0573   -2.7230    1.3248 C   0  0  0  0  0  0  0  0  0  0  0  0
    4.2308   -4.6169    1.1663 C   0  0  1  0  0  0  0  0  0  0  0  0
    4.4729   -4.8799   -0.3470 C   0  0  0  0  0  0  0  0  0  0  0  0
    5.1474   -5.5832    1.9665 C   0  0  0  0  0  0  0  0  0  0  0  0
    5.1473   -5.3273    3.4878 C   0  0  0  0  0  0  0  0  0  0  0  0
    3.7499   -5.1604    4.0967 C   0  0  2  0  0  0  0  0  0  0  0  0
    3.8661   -4.1109    5.2137 C   0  0  0  0  0  0  0  0  0  0  0  0
    3.0867   -6.4577    4.5611 C   0  0  0  0  0  0  0  0  0  0  0  0
    1.7806   -6.1415    3.8163 C   0  0  2  0  0  0  0  0  0  0  0  0
    0.6192   -5.6668    4.7006 C   0  0  0  0  0  0  0  0  0  0  0  0
    0.0813   -6.7518    5.6417 C   0  0  0  0  0  0  0  0  0  0  0  0
    0.3256   -8.1830    5.1298 C   0  0  1  0  0  0  0  0  0  0  0  0
   -0.5600   -9.0434    5.8247 O   0  0  0  0  0  0  0  0  0  0  0  0
    0.2340   -8.2935    3.5847 C   0  0  0  0  0  0  0  0  0  0  0  0
    0.6232   -9.7392    3.1858 C   0  0  0  0  0  0  0  0  0  0  0  0
   -1.2161   -8.0285    3.1018 C   0  0  0  0  0  0  0  0  0  0  0  0
    1.2661   -7.2972    2.9233 C   0  0  1  0  0  0  0  0  0  0  0  0
    0.8965   -6.7774    1.5231 C   0  0  0  0  0  0  0  0  0  0  0  0
    2.1305   -6.1595    0.8444 C   0  0  0  0  0  0  0  0  0  0  0  0
    2.7506   -4.9423    1.5787 C   0  0  1  0  0  0  0  0  0  0  0  0
    2.5575   -4.9924    3.1182 C   0  0  2  0  0  0  0  0  0  0  0  0
    1.0679    1.9115    2.5045 H   0  0  0  0  0  0  0  0  0  0  0  0
   -0.2373    0.7334    2.5605 H   0  0  0  0  0  0  0  0  0  0  0  0
    0.8927    0.7236    1.2220 H   0  0  0  0  0  0  0  0  0  0  0  0
    1.7236    1.1127    4.9330 H   0  0  0  0  0  0  0  0  0  0  0  0
    2.1270   -0.5854    5.1886 H   0  0  0  0  0  0  0  0  0  0  0  0
    0.4526   -0.1129    4.8944 H   0  0  0  0  0  0  0  0  0  0  0  0
    3.1025   -1.5364    3.3713 H   0  0  0  0  0  0  0  0  0  0  0  0
    2.3762   -0.5761    0.4905 H   0  0  0  0  0  0  0  0  0  0  0  0
    3.8202   -2.1402   -0.3444 H   0  0  0  0  0  0  0  0  0  0  0  0
    4.3650   -2.9708    2.5475 H   0  0  0  0  0  0  0  0  0  0  0  0
    6.2284   -1.7160    1.7076 H   0  0  0  0  0  0  0  0  0  0  0  0
    6.3762   -2.7308    0.2823 H   0  0  0  0  0  0  0  0  0  0  0  0
    6.7267   -3.3790    1.8800 H   0  0  0  0  0  0  0  0  0  0  0  0
    4.3849   -5.9369   -0.5981 H   0  0  0  0  0  0  0  0  0  0  0  0
    5.4798   -4.5924   -0.6512 H   0  0  0  0  0  0  0  0  0  0  0  0
    3.7673   -4.3409   -0.9820 H   0  0  0  0  0  0  0  0  0  0  0  0
    4.8195   -6.6082    1.7954 H   0  0  0  0  0  0  0  0  0  0  0  0
    6.1668   -5.5526    1.5846 H   0  0  0  0  0  0  0  0  0  0  0  0
    5.6802   -6.1458    3.9762 H   0  0  0  0  0  0  0  0  0  0  0  0
    5.7613   -4.4490    3.6828 H   0  0  0  0  0  0  0  0  0  0  0  0
    2.9210   -3.9628    5.7279 H   0  0  0  0  0  0  0  0  0  0  0  0
    4.1740   -3.1348    4.8428 H   0  0  0  0  0  0  0  0  0  0  0  0
    4.5866   -4.4136    5.9745 H   0  0  0  0  0  0  0  0  0  0  0  0
    3.6102   -7.3429    4.1862 H   0  0  0  0  0  0  0  0  0  0  0  0
    2.9729   -6.5205    5.6431 H   0  0  0  0  0  0  0  0  0  0  0  0
    0.9088   -4.8062    5.3009 H   0  0  0  0  0  0  0  0  0  0  0  0
   -0.1887   -5.2954    4.0729 H   0  0  0  0  0  0  0  0  0  0  0  0
    0.5463   -6.6493    6.6220 H   0  0  0  0  0  0  0  0  0  0  0  0
   -0.9803   -6.5562    5.7871 H   0  0  0  0  0  0  0  0  0  0  0  0
    1.3335   -8.4767    5.4261 H   0  0  0  0  0  0  0  0  0  0  0  0
   -0.8401   -9.7784    5.2843 H   0  0  0  0  0  0  0  0  0  0  0  0
    0.6710   -9.8691    2.1030 H   0  0  0  0  0  0  0  0  0  0  0  0
   -0.0832  -10.4740    3.5756 H   0  0  0  0  0  0  0  0  0  0  0  0
    1.6058  -10.0018    3.5870 H   0  0  0  0  0  0  0  0  0  0  0  0
   -1.3299   -8.2272    2.0347 H   0  0  0  0  0  0  0  0  0  0  0  0
   -1.5197   -6.9986    3.2794 H   0  0  0  0  0  0  0  0  0  0  0  0
   -1.9320   -8.6729    3.6116 H   0  0  0  0  0  0  0  0  0  0  0  0
    2.1378   -7.9203    2.7171 H   0  0  0  0  0  0  0  0  0  0  0  0
    0.5279   -7.5939    0.8984 H   0  0  0  0  0  0  0  0  0  0  0  0
    0.0966   -6.0389    1.5934 H   0  0  0  0  0  0  0  0  0  0  0  0
    2.8732   -6.9499    0.7324 H   0  0  0  0  0  0  0  0  0  0  0  0
    1.8489   -5.8615   -0.1704 H   0  0  0  0  0  0  0  0  0  0  0  0
    2.1446   -4.1114    1.2209 H   0  0  0  0  0  0  0  0  0  0  0  0
    2.0720   -4.0646    3.4115 H   0  0  0  0  0  0  0  0  0  0  0  0
  1  2  1  0
  1 29  1  0
  1 30  1  0
  1 31  1  0
  2  3  1  0
  2  4  2  3
  3 32  1  0
  3 33  1  0
  3 34  1  0
  4  5  1  0
  4 35  1  0
  5  6  2  3
  5 36  1  0
  6  7  1  0
  6 37  1  0
  7  8  1  0
  7  9  1  0
  7 38  1  1
  8 39  1  0
  8 40  1  0
  8 41  1  0
  9 27  1  0
  9 10  1  6
  9 11  1  0
 10 42  1  0
 10 43  1  0
 10 44  1  0
 11 12  1  0
 11 45  1  0
 11 46  1  0
 12 13  1  0
 12 47  1  0
 12 48  1  0
 13 28  1  0
 13 14  1  1
 13 15  1  0
 14 49  1  0
 14 50  1  0
 14 51  1  0
 16 15  1  1
 15 52  1  0
 15 53  1  0
 16 24  1  0
 16 28  1  0
 16 17  1  0
 17 18  1  0
 17 54  1  0
 17 55  1  0
 18 19  1  0
 18 56  1  0
 18 57  1  0
 19 20  1  0
 19 21  1  0
 19 58  1  1
 20 59  1  0
 21 22  1  0
 21 23  1  0
 21 24  1  0
 22 60  1  0
 22 61  1  0
 22 62  1  0
 23 63  1  0
 23 64  1  0
 23 65  1  0
 24 25  1  0
 24 66  1  6
 25 26  1  0
 25 67  1  0
 25 68  1  0
 26 27  1  0
 26 69  1  0
 26 70  1  0
 27 28  1  0
 27 71  1  6
 28 72  1  1
M  END
>  <i_m_ct_stereo_status>  (148) 
1

>  <s_m_source_file>  (148) 
/var/tmp/pbs.5076255.sched01/tmpx9mnojvb/44r91_cmns.sdf

>  <i_m_source_file_index>  (148) 
28

>  <i_lp_mmshare_version>  (148) 
48012

>  <i_f3d_flags>  (148) 
0

>  <s_epik_input>  (148) 
W0NIM11DKFtDSDNdKT1bQ0hdL1tDSF09W0NIXS9bQ0BIXShbQ0gzXSlbQ0BAXTEoW0NIM10pW0NIMl1bQ0gyXVtDQF0oW0NIM10pKFtDSDJdMilbQ0BIXTNbQ0BASF0xW0NIMl1bQ0gyXVtDQEBIXShbQ0BAXTIzNClDKFtDSDNdKShbQ0gzXSlbQ0BIXShbT0hdKVtDSDJdW0NIMl00

>  <s_epik_cmdline>  (148) 
J2VwaWtfcHl0aG9uJywgJy1waHQnLCAnMi4wJywgJy1waCcsICc3LjAnLCAnLXRuJywgJzgnLCAnLW1hJywgJzIwMCcsICctaW1hZScsICc8aW5maWxlLm1hZT4nLCAnLW9tYWUnLCAnPG91dGZpbGUubWFlPic=

>  <r_lp_tautomer_probability>  (148) 
1

>  <r_epik_Ionization_Penalty>  (148) 
3.34435e-06

>  <r_epik_Ionization_Penalty_Charging>  (148) 
0

>  <r_epik_Ionization_Penalty_Neutral>  (148) 
3.34435e-06

>  <r_epik_State_Penalty>  (148) 
-0

>  <r_epik_Charging_Adjusted_Penalty>  (148) 
0

>  <i_epik_Tot_Q>  (148) 
0

>  <i_epik_Tot_abs_Q>  (148) 
0

>  <s_lp_Force_Field>  (148) 
OPLS3e

>  <r_lp_Energy>  (148) 
66.6496

>  <b_lp_Chiralities_Consistent>  (148) 
1

>  <s_lp_Variant>  (148) 
38:0-2

>  <s_i_glide_gridfile>  (148) 
pfpi4k_grid

>  <i_i_glide_lignum>  (148) 
28

>  <i_i_glide_rotatable_bonds>  (148) 
4

>  <r_i_docking_score>  (148) 
-2.14696

>  <r_i_glide_ligand_efficiency>  (148) 
-0.0766772

>  <r_i_glide_ligand_efficiency_sa>  (148) 
-0.232837

>  <r_i_glide_ligand_efficiency_ln>  (148) 
-0.495582

>  <r_i_glide_gscore>  (148) 
-2.14696

>  <r_i_glide_lipo>  (148) 
-0.176031

>  <r_i_glide_hbond>  (148) 
-0.132618

>  <r_i_glide_metal>  (148) 
-0

>  <r_i_glide_rewards>  (148) 
-0.786561

>  <r_i_glide_evdw>  (148) 
-19.2517

>  <r_i_glide_ecoul>  (148) 
-3.22307

>  <r_i_glide_erotb>  (148) 
0.394292

>  <r_i_glide_esite>  (148) 
0

>  <r_i_glide_emodel>  (148) 
-24.9448

>  <r_i_glide_energy>  (148) 
-22.4747

>  <r_i_glide_einternal>  (148) 
1.1653

>  <r_i_glide_intrahb_reward>  (148) 
-0

>  <i_i_glide_confnum>  (148) 
4

>  <i_i_glide_posenum>  (148) 
30

>  <r_i_glide_eff_state_penalty>  (148) 
0

>  <ligand_id>  (148) 
38

>  <original_smiles>  (148) 
CC(C)=CC=CC(C)C1(C)CCC2(C)CC34CCC(O)C(C)(C)C3CCC1C24

>  <smiles>  (148) 
[H]OC1([H])C([H])([H])C([H])([H])C23C([H])([H])C4(C([H])([H])[H])C([H])([H])C([H])([H])C(C([H])([H])[H])(C([H])(C([H])=C([H])C([H])=C(C([H])([H])[H])C([H])([H])[H])C([H])([H])[H])C([H])(C([H])([H])C([H])([H])C2([H])C1(C([H])([H])[H])C([H])([H])[H])C43[H]

$$$$
39:0:0
     RDKit          3D

 78 83  0  0  1  0  0  0  0  0999 V2000
    6.9296   -0.8337    1.8617 C   0  0  0  0  0  0  0  0  0  0  0  0
    6.4594   -2.1473    1.8919 O   0  0  0  0  0  0  0  0  0  0  0  0
    5.1530   -2.4951    1.4279 C   0  0  2  0  0  0  0  0  0  0  0  0
    4.9289   -1.4823    0.1752 C   0  0  0  0  0  0  0  0  0  0  0  0
    3.8583   -1.3769   -0.9668 C   0  0  2  0  0  0  0  0  0  0  0  0
    2.7547   -2.2375   -1.6241 C   0  0  2  0  0  0  0  0  0  0  0  0
    2.3616   -3.6558   -1.1507 C   0  0  0  0  0  0  0  0  0  0  0  0
    2.7631   -4.0379    0.3006 C   0  0  1  0  0  0  0  0  0  0  0  0
    2.3021   -2.7384    1.0802 C   0  0  0  0  0  0  0  0  0  0  0  0
    1.9880   -5.0922    1.2126 C   0  0  1  0  0  0  0  0  0  0  0  0
    1.0042   -6.2322    0.8301 C   0  0  0  0  0  0  0  0  0  0  0  0
    0.5602   -6.9640    2.1458 C   0  0  0  0  0  0  0  0  0  0  0  0
    0.9980   -6.2701    3.5049 C   0  0  1  0  0  0  0  0  0  0  0  0
    2.0132   -6.8229    4.4572 C   0  0  1  0  0  0  0  0  0  0  0  0
    2.4870   -8.0963    4.1236 O   0  0  0  0  0  0  0  0  0  0  0  0
    2.4326   -5.6336    3.6065 C   0  0  2  0  0  0  0  0  0  0  0  0
    2.5712   -4.1888    4.2187 C   0  0  0  0  0  0  0  0  0  0  0  0
    3.8993   -3.2367    4.1463 C   0  0  0  0  0  0  0  0  0  0  0  0
    3.4910   -2.1357    5.1772 C   0  0  0  0  0  0  0  0  0  0  0  0
    5.0811   -3.9525    4.8367 C   0  0  0  0  0  0  0  0  0  0  0  0
    4.3756   -2.2698    2.8757 C   0  0  0  0  0  0  0  0  0  0  0  0
    3.0103   -5.5919    2.2317 C   0  0  1  0  0  0  0  0  0  0  0  0
    3.8664   -6.6536    1.5485 C   0  0  0  0  0  0  0  0  0  0  0  0
    4.2064   -7.7349    2.0013 O   0  0  0  0  0  0  0  0  0  0  0  0
    4.3782   -6.1372    0.2026 C   0  0  0  0  0  0  0  0  0  0  0  0
    4.2955   -4.5808    0.1575 C   0  0  2  0  0  0  0  0  0  0  0  0
    5.5231   -3.9149    0.9059 C   0  0  0  0  0  0  0  0  0  0  0  0
    6.6969   -3.7860   -0.1077 C   0  0  0  0  0  0  0  0  0  0  0  0
    6.2436   -4.8283    1.9687 C   0  0  0  0  0  0  0  0  0  0  0  0
    3.9852   -1.7890   -2.4288 C   0  0  0  0  0  0  0  0  0  0  0  0
    3.7003   -0.6684   -3.4351 C   0  0  0  0  0  0  0  0  0  0  0  0
    5.0032   -2.7426   -3.0586 C   0  0  0  0  0  0  0  0  0  0  0  0
    7.8317   -0.6559    2.4815 H   0  0  0  0  0  0  0  0  0  0  0  0
    6.1514   -0.0958    2.1318 H   0  0  0  0  0  0  0  0  0  0  0  0
    7.3039   -0.6632    0.8664 H   0  0  0  0  0  0  0  0  0  0  0  0
    4.7530   -0.5108    0.6480 H   0  0  0  0  0  0  0  0  0  0  0  0
    5.8327   -1.3205   -0.4021 H   0  0  0  0  0  0  0  0  0  0  0  0
    3.4115   -0.4273   -0.8091 H   0  0  0  0  0  0  0  0  0  0  0  0
    2.0081   -1.7939   -2.2207 H   0  0  0  0  0  0  0  0  0  0  0  0
    1.2710   -3.7752   -1.2506 H   0  0  0  0  0  0  0  0  0  0  0  0
    2.8335   -4.2351   -1.9380 H   0  0  0  0  0  0  0  0  0  0  0  0
    2.0897   -2.8113    2.1375 H   0  0  0  0  0  0  0  0  0  0  0  0
    1.3790   -2.4125    0.6583 H   0  0  0  0  0  0  0  0  0  0  0  0
    2.7278   -1.7648    0.9605 H   0  0  0  0  0  0  0  0  0  0  0  0
    1.2650   -4.5627    1.8323 H   0  0  0  0  0  0  0  0  0  0  0  0
    0.1319   -5.8581    0.2934 H   0  0  0  0  0  0  0  0  0  0  0  0
    1.4281   -6.9545    0.1309 H   0  0  0  0  0  0  0  0  0  0  0  0
   -0.5263   -7.0624    2.1646 H   0  0  0  0  0  0  0  0  0  0  0  0
    0.9349   -7.9850    2.1226 H   0  0  0  0  0  0  0  0  0  0  0  0
    0.1918   -5.7137    3.9605 H   0  0  0  0  0  0  0  0  0  0  0  0
    1.8663   -6.6797    5.5346 H   0  0  0  0  0  0  0  0  0  0  0  0
    1.8914   -8.7578    4.4572 H   0  0  0  0  0  0  0  0  0  0  0  0
    1.6774   -3.6181    3.9491 H   0  0  0  0  0  0  0  0  0  0  0  0
    2.4078   -4.3720    5.2684 H   0  0  0  0  0  0  0  0  0  0  0  0
    4.3062   -1.4428    5.3987 H   0  0  0  0  0  0  0  0  0  0  0  0
    3.1948   -2.5526    6.1385 H   0  0  0  0  0  0  0  0  0  0  0  0
    2.6481   -1.5410    4.8223 H   0  0  0  0  0  0  0  0  0  0  0  0
    6.0352   -3.5839    4.4748 H   0  0  0  0  0  0  0  0  0  0  0  0
    5.0369   -5.0293    4.7172 H   0  0  0  0  0  0  0  0  0  0  0  0
    5.0898   -3.7920    5.9124 H   0  0  0  0  0  0  0  0  0  0  0  0
    5.0512   -1.5896    3.3963 H   0  0  0  0  0  0  0  0  0  0  0  0
    3.6053   -1.5211    2.7352 H   0  0  0  0  0  0  0  0  0  0  0  0
    3.7042   -4.7755    2.3671 H   0  0  0  0  0  0  0  0  0  0  0  0
    5.3916   -6.5081    0.0259 H   0  0  0  0  0  0  0  0  0  0  0  0
    3.7655   -6.5670   -0.5934 H   0  0  0  0  0  0  0  0  0  0  0  0
    4.5552   -4.4257   -0.8525 H   0  0  0  0  0  0  0  0  0  0  0  0
    6.8538   -4.7736   -0.5015 H   0  0  0  0  0  0  0  0  0  0  0  0
    7.6468   -3.4980    0.3344 H   0  0  0  0  0  0  0  0  0  0  0  0
    6.5336   -3.1529   -0.9670 H   0  0  0  0  0  0  0  0  0  0  0  0
    6.6965   -5.7066    1.5127 H   0  0  0  0  0  0  0  0  0  0  0  0
    5.6195   -5.1996    2.7510 H   0  0  0  0  0  0  0  0  0  0  0  0
    7.0526   -4.3257    2.4530 H   0  0  0  0  0  0  0  0  0  0  0  0
    3.3620   -1.0750   -4.3770 H   0  0  0  0  0  0  0  0  0  0  0  0
    4.5845   -0.0638   -3.5922 H   0  0  0  0  0  0  0  0  0  0  0  0
    2.9178   -0.0191   -3.0713 H   0  0  0  0  0  0  0  0  0  0  0  0
    4.7136   -2.9448   -4.0816 H   0  0  0  0  0  0  0  0  0  0  0  0
    5.0795   -3.6753   -2.5758 H   0  0  0  0  0  0  0  0  0  0  0  0
    5.9951   -2.2917   -3.0608 H   0  0  0  0  0  0  0  0  0  0  0  0
  1  2  1  0
  1 33  1  0
  1 34  1  0
  1 35  1  0
  3  2  1  1
  3 21  1  0
  3 27  1  0
  3  4  1  0
  4  5  1  0
  4 36  1  0
  4 37  1  0
  5 30  1  0
  5  6  1  0
  5 38  1  6
  6  7  1  0
  6 30  1  0
  6 39  1  6
  7  8  1  0
  7 40  1  0
  7 41  1  0
  8 26  1  0
  8  9  1  1
  8 10  1  0
  9 42  1  0
  9 43  1  0
  9 44  1  0
 10 22  1  0
 10 11  1  0
 10 45  1  1
 11 12  1  0
 11 46  1  0
 11 47  1  0
 12 13  1  0
 12 48  1  0
 12 49  1  0
 13 16  1  0
 13 14  1  0
 13 50  1  1
 14 15  1  0
 14 16  1  0
 14 51  1  1
 15 52  1  0
 16 17  1  1
 16 22  1  0
 17 18  1  0
 17 53  1  0
 17 54  1  0
 18 19  1  0
 18 20  1  0
 18 21  1  0
 19 55  1  0
 19 56  1  0
 19 57  1  0
 20 58  1  0
 20 59  1  0
 20 60  1  0
 21 61  1  0
 21 62  1  0
 22 23  1  0
 22 63  1  1
 23 24  2  0
 23 25  1  0
 25 26  1  0
 25 64  1  0
 25 65  1  0
 26 27  1  0
 26 66  1  6
 27 28  1  0
 27 29  1  0
 28 67  1  0
 28 68  1  0
 28 69  1  0
 29 70  1  0
 29 71  1  0
 29 72  1  0
 30 31  1  0
 30 32  1  0
 31 73  1  0
 31 74  1  0
 31 75  1  0
 32 76  1  0
 32 77  1  0
 32 78  1  0
M  END
>  <i_m_ct_stereo_status>  (149) 
1

>  <s_m_source_file>  (149) 
/var/tmp/pbs.5076255.sched01/tmpx9mnojvb/44r91_cmns.sdf

>  <i_m_source_file_index>  (149) 
29

>  <i_lp_mmshare_version>  (149) 
48012

>  <i_f3d_flags>  (149) 
0

>  <s_epik_input>  (149) 
W0NIM11DMShbQ0gzXSlbQ0BASF0oW0NIMl0yKVtDQEhdMVtDSDJdW0NAQF0oT1tDSDNdKShbQ0gyXUMoW0NIMl0zKShbQ0gzXSlbQ0gzXSlDKFtDSDNdKShbQ0gzXSlbQ0BASF0oW0NIMl1DKD1PKVtDQEBIXTQ1KVtDQF0yKFtDSDNdKVtDQEhdNFtDSDJdW0NIMl1bQ0BIXShbQ0BdMzU2KVtDQEhdNltPSF0=

>  <s_epik_cmdline>  (149) 
J2VwaWtfcHl0aG9uJywgJy1waHQnLCAnMi4wJywgJy1waCcsICc3LjAnLCAnLXRuJywgJzgnLCAnLW1hJywgJzIwMCcsICctaW1hZScsICc8aW5maWxlLm1hZT4nLCAnLW9tYWUnLCAnPG91dGZpbGUubWFlPic=

>  <r_lp_tautomer_probability>  (149) 
1

>  <r_epik_Ionization_Penalty>  (149) 
1.32392e-06

>  <r_epik_Ionization_Penalty_Charging>  (149) 
0

>  <r_epik_Ionization_Penalty_Neutral>  (149) 
1.32392e-06

>  <r_epik_State_Penalty>  (149) 
-0

>  <r_epik_Charging_Adjusted_Penalty>  (149) 
0

>  <i_epik_Tot_Q>  (149) 
0

>  <i_epik_Tot_abs_Q>  (149) 
0

>  <s_lp_Force_Field>  (149) 
OPLS3e

>  <r_lp_Energy>  (149) 
270.32

>  <b_lp_Chiralities_Consistent>  (149) 
1

>  <s_lp_Variant>  (149) 
39:0-1

>  <s_i_glide_gridfile>  (149) 
pfpi4k_grid

>  <i_i_glide_lignum>  (149) 
29

>  <i_i_glide_rotatable_bonds>  (149) 
2

>  <r_i_docking_score>  (149) 
-1.08918

>  <r_i_glide_ligand_efficiency>  (149) 
-0.0340369

>  <r_i_glide_ligand_efficiency_sa>  (149) 
-0.108061

>  <r_i_glide_ligand_efficiency_ln>  (149) 
-0.243898

>  <r_i_glide_gscore>  (149) 
-1.08918

>  <r_i_glide_lipo>  (149) 
-0.714364

>  <r_i_glide_hbond>  (149) 
0

>  <r_i_glide_metal>  (149) 
-0

>  <r_i_glide_rewards>  (149) 
-0.469157

>  <r_i_glide_evdw>  (149) 
0.114357

>  <r_i_glide_ecoul>  (149) 
-0.662042

>  <r_i_glide_erotb>  (149) 
0

>  <r_i_glide_esite>  (149) 
0

>  <r_i_glide_emodel>  (149) 
1.21896

>  <r_i_glide_energy>  (149) 
-0.547685

>  <r_i_glide_einternal>  (149) 
1.70125

>  <r_i_glide_intrahb_reward>  (149) 
-0

>  <i_i_glide_confnum>  (149) 
1

>  <i_i_glide_posenum>  (149) 
4

>  <r_i_glide_eff_state_penalty>  (149) 
0

>  <ligand_id>  (149) 
39

>  <original_smiles>  (149) 
COC12CC3C(CC4(C)C5CCC6C(O)C6(CC(C)(C)C1)C5C(=O)CC4C2(C)C)C3(C)C

>  <smiles>  (149) 
[H]OC1([H])C2([H])C([H])([H])C([H])([H])C3([H])C4([H])C(=O)C([H])([H])C5([H])C3(C([H])([H])[H])C([H])([H])C3([H])C([H])(C([H])([H])C(OC([H])([H])[H])(C([H])([H])C(C([H])([H])[H])(C([H])([H])[H])C([H])([H])C142)C5(C([H])([H])[H])C([H])([H])[H])C3(C([H])([H])[H])C([H])([H])[H]

$$$$
41:0:0
     RDKit          3D

 68 72  0  0  1  0  0  0  0  0999 V2000
    3.0966   -1.7416    4.8856 C   0  0  0  0  0  0  0  0  0  0  0  0
    4.1268   -1.8447    3.7285 C   0  0  0  0  0  0  0  0  0  0  0  0
    4.9607   -0.5508    3.8837 C   0  0  0  0  0  0  0  0  0  0  0  0
    5.0077   -3.0820    3.8206 C   0  0  0  0  0  0  0  0  0  0  0  0
    5.4246   -3.8856    2.8106 C   0  0  0  0  0  0  0  0  0  0  0  0
    5.2847   -5.4308    3.0073 C   0  0  2  0  0  0  0  0  0  0  0  0
    5.5021   -6.2266    1.6773 C   0  0  0  0  0  0  0  0  0  0  0  0
    4.9011   -5.5950    0.4168 C   0  0  1  0  0  0  0  0  0  0  0  0
    3.7077   -6.2566    0.0914 O   0  0  0  0  0  0  0  0  0  0  0  0
    4.9025   -4.0354    0.3666 C   0  0  2  0  0  0  0  0  0  0  0  0
    5.9069   -3.4460    1.3859 C   0  0  2  0  0  0  0  0  0  0  0  0
    7.3700   -3.9865    1.2013 C   0  0  0  0  0  0  0  0  0  0  0  0
    6.1437   -1.9361    1.0085 C   0  0  0  0  0  0  0  0  0  0  0  0
    4.9894   -1.0375    0.5333 C   0  0  0  0  0  0  0  0  0  0  0  0
    3.8702   -1.7922   -0.1846 C   0  0  1  0  0  0  0  0  0  0  0  0
    4.2282   -1.8366   -1.5596 O   0  0  0  0  0  0  0  0  0  0  0  0
    3.5503   -3.2158    0.3929 C   0  0  1  0  0  0  0  0  0  0  0  0
    2.5017   -3.7903   -0.6117 C   0  0  0  0  0  0  0  0  0  0  0  0
    2.8587   -3.0560    1.8201 C   0  0  1  0  0  0  0  0  0  0  0  0
    2.2709   -4.3634    2.5121 C   0  0  0  0  0  0  0  0  0  0  0  0
    2.7431   -5.0099    3.8625 C   0  0  1  0  0  0  0  0  0  0  0  0
    1.5203   -5.6153    4.5533 C   0  0  0  0  0  0  0  0  0  0  0  0
    0.6384   -6.6379    4.0784 C   0  0  0  0  0  0  0  0  0  0  0  0
   -0.2841   -6.8522    5.0559 C   0  0  0  0  0  0  0  0  0  0  0  0
   -0.0917   -5.9978    6.0947 O   0  0  0  0  0  0  0  0  0  0  0  0
    1.0032   -5.2565    5.7701 C   0  0  0  0  0  0  0  0  0  0  0  0
    4.0204   -5.9578    3.8524 C   0  0  0  0  0  0  0  0  0  0  0  0
    3.6003   -7.3995    3.4424 C   0  0  0  0  0  0  0  0  0  0  0  0
    4.4822   -6.1756    5.3247 C   0  0  0  0  0  0  0  0  0  0  0  0
    3.2748   -1.8734    2.5702 O   0  0  0  0  0  0  0  0  0  0  0  0
    3.5266   -1.9959    5.8547 H   0  0  0  0  0  0  0  0  0  0  0  0
    2.2024   -2.3415    4.7308 H   0  0  0  0  0  0  0  0  0  0  0  0
    2.7142   -0.7238    4.9715 H   0  0  0  0  0  0  0  0  0  0  0  0
    5.3408   -0.4539    4.9011 H   0  0  0  0  0  0  0  0  0  0  0  0
    4.3552    0.3336    3.6819 H   0  0  0  0  0  0  0  0  0  0  0  0
    5.8307   -0.4920    3.2475 H   0  0  0  0  0  0  0  0  0  0  0  0
    4.8797   -3.5338    4.7828 H   0  0  0  0  0  0  0  0  0  0  0  0
    6.1636   -5.6937    3.5970 H   0  0  0  0  0  0  0  0  0  0  0  0
    6.5700   -6.3290    1.5122 H   0  0  0  0  0  0  0  0  0  0  0  0
    5.2691   -7.2845    1.7000 H   0  0  0  0  0  0  0  0  0  0  0  0
    5.5620   -5.9101   -0.3869 H   0  0  0  0  0  0  0  0  0  0  0  0
    3.5015   -6.0864   -0.8259 H   0  0  0  0  0  0  0  0  0  0  0  0
    5.3341   -3.8390   -0.6141 H   0  0  0  0  0  0  0  0  0  0  0  0
    7.5170   -4.4867    0.2446 H   0  0  0  0  0  0  0  0  0  0  0  0
    7.6857   -4.6595    1.9990 H   0  0  0  0  0  0  0  0  0  0  0  0
    8.1318   -3.2086    1.2561 H   0  0  0  0  0  0  0  0  0  0  0  0
    6.7863   -1.4274    1.7231 H   0  0  0  0  0  0  0  0  0  0  0  0
    6.7624   -1.9554    0.1090 H   0  0  0  0  0  0  0  0  0  0  0  0
    4.5737   -0.4486    1.3412 H   0  0  0  0  0  0  0  0  0  0  0  0
    5.3834   -0.2632   -0.1264 H   0  0  0  0  0  0  0  0  0  0  0  0
    2.9849   -1.1620   -0.1363 H   0  0  0  0  0  0  0  0  0  0  0  0
    3.4442   -2.0443   -2.0448 H   0  0  0  0  0  0  0  0  0  0  0  0
    1.7661   -3.0555   -0.9170 H   0  0  0  0  0  0  0  0  0  0  0  0
    1.9094   -4.6161   -0.2283 H   0  0  0  0  0  0  0  0  0  0  0  0
    2.9850   -4.1360   -1.5230 H   0  0  0  0  0  0  0  0  0  0  0  0
    1.9221   -2.5982    1.4963 H   0  0  0  0  0  0  0  0  0  0  0  0
    1.2273   -4.1000    2.6890 H   0  0  0  0  0  0  0  0  0  0  0  0
    2.2023   -5.1748    1.7971 H   0  0  0  0  0  0  0  0  0  0  0  0
    2.9475   -4.2350    4.5731 H   0  0  0  0  0  0  0  0  0  0  0  0
    0.7050   -7.1989    3.1594 H   0  0  0  0  0  0  0  0  0  0  0  0
   -1.1016   -7.5453    5.1700 H   0  0  0  0  0  0  0  0  0  0  0  0
    1.2801   -4.5325    6.5196 H   0  0  0  0  0  0  0  0  0  0  0  0
    2.8989   -7.8544    4.1392 H   0  0  0  0  0  0  0  0  0  0  0  0
    4.4399   -8.0944    3.4501 H   0  0  0  0  0  0  0  0  0  0  0  0
    3.1350   -7.4217    2.4556 H   0  0  0  0  0  0  0  0  0  0  0  0
    3.6989   -6.6342    5.9307 H   0  0  0  0  0  0  0  0  0  0  0  0
    4.7740   -5.2676    5.8462 H   0  0  0  0  0  0  0  0  0  0  0  0
    5.3383   -6.8518    5.3742 H   0  0  0  0  0  0  0  0  0  0  0  0
  1  2  1  0
  1 31  1  0
  1 32  1  0
  1 33  1  0
  2 30  1  0
  2  3  1  0
  2  4  1  0
  3 34  1  0
  3 35  1  0
  3 36  1  0
  4  5  2  3
  4 37  1  0
  5 11  1  0
  5  6  1  0
  6 27  1  0
  6  7  1  0
  6 38  1  1
  7  8  1  0
  7 39  1  0
  7 40  1  0
  8  9  1  0
  8 10  1  0
  8 41  1  6
  9 42  1  0
 10 17  1  0
 10 11  1  0
 10 43  1  6
 11 12  1  6
 11 13  1  0
 12 44  1  0
 12 45  1  0
 12 46  1  0
 13 14  1  0
 13 47  1  0
 13 48  1  0
 14 15  1  0
 14 49  1  0
 14 50  1  0
 15 16  1  0
 15 17  1  0
 15 51  1  6
 16 52  1  0
 17 18  1  6
 17 19  1  0
 18 53  1  0
 18 54  1  0
 18 55  1  0
 19 20  1  0
 19 30  1  0
 19 56  1  6
 20 21  1  0
 20 57  1  0
 20 58  1  0
 21 22  1  0
 21 27  1  0
 21 59  1  1
 22 26  2  0
 22 23  1  0
 23 24  2  0
 23 60  1  0
 24 25  1  0
 24 61  1  0
 25 26  1  0
 26 62  1  0
 27 28  1  0
 27 29  1  0
 28 63  1  0
 28 64  1  0
 28 65  1  0
 29 66  1  0
 29 67  1  0
 29 68  1  0
M  END
>  <i_m_ct_stereo_status>  (150) 
1

>  <s_m_source_file>  (150) 
/var/tmp/pbs.5076255.sched01/tmpx9mnojvb/44r91_cmns.sdf

>  <i_m_source_file_index>  (150) 
31

>  <i_lp_mmshare_version>  (150) 
48012

>  <i_f3d_flags>  (150) 
0

>  <s_epik_input>  (150) 
W2NIXTFvW2NIXVtjSF1jMVtDQEBIXShDMihbQ0gzXSlbQ0gzXSlbQ0gyXVtDQEBIXShPQyhbQ0gzXSkoW0NIM10pL1tDSF09MylbQ0BAXShbQ0gzXSkoW0NASF0oW09IXSlbQ0gyXVtDSDJdNClbQ0BASF01W0NASF0oW09IXSlbQ0gyXVtDQEhdMlxDM1tDQF00NVtDSDNd

>  <s_epik_cmdline>  (150) 
J2VwaWtfcHl0aG9uJywgJy1waHQnLCAnMi4wJywgJy1waCcsICc3LjAnLCAnLXRuJywgJzgnLCAnLW1hJywgJzIwMCcsICctaW1hZScsICc8aW5maWxlLm1hZT4nLCAnLW9tYWUnLCAnPG91dGZpbGUubWFlPic=

>  <r_lp_tautomer_probability>  (150) 
1

>  <r_epik_Ionization_Penalty>  (150) 
1.30567e-06

>  <r_epik_Ionization_Penalty_Charging>  (150) 
0

>  <r_epik_Ionization_Penalty_Neutral>  (150) 
1.30567e-06

>  <r_epik_State_Penalty>  (150) 
-0

>  <r_epik_Charging_Adjusted_Penalty>  (150) 
0

>  <i_epik_Tot_Q>  (150) 
0

>  <i_epik_Tot_abs_Q>  (150) 
0

>  <s_lp_Force_Field>  (150) 
OPLS3e

>  <r_lp_Energy>  (150) 
127.725

>  <b_lp_Chiralities_Consistent>  (150) 
1

>  <s_lp_Variant>  (150) 
41:0-1

>  <s_i_glide_gridfile>  (150) 
pfpi4k_grid

>  <i_i_glide_lignum>  (150) 
31

>  <i_i_glide_rotatable_bonds>  (150) 
3

>  <r_i_docking_score>  (150) 
-3.46189

>  <r_i_glide_ligand_efficiency>  (150) 
-0.115396

>  <r_i_glide_ligand_efficiency_sa>  (150) 
-0.358563

>  <r_i_glide_ligand_efficiency_ln>  (150) 
-0.786578

>  <r_i_glide_gscore>  (150) 
-3.46189

>  <r_i_glide_lipo>  (150) 
-0.7729

>  <r_i_glide_hbond>  (150) 
-0.32

>  <r_i_glide_metal>  (150) 
-0

>  <r_i_glide_rewards>  (150) 
-0.582426

>  <r_i_glide_evdw>  (150) 
-24.1681

>  <r_i_glide_ecoul>  (150) 
-4.61998

>  <r_i_glide_erotb>  (150) 
0.114844

>  <r_i_glide_esite>  (150) 
0

>  <r_i_glide_emodel>  (150) 
-36.0782

>  <r_i_glide_energy>  (150) 
-28.7881

>  <r_i_glide_einternal>  (150) 
0.95939

>  <r_i_glide_intrahb_reward>  (150) 
-0

>  <i_i_glide_confnum>  (150) 
1

>  <i_i_glide_posenum>  (150) 
32

>  <r_i_glide_eff_state_penalty>  (150) 
0

>  <ligand_id>  (150) 
41

>  <original_smiles>  (150) 
CC1(C)C=C2C3CC(O)C4C2(C)CCC(O)C4(C)C(CC(c2ccoc2)C3(C)C)O1

>  <smiles>  (150) 
[H]OC1([H])C([H])([H])C2([H])C3=C([H])C(C([H])([H])[H])(C([H])([H])[H])OC([H])(C([H])([H])C([H])(c4c([H])oc([H])c4[H])C2(C([H])([H])[H])C([H])([H])[H])C2(C([H])([H])[H])C([H])(O[H])C([H])([H])C([H])([H])C3(C([H])([H])[H])C12[H]

$$$$
41:0:1
     RDKit          3D

 68 72  0  0  1  0  0  0  0  0999 V2000
    0.2517    2.0237    8.6050 C   0  0  0  0  0  0  0  0  0  0  0  0
    0.6548    2.8750    7.3709 C   0  0  0  0  0  0  0  0  0  0  0  0
    1.0043    4.2476    7.9922 C   0  0  0  0  0  0  0  0  0  0  0  0
    1.8366    2.2982    6.6019 C   0  0  0  0  0  0  0  0  0  0  0  0
    2.0236    2.2494    5.2617 C   0  0  0  0  0  0  0  0  0  0  0  0
    2.4717    0.8813    4.6357 C   0  0  2  0  0  0  0  0  0  0  0  0
    2.3324    0.8495    3.0749 C   0  0  0  0  0  0  0  0  0  0  0  0
    1.0738    1.5079    2.5014 C   0  0  1  0  0  0  0  0  0  0  0  0
    0.1381    0.5256    2.1139 O   0  0  0  0  0  0  0  0  0  0  0  0
    0.5648    2.7472    3.3047 C   0  0  2  0  0  0  0  0  0  0  0  0
    1.6600    3.3541    4.2171 C   0  0  2  0  0  0  0  0  0  0  0  0
    2.9806    3.7265    3.4642 C   0  0  0  0  0  0  0  0  0  0  0  0
    1.2062    4.7990    4.6397 C   0  0  0  0  0  0  0  0  0  0  0  0
   -0.2573    5.1075    4.9786 C   0  0  0  0  0  0  0  0  0  0  0  0
   -1.2652    4.2331    4.2284 C   0  0  1  0  0  0  0  0  0  0  0  0
   -1.5833    4.9029    3.0095 O   0  0  0  0  0  0  0  0  0  0  0  0
   -0.8316    2.7413    4.0404 C   0  0  1  0  0  0  0  0  0  0  0  0
   -1.9630    2.1629    3.1523 C   0  0  0  0  0  0  0  0  0  0  0  0
   -0.8536    2.0043    5.4498 C   0  0  1  0  0  0  0  0  0  0  0  0
   -0.6318    0.4297    5.4629 C   0  0  0  0  0  0  0  0  0  0  0  0
    0.5623   -0.3443    6.1301 C   0  0  1  0  0  0  0  0  0  0  0  0
    0.0408   -1.6826    6.6555 C   0  0  0  0  0  0  0  0  0  0  0  0
   -0.7622   -2.6467    5.9817 C   0  0  0  0  0  0  0  0  0  0  0  0
   -0.9835   -3.6696    6.8574 C   0  0  0  0  0  0  0  0  0  0  0  0
   -0.3909   -3.4101    8.0516 O   0  0  0  0  0  0  0  0  0  0  0  0
    0.2300   -2.2104    7.9078 C   0  0  0  0  0  0  0  0  0  0  0  0
    1.9345   -0.4634    5.3393 C   0  0  0  0  0  0  0  0  0  0  0  0
    1.8427   -1.6587    4.3452 C   0  0  0  0  0  0  0  0  0  0  0  0
    3.0353   -0.9541    6.3252 C   0  0  0  0  0  0  0  0  0  0  0  0
   -0.5595    2.8583    6.5964 O   0  0  0  0  0  0  0  0  0  0  0  0
    1.1172    1.6761    9.1727 H   0  0  0  0  0  0  0  0  0  0  0  0
   -0.3753    1.1692    8.3627 H   0  0  0  0  0  0  0  0  0  0  0  0
   -0.3596    2.6065    9.2954 H   0  0  0  0  0  0  0  0  0  0  0  0
    1.7367    4.1331    8.7935 H   0  0  0  0  0  0  0  0  0  0  0  0
    0.1235    4.7215    8.4272 H   0  0  0  0  0  0  0  0  0  0  0  0
    1.4426    4.9583    7.3073 H   0  0  0  0  0  0  0  0  0  0  0  0
    2.2908    1.5222    7.1859 H   0  0  0  0  0  0  0  0  0  0  0  0
    3.5516    0.8849    4.7804 H   0  0  0  0  0  0  0  0  0  0  0  0
    3.1857    1.3629    2.6433 H   0  0  0  0  0  0  0  0  0  0  0  0
    2.4880   -0.1116    2.5958 H   0  0  0  0  0  0  0  0  0  0  0  0
    1.3903    1.9041    1.5344 H   0  0  0  0  0  0  0  0  0  0  0  0
    0.0329    0.5611    1.1667 H   0  0  0  0  0  0  0  0  0  0  0  0
    0.4466    3.4600    2.5027 H   0  0  0  0  0  0  0  0  0  0  0  0
    2.8435    3.7616    2.3812 H   0  0  0  0  0  0  0  0  0  0  0  0
    3.8025    3.0480    3.6897 H   0  0  0  0  0  0  0  0  0  0  0  0
    3.3984    4.6944    3.7508 H   0  0  0  0  0  0  0  0  0  0  0  0
    1.8959    5.2488    5.3501 H   0  0  0  0  0  0  0  0  0  0  0  0
    1.3394    5.4243    3.7516 H   0  0  0  0  0  0  0  0  0  0  0  0
   -0.4452    5.0733    6.0439 H   0  0  0  0  0  0  0  0  0  0  0  0
   -0.4463    6.1575    4.7540 H   0  0  0  0  0  0  0  0  0  0  0  0
   -2.1909    4.2495    4.8046 H   0  0  0  0  0  0  0  0  0  0  0  0
   -0.9127    4.7103    2.3535 H   0  0  0  0  0  0  0  0  0  0  0  0
   -2.9515    2.4986    3.4713 H   0  0  0  0  0  0  0  0  0  0  0  0
   -2.0067    1.0799    3.1730 H   0  0  0  0  0  0  0  0  0  0  0  0
   -1.8473    2.4580    2.1096 H   0  0  0  0  0  0  0  0  0  0  0  0
   -1.9293    2.0246    5.6282 H   0  0  0  0  0  0  0  0  0  0  0  0
   -1.5285    0.0611    5.9635 H   0  0  0  0  0  0  0  0  0  0  0  0
   -0.7302    0.0263    4.4600 H   0  0  0  0  0  0  0  0  0  0  0  0
    0.7906    0.1072    7.0735 H   0  0  0  0  0  0  0  0  0  0  0  0
   -1.1199   -2.6022    4.9633 H   0  0  0  0  0  0  0  0  0  0  0  0
   -1.5102   -4.6118    6.8013 H   0  0  0  0  0  0  0  0  0  0  0  0
    0.7585   -1.8788    8.7886 H   0  0  0  0  0  0  0  0  0  0  0  0
    1.6646   -2.6102    4.8433 H   0  0  0  0  0  0  0  0  0  0  0  0
    2.7789   -1.8127    3.8087 H   0  0  0  0  0  0  0  0  0  0  0  0
    1.0407   -1.5286    3.6192 H   0  0  0  0  0  0  0  0  0  0  0  0
    2.7929   -1.9273    6.7531 H   0  0  0  0  0  0  0  0  0  0  0  0
    3.2144   -0.2897    7.1660 H   0  0  0  0  0  0  0  0  0  0  0  0
    3.9934   -1.0809    5.8192 H   0  0  0  0  0  0  0  0  0  0  0  0
  1  2  1  0
  1 31  1  0
  1 32  1  0
  1 33  1  0
  2 30  1  0
  2  3  1  0
  2  4  1  0
  3 34  1  0
  3 35  1  0
  3 36  1  0
  4  5  2  3
  4 37  1  0
  5 11  1  0
  5  6  1  0
  6 27  1  0
  6  7  1  0
  6 38  1  6
  7  8  1  0
  7 39  1  0
  7 40  1  0
  8  9  1  0
  8 10  1  0
  8 41  1  6
  9 42  1  0
 10 17  1  0
 10 11  1  0
 10 43  1  6
 11 12  1  6
 11 13  1  0
 12 44  1  0
 12 45  1  0
 12 46  1  0
 13 14  1  0
 13 47  1  0
 13 48  1  0
 14 15  1  0
 14 49  1  0
 14 50  1  0
 15 16  1  0
 15 17  1  0
 15 51  1  1
 16 52  1  0
 17 18  1  6
 17 19  1  0
 18 53  1  0
 18 54  1  0
 18 55  1  0
 19 20  1  0
 19 30  1  0
 19 56  1  1
 20 21  1  0
 20 57  1  0
 20 58  1  0
 21 22  1  0
 21 27  1  0
 21 59  1  1
 22 26  2  0
 22 23  1  0
 23 24  2  0
 23 60  1  0
 24 25  1  0
 24 61  1  0
 25 26  1  0
 26 62  1  0
 27 28  1  0
 27 29  1  0
 28 63  1  0
 28 64  1  0
 28 65  1  0
 29 66  1  0
 29 67  1  0
 29 68  1  0
M  END
>  <i_m_ct_stereo_status>  (151) 
1

>  <s_m_source_file>  (151) 
/var/tmp/pbs.5076255.sched01/tmpx9mnojvb/44r91_cmns.sdf

>  <i_m_source_file_index>  (151) 
31

>  <i_lp_mmshare_version>  (151) 
48012

>  <i_f3d_flags>  (151) 
0

>  <s_epik_input>  (151) 
W2NIXTFvW2NIXVtjSF1jMVtDQEBIXShDMihbQ0gzXSlbQ0gzXSlbQ0gyXVtDQEBIXShPQyhbQ0gzXSkoW0NIM10pL1tDSF09MylbQ0BAXShbQ0gzXSkoW0NASF0oW09IXSlbQ0gyXVtDSDJdNClbQ0BASF01W0NASF0oW09IXSlbQ0gyXVtDQEhdMlxDM1tDQF00NVtDSDNd

>  <s_epik_cmdline>  (151) 
J2VwaWtfcHl0aG9uJywgJy1waHQnLCAnMi4wJywgJy1waCcsICc3LjAnLCAnLXRuJywgJzgnLCAnLW1hJywgJzIwMCcsICctaW1hZScsICc8aW5maWxlLm1hZT4nLCAnLW9tYWUnLCAnPG91dGZpbGUubWFlPic=

>  <r_lp_tautomer_probability>  (151) 
1

>  <r_epik_Ionization_Penalty>  (151) 
1.30567e-06

>  <r_epik_Ionization_Penalty_Charging>  (151) 
0

>  <r_epik_Ionization_Penalty_Neutral>  (151) 
1.30567e-06

>  <r_epik_State_Penalty>  (151) 
-0

>  <r_epik_Charging_Adjusted_Penalty>  (151) 
0

>  <i_epik_Tot_Q>  (151) 
0

>  <i_epik_Tot_abs_Q>  (151) 
0

>  <s_lp_Force_Field>  (151) 
OPLS3e

>  <r_lp_Energy>  (151) 
127.725

>  <b_lp_Chiralities_Consistent>  (151) 
1

>  <s_lp_Variant>  (151) 
41:0-1

>  <s_i_glide_gridfile>  (151) 
pfpi4k_grid

>  <i_i_glide_lignum>  (151) 
31

>  <i_i_glide_rotatable_bonds>  (151) 
3

>  <r_i_docking_score>  (151) 
-3.17955

>  <r_i_glide_ligand_efficiency>  (151) 
-0.105985

>  <r_i_glide_ligand_efficiency_sa>  (151) 
-0.32932

>  <r_i_glide_ligand_efficiency_ln>  (151) 
-0.722429

>  <r_i_glide_gscore>  (151) 
-3.17955

>  <r_i_glide_lipo>  (151) 
-2.24866e-05

>  <r_i_glide_hbond>  (151) 
-0.416196

>  <r_i_glide_metal>  (151) 
-0

>  <r_i_glide_rewards>  (151) 
-0.582426

>  <r_i_glide_evdw>  (151) 
-21.254

>  <r_i_glide_ecoul>  (151) 
-8.22037

>  <r_i_glide_erotb>  (151) 
0.114844

>  <r_i_glide_esite>  (151) 
0

>  <r_i_glide_emodel>  (151) 
-35.8181

>  <r_i_glide_energy>  (151) 
-29.4743

>  <r_i_glide_einternal>  (151) 
1.61513

>  <r_i_glide_intrahb_reward>  (151) 
-0

>  <i_i_glide_confnum>  (151) 
3

>  <i_i_glide_posenum>  (151) 
26

>  <r_i_glide_eff_state_penalty>  (151) 
0

>  <ligand_id>  (151) 
41

>  <original_smiles>  (151) 
CC1(C)C=C2C3CC(O)C4C2(C)CCC(O)C4(C)C(CC(c2ccoc2)C3(C)C)O1

>  <smiles>  (151) 
[H]OC1([H])C([H])([H])C2([H])C3=C([H])C(C([H])([H])[H])(C([H])([H])[H])OC([H])(C([H])([H])C([H])(c4c([H])oc([H])c4[H])C2(C([H])([H])[H])C([H])([H])[H])C2(C([H])([H])[H])C([H])(O[H])C([H])([H])C([H])([H])C3(C([H])([H])[H])C12[H]

$$$$
41:0:2
     RDKit          3D

 68 72  0  0  1  0  0  0  0  0999 V2000
    5.0939   -9.8304    2.3507 C   0  0  0  0  0  0  0  0  0  0  0  0
    3.9003   -9.8763    3.3423 C   0  0  0  0  0  0  0  0  0  0  0  0
    3.9123  -11.3392    3.8461 C   0  0  0  0  0  0  0  0  0  0  0  0
    4.0528   -8.8935    4.4969 C   0  0  0  0  0  0  0  0  0  0  0  0
    3.0980   -8.1267    5.0763 C   0  0  0  0  0  0  0  0  0  0  0  0
    3.4216   -6.6090    5.2936 C   0  0  2  0  0  0  0  0  0  0  0  0
    2.1531   -5.7672    5.6580 C   0  0  0  0  0  0  0  0  0  0  0  0
    0.8720   -6.1232    4.8951 C   0  0  1  0  0  0  0  0  0  0  0  0
    0.6659   -5.1718    3.8805 O   0  0  0  0  0  0  0  0  0  0  0  0
    0.7025   -7.6334    4.5263 C   0  0  2  0  0  0  0  0  0  0  0  0
    1.6196   -8.5353    5.3957 C   0  0  2  0  0  0  0  0  0  0  0  0
    1.4205   -8.3461    6.9413 C   0  0  0  0  0  0  0  0  0  0  0  0
    1.1114  -10.0172    5.2551 C   0  0  0  0  0  0  0  0  0  0  0  0
    0.6232  -10.5751    3.9078 C   0  0  0  0  0  0  0  0  0  0  0  0
    0.0121   -9.5209    2.9828 C   0  0  1  0  0  0  0  0  0  0  0  0
   -1.3764   -9.4240    3.2755 O   0  0  0  0  0  0  0  0  0  0  0  0
    0.7182   -8.1176    3.0177 C   0  0  1  0  0  0  0  0  0  0  0  0
   -0.1852   -7.2377    2.0980 C   0  0  0  0  0  0  0  0  0  0  0  0
    2.1542   -8.2427    2.3475 C   0  0  1  0  0  0  0  0  0  0  0  0
    2.9751   -6.9073    2.0959 C   0  0  0  0  0  0  0  0  0  0  0  0
    4.3548   -6.5122    2.7417 C   0  0  1  0  0  0  0  0  0  0  0  0
    5.1499   -5.6924    1.7305 C   0  0  0  0  0  0  0  0  0  0  0  0
    4.6782   -4.7040    0.8133 C   0  0  0  0  0  0  0  0  0  0  0  0
    5.7590   -4.2702    0.1060 C   0  0  0  0  0  0  0  0  0  0  0  0
    6.8862   -4.9101    0.5054 O   0  0  0  0  0  0  0  0  0  0  0  0
    6.4984   -5.7740    1.4786 C   0  0  0  0  0  0  0  0  0  0  0  0
    4.3626   -5.8870    4.2027 C   0  0  0  0  0  0  0  0  0  0  0  0
    4.0923   -4.3577    4.0935 C   0  0  0  0  0  0  0  0  0  0  0  0
    5.8213   -5.9103    4.7527 C   0  0  0  0  0  0  0  0  0  0  0  0
    2.7862   -9.5468    2.4922 O   0  0  0  0  0  0  0  0  0  0  0  0
    6.0603   -9.7750    2.8516 H   0  0  0  0  0  0  0  0  0  0  0  0
    5.0246   -9.0342    1.6126 H   0  0  0  0  0  0  0  0  0  0  0  0
    5.1187  -10.7291    1.7386 H   0  0  0  0  0  0  0  0  0  0  0  0
    4.8996  -11.6138    4.2177 H   0  0  0  0  0  0  0  0  0  0  0  0
    3.6679  -12.0354    3.0412 H   0  0  0  0  0  0  0  0  0  0  0  0
    3.2348  -11.5468    4.6617 H   0  0  0  0  0  0  0  0  0  0  0  0
    5.0521   -8.5131    4.4979 H   0  0  0  0  0  0  0  0  0  0  0  0
    3.9913   -6.6061    6.2222 H   0  0  0  0  0  0  0  0  0  0  0  0
    1.9460   -5.9097    6.7113 H   0  0  0  0  0  0  0  0  0  0  0  0
    2.2841   -4.6896    5.6826 H   0  0  0  0  0  0  0  0  0  0  0  0
    0.0649   -5.9033    5.5914 H   0  0  0  0  0  0  0  0  0  0  0  0
    1.4380   -5.1556    3.3385 H   0  0  0  0  0  0  0  0  0  0  0  0
   -0.3128   -7.8351    4.8737 H   0  0  0  0  0  0  0  0  0  0  0  0
    0.5004   -7.8122    7.1769 H   0  0  0  0  0  0  0  0  0  0  0  0
    2.2513   -7.8334    7.4236 H   0  0  0  0  0  0  0  0  0  0  0  0
    1.3837   -9.2871    7.4929 H   0  0  0  0  0  0  0  0  0  0  0  0
    1.7588  -10.7158    5.7797 H   0  0  0  0  0  0  0  0  0  0  0  0
    0.1912  -10.0684    5.8400 H   0  0  0  0  0  0  0  0  0  0  0  0
    1.3998  -11.1226    3.3907 H   0  0  0  0  0  0  0  0  0  0  0  0
   -0.1043  -11.3666    4.0912 H   0  0  0  0  0  0  0  0  0  0  0  0
    0.0599   -9.9348    1.9792 H   0  0  0  0  0  0  0  0  0  0  0  0
   -1.6096  -10.0714    3.9469 H   0  0  0  0  0  0  0  0  0  0  0  0
   -0.5083   -7.7784    1.2072 H   0  0  0  0  0  0  0  0  0  0  0  0
    0.2879   -6.3323    1.7330 H   0  0  0  0  0  0  0  0  0  0  0  0
   -1.0909   -6.9387    2.6283 H   0  0  0  0  0  0  0  0  0  0  0  0
    1.8332   -8.4398    1.3231 H   0  0  0  0  0  0  0  0  0  0  0  0
    3.1703   -6.9484    1.0227 H   0  0  0  0  0  0  0  0  0  0  0  0
    2.3330   -6.0398    2.1915 H   0  0  0  0  0  0  0  0  0  0  0  0
    4.9950   -7.3695    2.7712 H   0  0  0  0  0  0  0  0  0  0  0  0
    3.6672   -4.3509    0.6710 H   0  0  0  0  0  0  0  0  0  0  0  0
    5.8983   -3.5523   -0.6895 H   0  0  0  0  0  0  0  0  0  0  0  0
    7.3047   -6.3663    1.8870 H   0  0  0  0  0  0  0  0  0  0  0  0
    4.8391   -3.8379    3.4936 H   0  0  0  0  0  0  0  0  0  0  0  0
    4.1393   -3.8678    5.0664 H   0  0  0  0  0  0  0  0  0  0  0  0
    3.1278   -4.1359    3.6391 H   0  0  0  0  0  0  0  0  0  0  0  0
    6.5010   -5.3293    4.1311 H   0  0  0  0  0  0  0  0  0  0  0  0
    6.2562   -6.9029    4.8286 H   0  0  0  0  0  0  0  0  0  0  0  0
    5.8815   -5.4620    5.7459 H   0  0  0  0  0  0  0  0  0  0  0  0
  1  2  1  0
  1 31  1  0
  1 32  1  0
  1 33  1  0
  2 30  1  0
  2  3  1  0
  2  4  1  0
  3 34  1  0
  3 35  1  0
  3 36  1  0
  4  5  2  3
  4 37  1  0
  5 11  1  0
  5  6  1  0
  6 27  1  0
  6  7  1  0
  6 38  1  1
  7  8  1  0
  7 39  1  0
  7 40  1  0
  8  9  1  0
  8 10  1  0
  8 41  1  1
  9 42  1  0
 10 17  1  0
 10 11  1  0
 10 43  1  1
 11 12  1  1
 11 13  1  0
 12 44  1  0
 12 45  1  0
 12 46  1  0
 13 14  1  0
 13 47  1  0
 13 48  1  0
 14 15  1  0
 14 49  1  0
 14 50  1  0
 15 16  1  0
 15 17  1  0
 15 51  1  6
 16 52  1  0
 17 18  1  6
 17 19  1  0
 18 53  1  0
 18 54  1  0
 18 55  1  0
 19 20  1  0
 19 30  1  0
 19 56  1  6
 20 21  1  0
 20 57  1  0
 20 58  1  0
 21 22  1  0
 21 27  1  0
 21 59  1  1
 22 26  2  0
 22 23  1  0
 23 24  2  0
 23 60  1  0
 24 25  1  0
 24 61  1  0
 25 26  1  0
 26 62  1  0
 27 28  1  0
 27 29  1  0
 28 63  1  0
 28 64  1  0
 28 65  1  0
 29 66  1  0
 29 67  1  0
 29 68  1  0
M  END
>  <i_m_ct_stereo_status>  (152) 
1

>  <s_m_source_file>  (152) 
/var/tmp/pbs.5076255.sched01/tmpx9mnojvb/44r91_cmns.sdf

>  <i_m_source_file_index>  (152) 
31

>  <i_lp_mmshare_version>  (152) 
48012

>  <i_f3d_flags>  (152) 
0

>  <s_epik_input>  (152) 
W2NIXTFvW2NIXVtjSF1jMVtDQEBIXShDMihbQ0gzXSlbQ0gzXSlbQ0gyXVtDQEBIXShPQyhbQ0gzXSkoW0NIM10pL1tDSF09MylbQ0BAXShbQ0gzXSkoW0NASF0oW09IXSlbQ0gyXVtDSDJdNClbQ0BASF01W0NASF0oW09IXSlbQ0gyXVtDQEhdMlxDM1tDQF00NVtDSDNd

>  <s_epik_cmdline>  (152) 
J2VwaWtfcHl0aG9uJywgJy1waHQnLCAnMi4wJywgJy1waCcsICc3LjAnLCAnLXRuJywgJzgnLCAnLW1hJywgJzIwMCcsICctaW1hZScsICc8aW5maWxlLm1hZT4nLCAnLW9tYWUnLCAnPG91dGZpbGUubWFlPic=

>  <r_lp_tautomer_probability>  (152) 
1

>  <r_epik_Ionization_Penalty>  (152) 
1.30567e-06

>  <r_epik_Ionization_Penalty_Charging>  (152) 
0

>  <r_epik_Ionization_Penalty_Neutral>  (152) 
1.30567e-06

>  <r_epik_State_Penalty>  (152) 
-0

>  <r_epik_Charging_Adjusted_Penalty>  (152) 
0

>  <i_epik_Tot_Q>  (152) 
0

>  <i_epik_Tot_abs_Q>  (152) 
0

>  <s_lp_Force_Field>  (152) 
OPLS3e

>  <r_lp_Energy>  (152) 
127.725

>  <b_lp_Chiralities_Consistent>  (152) 
1

>  <s_lp_Variant>  (152) 
41:0-1

>  <s_i_glide_gridfile>  (152) 
pfpi4k_grid

>  <i_i_glide_lignum>  (152) 
31

>  <i_i_glide_rotatable_bonds>  (152) 
3

>  <r_i_docking_score>  (152) 
-2.78883

>  <r_i_glide_ligand_efficiency>  (152) 
-0.0929609

>  <r_i_glide_ligand_efficiency_sa>  (152) 
-0.288851

>  <r_i_glide_ligand_efficiency_ln>  (152) 
-0.633652

>  <r_i_glide_gscore>  (152) 
-2.78883

>  <r_i_glide_lipo>  (152) 
-0.24473

>  <r_i_glide_hbond>  (152) 
-0.16

>  <r_i_glide_metal>  (152) 
-0

>  <r_i_glide_rewards>  (152) 
-0.582426

>  <r_i_glide_evdw>  (152) 
-26.4992

>  <r_i_glide_ecoul>  (152) 
-3.9437

>  <r_i_glide_erotb>  (152) 
0.114844

>  <r_i_glide_esite>  (152) 
0

>  <r_i_glide_emodel>  (152) 
-35.9592

>  <r_i_glide_energy>  (152) 
-30.4429

>  <r_i_glide_einternal>  (152) 
1.61681

>  <r_i_glide_intrahb_reward>  (152) 
-0

>  <i_i_glide_confnum>  (152) 
1

>  <i_i_glide_posenum>  (152) 
36

>  <r_i_glide_eff_state_penalty>  (152) 
0

>  <ligand_id>  (152) 
41

>  <original_smiles>  (152) 
CC1(C)C=C2C3CC(O)C4C2(C)CCC(O)C4(C)C(CC(c2ccoc2)C3(C)C)O1

>  <smiles>  (152) 
[H]OC1([H])C([H])([H])C2([H])C3=C([H])C(C([H])([H])[H])(C([H])([H])[H])OC([H])(C([H])([H])C([H])(c4c([H])oc([H])c4[H])C2(C([H])([H])[H])C([H])([H])[H])C2(C([H])([H])[H])C([H])(O[H])C([H])([H])C([H])([H])C3(C([H])([H])[H])C12[H]

$$$$
41:1:0
     RDKit          3D

 68 72  0  0  1  0  0  0  0  0999 V2000
    0.0157    1.6402    8.9446 C   0  0  0  0  0  0  0  0  0  0  0  0
    0.3406    2.6885    7.8466 C   0  0  0  0  0  0  0  0  0  0  0  0
    0.2172    4.0284    8.6358 C   0  0  0  0  0  0  0  0  0  0  0  0
    1.7477    2.5706    7.2157 C   0  0  0  0  0  0  0  0  0  0  0  0
    1.9898    2.4186    5.8915 C   0  0  0  0  0  0  0  0  0  0  0  0
    2.4197    1.0559    5.2398 C   0  0  2  0  0  0  0  0  0  0  0  0
    2.0126    0.8209    3.7473 C   0  0  0  0  0  0  0  0  0  0  0  0
    1.7105    2.0481    2.9202 C   0  0  1  0  0  0  0  0  0  0  0  0
    1.0687    1.7036    1.7119 O   0  0  0  0  0  0  0  0  0  0  0  0
    0.9570    3.0947    3.7493 C   0  0  2  0  0  0  0  0  0  0  0  0
    1.8598    3.5953    4.8991 C   0  0  2  0  0  0  0  0  0  0  0  0
    3.2990    3.9905    4.4685 C   0  0  0  0  0  0  0  0  0  0  0  0
    1.2287    4.9506    5.3742 C   0  0  0  0  0  0  0  0  0  0  0  0
   -0.3148    5.1023    5.4255 C   0  0  0  0  0  0  0  0  0  0  0  0
   -1.1404    4.1997    4.4862 C   0  0  1  0  0  0  0  0  0  0  0  0
   -1.3871    4.9259    3.2818 O   0  0  0  0  0  0  0  0  0  0  0  0
   -0.5213    2.7814    4.2695 C   0  0  1  0  0  0  0  0  0  0  0  0
   -1.3869    2.1144    3.1626 C   0  0  0  0  0  0  0  0  0  0  0  0
   -0.7468    1.9246    5.6259 C   0  0  1  0  0  0  0  0  0  0  0  0
   -0.5291    0.3521    5.6684 C   0  0  0  0  0  0  0  0  0  0  0  0
    0.6205   -0.4239    6.4324 C   0  0  1  0  0  0  0  0  0  0  0  0
    0.2006   -1.8762    6.6052 C   0  0  0  0  0  0  0  0  0  0  0  0
    0.2626   -2.6458    7.8058 C   0  0  0  0  0  0  0  0  0  0  0  0
   -0.2154   -3.8899    7.5070 C   0  0  0  0  0  0  0  0  0  0  0  0
   -0.5850   -3.9561    6.2020 O   0  0  0  0  0  0  0  0  0  0  0  0
   -0.3255   -2.7321    5.6717 C   0  0  0  0  0  0  0  0  0  0  0  0
    2.1428   -0.2605    6.0441 C   0  0  0  0  0  0  0  0  0  0  0  0
    2.6797   -1.4922    5.2485 C   0  0  0  0  0  0  0  0  0  0  0  0
    3.0194   -0.2998    7.3314 C   0  0  0  0  0  0  0  0  0  0  0  0
   -0.7276    2.6602    6.8783 O   0  0  0  0  0  0  0  0  0  0  0  0
    0.9011    1.1064    9.2887 H   0  0  0  0  0  0  0  0  0  0  0  0
   -0.7410    0.9294    8.6183 H   0  0  0  0  0  0  0  0  0  0  0  0
   -0.4256    2.0828    9.8385 H   0  0  0  0  0  0  0  0  0  0  0  0
    0.8226    4.0065    9.5443 H   0  0  0  0  0  0  0  0  0  0  0  0
   -0.8140    4.2125    8.9405 H   0  0  0  0  0  0  0  0  0  0  0  0
    0.5533    4.9106    8.1003 H   0  0  0  0  0  0  0  0  0  0  0  0
    2.1329    3.5365    7.4950 H   0  0  0  0  0  0  0  0  0  0  0  0
    3.5040    1.1552    5.2009 H   0  0  0  0  0  0  0  0  0  0  0  0
    2.8039    0.2723    3.2360 H   0  0  0  0  0  0  0  0  0  0  0  0
    1.1506    0.1688    3.6712 H   0  0  0  0  0  0  0  0  0  0  0  0
    2.6495    2.4718    2.5722 H   0  0  0  0  0  0  0  0  0  0  0  0
    0.7488    2.4945    1.2890 H   0  0  0  0  0  0  0  0  0  0  0  0
    0.8853    3.9209    3.0428 H   0  0  0  0  0  0  0  0  0  0  0  0
    3.2974    4.6663    3.6111 H   0  0  0  0  0  0  0  0  0  0  0  0
    3.9198    3.1374    4.1984 H   0  0  0  0  0  0  0  0  0  0  0  0
    3.8240    4.4943    5.2820 H   0  0  0  0  0  0  0  0  0  0  0  0
    1.6900    5.3136    6.2913 H   0  0  0  0  0  0  0  0  0  0  0  0
    1.5269    5.6990    4.6377 H   0  0  0  0  0  0  0  0  0  0  0  0
   -0.6936    4.9620    6.4278 H   0  0  0  0  0  0  0  0  0  0  0  0
   -0.5612    6.1459    5.2381 H   0  0  0  0  0  0  0  0  0  0  0  0
   -2.1314    4.0883    4.9315 H   0  0  0  0  0  0  0  0  0  0  0  0
   -0.6860    4.7544    2.6556 H   0  0  0  0  0  0  0  0  0  0  0  0
   -2.4449    2.0866    3.4297 H   0  0  0  0  0  0  0  0  0  0  0  0
   -1.0853    1.0918    2.9477 H   0  0  0  0  0  0  0  0  0  0  0  0
   -1.3210    2.6492    2.2150 H   0  0  0  0  0  0  0  0  0  0  0  0
   -1.8377    1.9112    5.5962 H   0  0  0  0  0  0  0  0  0  0  0  0
   -1.4307    0.0002    6.1716 H   0  0  0  0  0  0  0  0  0  0  0  0
   -0.6538   -0.0725    4.6771 H   0  0  0  0  0  0  0  0  0  0  0  0
    0.5882   -0.1080    7.4515 H   0  0  0  0  0  0  0  0  0  0  0  0
    0.6256   -2.3346    8.7733 H   0  0  0  0  0  0  0  0  0  0  0  0
   -0.3503   -4.7982    8.0728 H   0  0  0  0  0  0  0  0  0  0  0  0
   -0.5632   -2.6430    4.6236 H   0  0  0  0  0  0  0  0  0  0  0  0
    2.7301   -2.3944    5.8603 H   0  0  0  0  0  0  0  0  0  0  0  0
    3.6935   -1.3167    4.8863 H   0  0  0  0  0  0  0  0  0  0  0  0
    2.0655   -1.7463    4.3855 H   0  0  0  0  0  0  0  0  0  0  0  0
    2.9325   -1.2613    7.8416 H   0  0  0  0  0  0  0  0  0  0  0  0
    2.7620    0.4485    8.0759 H   0  0  0  0  0  0  0  0  0  0  0  0
    4.0770   -0.1641    7.0989 H   0  0  0  0  0  0  0  0  0  0  0  0
  1  2  1  0
  1 31  1  0
  1 32  1  0
  1 33  1  0
  2 30  1  0
  2  3  1  0
  2  4  1  0
  3 34  1  0
  3 35  1  0
  3 36  1  0
  4  5  2  3
  4 37  1  0
  5 11  1  0
  5  6  1  0
  6 27  1  0
  6  7  1  0
  6 38  1  6
  7  8  1  0
  7 39  1  0
  7 40  1  0
  8  9  1  0
  8 10  1  0
  8 41  1  6
  9 42  1  0
 10 17  1  0
 10 11  1  0
 10 43  1  6
 11 12  1  6
 11 13  1  0
 12 44  1  0
 12 45  1  0
 12 46  1  0
 13 14  1  0
 13 47  1  0
 13 48  1  0
 14 15  1  0
 14 49  1  0
 14 50  1  0
 15 16  1  0
 15 17  1  0
 15 51  1  1
 16 52  1  0
 17 18  1  6
 17 19  1  0
 18 53  1  0
 18 54  1  0
 18 55  1  0
 19 20  1  0
 19 30  1  0
 19 56  1  6
 20 21  1  0
 20 57  1  0
 20 58  1  0
 21 22  1  0
 21 27  1  0
 21 59  1  1
 22 26  2  0
 22 23  1  0
 23 24  2  0
 23 60  1  0
 24 25  1  0
 24 61  1  0
 25 26  1  0
 26 62  1  0
 27 28  1  0
 27 29  1  0
 28 63  1  0
 28 64  1  0
 28 65  1  0
 29 66  1  0
 29 67  1  0
 29 68  1  0
M  END
>  <i_m_ct_stereo_status>  (153) 
1

>  <s_m_source_file>  (153) 
/var/tmp/pbs.5076255.sched01/tmpx9mnojvb/44r91_cmns.sdf

>  <i_m_source_file_index>  (153) 
32

>  <i_lp_mmshare_version>  (153) 
48012

>  <i_f3d_flags>  (153) 
0

>  <s_epik_input>  (153) 
W2NIXTFvW2NIXVtjSF1jMVtDQEBIXShDMihbQ0gzXSlbQ0gzXSlbQ0gyXVtDQEBIXShPQyhbQ0gzXSkoW0NIM10pL1tDSF09MylbQ0BAXShbQ0gzXSkoW0NASF0oW09IXSlbQ0gyXVtDSDJdNClbQ0BASF01W0NASF0oW09IXSlbQ0gyXVtDQEhdMlxDM1tDQF00NVtDSDNd

>  <s_epik_cmdline>  (153) 
J2VwaWtfcHl0aG9uJywgJy1waHQnLCAnMi4wJywgJy1waCcsICc3LjAnLCAnLXRuJywgJzgnLCAnLW1hJywgJzIwMCcsICctaW1hZScsICc8aW5maWxlLm1hZT4nLCAnLW9tYWUnLCAnPG91dGZpbGUubWFlPic=

>  <r_lp_tautomer_probability>  (153) 
1

>  <r_epik_Ionization_Penalty>  (153) 
1.30567e-06

>  <r_epik_Ionization_Penalty_Charging>  (153) 
0

>  <r_epik_Ionization_Penalty_Neutral>  (153) 
1.30567e-06

>  <r_epik_State_Penalty>  (153) 
-0

>  <r_epik_Charging_Adjusted_Penalty>  (153) 
0

>  <i_epik_Tot_Q>  (153) 
0

>  <i_epik_Tot_abs_Q>  (153) 
0

>  <s_lp_Force_Field>  (153) 
OPLS3e

>  <r_lp_Energy>  (153) 
155.531

>  <b_lp_Chiralities_Consistent>  (153) 
1

>  <s_lp_Variant>  (153) 
41:0-2

>  <s_i_glide_gridfile>  (153) 
pfpi4k_grid

>  <i_i_glide_lignum>  (153) 
32

>  <i_i_glide_rotatable_bonds>  (153) 
3

>  <r_i_docking_score>  (153) 
-3.29059

>  <r_i_glide_ligand_efficiency>  (153) 
-0.109686

>  <r_i_glide_ligand_efficiency_sa>  (153) 
-0.34082

>  <r_i_glide_ligand_efficiency_ln>  (153) 
-0.747657

>  <r_i_glide_gscore>  (153) 
-3.29059

>  <r_i_glide_lipo>  (153) 
0

>  <r_i_glide_hbond>  (153) 
-0.44224

>  <r_i_glide_metal>  (153) 
-0

>  <r_i_glide_rewards>  (153) 
-0.582426

>  <r_i_glide_evdw>  (153) 
-22.9563

>  <r_i_glide_ecoul>  (153) 
-8.21966

>  <r_i_glide_erotb>  (153) 
0.114844

>  <r_i_glide_esite>  (153) 
0

>  <r_i_glide_emodel>  (153) 
-37.8687

>  <r_i_glide_energy>  (153) 
-31.176

>  <r_i_glide_einternal>  (153) 
1.13821

>  <r_i_glide_intrahb_reward>  (153) 
-0

>  <i_i_glide_confnum>  (153) 
2

>  <i_i_glide_posenum>  (153) 
23

>  <r_i_glide_eff_state_penalty>  (153) 
0

>  <ligand_id>  (153) 
41

>  <original_smiles>  (153) 
CC1(C)C=C2C3CC(O)C4C2(C)CCC(O)C4(C)C(CC(c2ccoc2)C3(C)C)O1

>  <smiles>  (153) 
[H]OC1([H])C([H])([H])C2([H])C3=C([H])C(C([H])([H])[H])(C([H])([H])[H])OC([H])(C([H])([H])C([H])(c4c([H])oc([H])c4[H])C2(C([H])([H])[H])C([H])([H])[H])C2(C([H])([H])[H])C([H])(O[H])C([H])([H])C([H])([H])C3(C([H])([H])[H])C12[H]

$$$$
41:1:1
     RDKit          3D

 68 72  0  0  1  0  0  0  0  0999 V2000
    0.1356    1.7797    8.9853 C   0  0  0  0  0  0  0  0  0  0  0  0
    0.4364    2.7936    7.8486 C   0  0  0  0  0  0  0  0  0  0  0  0
    0.3508    4.1551    8.6040 C   0  0  0  0  0  0  0  0  0  0  0  0
    1.8214    2.6435    7.1771 C   0  0  0  0  0  0  0  0  0  0  0  0
    2.0199    2.4537    5.8506 C   0  0  0  0  0  0  0  0  0  0  0  0
    2.4149    1.0691    5.2224 C   0  0  2  0  0  0  0  0  0  0  0  0
    1.9572    0.7986    3.7502 C   0  0  0  0  0  0  0  0  0  0  0  0
    1.6422    2.0063    2.9003 C   0  0  1  0  0  0  0  0  0  0  0  0
    0.9566    1.6410    1.7226 O   0  0  0  0  0  0  0  0  0  0  0  0
    0.9264    3.0819    3.7250 C   0  0  2  0  0  0  0  0  0  0  0  0
    1.8696    3.6053    4.8316 C   0  0  2  0  0  0  0  0  0  0  0  0
    3.2961    3.9739    4.3437 C   0  0  0  0  0  0  0  0  0  0  0  0
    1.2678    4.9796    5.2892 C   0  0  0  0  0  0  0  0  0  0  0  0
   -0.2704    5.1480    5.3879 C   0  0  0  0  0  0  0  0  0  0  0  0
   -1.1307    4.2303    4.4964 C   0  0  1  0  0  0  0  0  0  0  0  0
   -1.3892    4.9324    3.2805 O   0  0  0  0  0  0  0  0  0  0  0  0
   -0.5362    2.7985    4.3005 C   0  0  1  0  0  0  0  0  0  0  0  0
   -1.4444    2.1138    3.2388 C   0  0  0  0  0  0  0  0  0  0  0  0
   -0.7278    1.9802    5.6863 C   0  0  1  0  0  0  0  0  0  0  0  0
   -0.5212    0.4066    5.7697 C   0  0  0  0  0  0  0  0  0  0  0  0
    0.6458   -0.3571    6.5197 C   0  0  1  0  0  0  0  0  0  0  0  0
    0.2165   -1.8024    6.7435 C   0  0  0  0  0  0  0  0  0  0  0  0
   -0.3732   -2.7045    5.8111 C   0  0  0  0  0  0  0  0  0  0  0  0
   -0.5824   -3.8801    6.4753 C   0  0  0  0  0  0  0  0  0  0  0  0
   -0.1772   -3.7790    7.7667 O   0  0  0  0  0  0  0  0  0  0  0  0
    0.3131   -2.5207    7.9077 C   0  0  0  0  0  0  0  0  0  0  0  0
    2.1538   -0.2219    6.0729 C   0  0  0  0  0  0  0  0  0  0  0  0
    2.6496   -1.4798    5.2916 C   0  0  0  0  0  0  0  0  0  0  0  0
    3.0729   -0.2359    7.3293 C   0  0  0  0  0  0  0  0  0  0  0  0
   -0.6627    2.7502    6.9158 O   0  0  0  0  0  0  0  0  0  0  0  0
    1.0271    1.2465    9.3150 H   0  0  0  0  0  0  0  0  0  0  0  0
   -0.6381    1.0678    8.7033 H   0  0  0  0  0  0  0  0  0  0  0  0
   -0.2725    2.2503    9.8806 H   0  0  0  0  0  0  0  0  0  0  0  0
    0.9855    4.1503    9.4925 H   0  0  0  0  0  0  0  0  0  0  0  0
   -0.6683    4.3576    8.9362 H   0  0  0  0  0  0  0  0  0  0  0  0
    0.6787    5.0188    8.0346 H   0  0  0  0  0  0  0  0  0  0  0  0
    2.2243    3.6129    7.4161 H   0  0  0  0  0  0  0  0  0  0  0  0
    3.4982    1.1565    5.1452 H   0  0  0  0  0  0  0  0  0  0  0  0
    2.7265    0.2282    3.2290 H   0  0  0  0  0  0  0  0  0  0  0  0
    1.0871    0.1536    3.7192 H   0  0  0  0  0  0  0  0  0  0  0  0
    2.5733    2.4104    2.5109 H   0  0  0  0  0  0  0  0  0  0  0  0
    0.6414    2.4274    1.2893 H   0  0  0  0  0  0  0  0  0  0  0  0
    0.8416    3.8881    2.9979 H   0  0  0  0  0  0  0  0  0  0  0  0
    3.2735    4.6251    3.4680 H   0  0  0  0  0  0  0  0  0  0  0  0
    3.8982    3.1066    4.0795 H   0  0  0  0  0  0  0  0  0  0  0  0
    3.8506    4.4948    5.1256 H   0  0  0  0  0  0  0  0  0  0  0  0
    1.7619    5.3617    6.1805 H   0  0  0  0  0  0  0  0  0  0  0  0
    1.5478    5.7047    4.5228 H   0  0  0  0  0  0  0  0  0  0  0  0
   -0.6201    5.0389    6.4045 H   0  0  0  0  0  0  0  0  0  0  0  0
   -0.5125    6.1885    5.1793 H   0  0  0  0  0  0  0  0  0  0  0  0
   -2.1103    4.1385    4.9709 H   0  0  0  0  0  0  0  0  0  0  0  0
   -0.6949    4.7539    2.6500 H   0  0  0  0  0  0  0  0  0  0  0  0
   -2.4926    2.1037    3.5402 H   0  0  0  0  0  0  0  0  0  0  0  0
   -1.1600    1.0821    3.0425 H   0  0  0  0  0  0  0  0  0  0  0  0
   -1.4031    2.6247    2.2768 H   0  0  0  0  0  0  0  0  0  0  0  0
   -1.8187    1.9742    5.6901 H   0  0  0  0  0  0  0  0  0  0  0  0
   -1.4101    0.0757    6.3083 H   0  0  0  0  0  0  0  0  0  0  0  0
   -0.6770   -0.0449    4.7954 H   0  0  0  0  0  0  0  0  0  0  0  0
    0.6532   -0.0117    7.5298 H   0  0  0  0  0  0  0  0  0  0  0  0
   -0.6001   -2.5263    4.7704 H   0  0  0  0  0  0  0  0  0  0  0  0
   -0.9813   -4.8415    6.1942 H   0  0  0  0  0  0  0  0  0  0  0  0
    0.6946   -2.3050    8.8942 H   0  0  0  0  0  0  0  0  0  0  0  0
    2.7118   -2.3671    5.9236 H   0  0  0  0  0  0  0  0  0  0  0  0
    3.6519   -1.3245    4.8910 H   0  0  0  0  0  0  0  0  0  0  0  0
    2.0042   -1.7489    4.4564 H   0  0  0  0  0  0  0  0  0  0  0  0
    2.9929   -1.1822    7.8675 H   0  0  0  0  0  0  0  0  0  0  0  0
    2.8465    0.5347    8.0610 H   0  0  0  0  0  0  0  0  0  0  0  0
    4.1229   -0.1173    7.0580 H   0  0  0  0  0  0  0  0  0  0  0  0
  1  2  1  0
  1 31  1  0
  1 32  1  0
  1 33  1  0
  2 30  1  0
  2  3  1  0
  2  4  1  0
  3 34  1  0
  3 35  1  0
  3 36  1  0
  4  5  2  3
  4 37  1  0
  5 11  1  0
  5  6  1  0
  6 27  1  0
  6  7  1  0
  6 38  1  6
  7  8  1  0
  7 39  1  0
  7 40  1  0
  8  9  1  0
  8 10  1  0
  8 41  1  6
  9 42  1  0
 10 17  1  0
 10 11  1  0
 10 43  1  6
 11 12  1  6
 11 13  1  0
 12 44  1  0
 12 45  1  0
 12 46  1  0
 13 14  1  0
 13 47  1  0
 13 48  1  0
 14 15  1  0
 14 49  1  0
 14 50  1  0
 15 16  1  0
 15 17  1  0
 15 51  1  1
 16 52  1  0
 17 18  1  6
 17 19  1  0
 18 53  1  0
 18 54  1  0
 18 55  1  0
 19 20  1  0
 19 30  1  0
 19 56  1  6
 20 21  1  0
 20 57  1  0
 20 58  1  0
 21 22  1  0
 21 27  1  0
 21 59  1  1
 22 26  2  0
 22 23  1  0
 23 24  2  0
 23 60  1  0
 24 25  1  0
 24 61  1  0
 25 26  1  0
 26 62  1  0
 27 28  1  0
 27 29  1  0
 28 63  1  0
 28 64  1  0
 28 65  1  0
 29 66  1  0
 29 67  1  0
 29 68  1  0
M  END
>  <i_m_ct_stereo_status>  (154) 
1

>  <s_m_source_file>  (154) 
/var/tmp/pbs.5076255.sched01/tmpx9mnojvb/44r91_cmns.sdf

>  <i_m_source_file_index>  (154) 
32

>  <i_lp_mmshare_version>  (154) 
48012

>  <i_f3d_flags>  (154) 
0

>  <s_epik_input>  (154) 
W2NIXTFvW2NIXVtjSF1jMVtDQEBIXShDMihbQ0gzXSlbQ0gzXSlbQ0gyXVtDQEBIXShPQyhbQ0gzXSkoW0NIM10pL1tDSF09MylbQ0BAXShbQ0gzXSkoW0NASF0oW09IXSlbQ0gyXVtDSDJdNClbQ0BASF01W0NASF0oW09IXSlbQ0gyXVtDQEhdMlxDM1tDQF00NVtDSDNd

>  <s_epik_cmdline>  (154) 
J2VwaWtfcHl0aG9uJywgJy1waHQnLCAnMi4wJywgJy1waCcsICc3LjAnLCAnLXRuJywgJzgnLCAnLW1hJywgJzIwMCcsICctaW1hZScsICc8aW5maWxlLm1hZT4nLCAnLW9tYWUnLCAnPG91dGZpbGUubWFlPic=

>  <r_lp_tautomer_probability>  (154) 
1

>  <r_epik_Ionization_Penalty>  (154) 
1.30567e-06

>  <r_epik_Ionization_Penalty_Charging>  (154) 
0

>  <r_epik_Ionization_Penalty_Neutral>  (154) 
1.30567e-06

>  <r_epik_State_Penalty>  (154) 
-0

>  <r_epik_Charging_Adjusted_Penalty>  (154) 
0

>  <i_epik_Tot_Q>  (154) 
0

>  <i_epik_Tot_abs_Q>  (154) 
0

>  <s_lp_Force_Field>  (154) 
OPLS3e

>  <r_lp_Energy>  (154) 
155.531

>  <b_lp_Chiralities_Consistent>  (154) 
1

>  <s_lp_Variant>  (154) 
41:0-2

>  <s_i_glide_gridfile>  (154) 
pfpi4k_grid

>  <i_i_glide_lignum>  (154) 
32

>  <i_i_glide_rotatable_bonds>  (154) 
3

>  <r_i_docking_score>  (154) 
-3.23591

>  <r_i_glide_ligand_efficiency>  (154) 
-0.107864

>  <r_i_glide_ligand_efficiency_sa>  (154) 
-0.335157

>  <r_i_glide_ligand_efficiency_ln>  (154) 
-0.735233

>  <r_i_glide_gscore>  (154) 
-3.23591

>  <r_i_glide_lipo>  (154) 
0

>  <r_i_glide_hbond>  (154) 
-0.442283

>  <r_i_glide_metal>  (154) 
-0

>  <r_i_glide_rewards>  (154) 
-0.582426

>  <r_i_glide_evdw>  (154) 
-22.7571

>  <r_i_glide_ecoul>  (154) 
-7.92125

>  <r_i_glide_erotb>  (154) 
0.114844

>  <r_i_glide_esite>  (154) 
0

>  <r_i_glide_emodel>  (154) 
-37.3107

>  <r_i_glide_energy>  (154) 
-30.6783

>  <r_i_glide_einternal>  (154) 
1.04563

>  <r_i_glide_intrahb_reward>  (154) 
-0

>  <i_i_glide_confnum>  (154) 
2

>  <i_i_glide_posenum>  (154) 
1

>  <r_i_glide_eff_state_penalty>  (154) 
0

>  <ligand_id>  (154) 
41

>  <original_smiles>  (154) 
CC1(C)C=C2C3CC(O)C4C2(C)CCC(O)C4(C)C(CC(c2ccoc2)C3(C)C)O1

>  <smiles>  (154) 
[H]OC1([H])C([H])([H])C2([H])C3=C([H])C(C([H])([H])[H])(C([H])([H])[H])OC([H])(C([H])([H])C([H])(c4c([H])oc([H])c4[H])C2(C([H])([H])[H])C([H])([H])[H])C2(C([H])([H])[H])C([H])(O[H])C([H])([H])C([H])([H])C3(C([H])([H])[H])C12[H]

$$$$
41:1:2
     RDKit          3D

 68 72  0  0  1  0  0  0  0  0999 V2000
    5.3073  -10.2492    2.4952 C   0  0  0  0  0  0  0  0  0  0  0  0
    4.0096  -10.2797    3.3446 C   0  0  0  0  0  0  0  0  0  0  0  0
    3.8371  -11.8064    3.6150 C   0  0  0  0  0  0  0  0  0  0  0  0
    4.0733   -9.5118    4.6837 C   0  0  0  0  0  0  0  0  0  0  0  0
    3.2325   -8.5139    5.0432 C   0  0  0  0  0  0  0  0  0  0  0  0
    3.6314   -6.9953    5.0253 C   0  0  2  0  0  0  0  0  0  0  0  0
    2.4863   -5.9609    4.7843 C   0  0  0  0  0  0  0  0  0  0  0  0
    1.0825   -6.4195    5.0845 C   0  0  1  0  0  0  0  0  0  0  0  0
    0.1413   -5.5080    4.5592 O   0  0  0  0  0  0  0  0  0  0  0  0
    0.8710   -7.8824    4.6607 C   0  0  2  0  0  0  0  0  0  0  0  0
    1.7849   -8.7993    5.5048 C   0  0  2  0  0  0  0  0  0  0  0  0
    1.7333   -8.5327    7.0378 C   0  0  0  0  0  0  0  0  0  0  0  0
    1.1920  -10.2442    5.3517 C   0  0  0  0  0  0  0  0  0  0  0  0
    0.6162  -10.7139    3.9883 C   0  0  0  0  0  0  0  0  0  0  0  0
    0.1118   -9.6164    3.0410 C   0  0  1  0  0  0  0  0  0  0  0  0
   -1.2766   -9.4365    3.2778 O   0  0  0  0  0  0  0  0  0  0  0  0
    0.9323   -8.2817    3.1139 C   0  0  1  0  0  0  0  0  0  0  0  0
    0.1506   -7.2568    2.2401 C   0  0  0  0  0  0  0  0  0  0  0  0
    2.3592   -8.5328    2.3885 C   0  0  1  0  0  0  0  0  0  0  0  0
    3.3330   -7.3359    2.0003 C   0  0  0  0  0  0  0  0  0  0  0  0
    4.7366   -7.0043    2.6541 C   0  0  1  0  0  0  0  0  0  0  0  0
    5.5150   -6.0955    1.7092 C   0  0  0  0  0  0  0  0  0  0  0  0
    5.0338   -4.9812    0.9591 C   0  0  0  0  0  0  0  0  0  0  0  0
    6.0961   -4.4852    0.2595 C   0  0  0  0  0  0  0  0  0  0  0  0
    7.2160   -5.2120    0.5109 O   0  0  0  0  0  0  0  0  0  0  0  0
    6.8437   -6.1831    1.3862 C   0  0  0  0  0  0  0  0  0  0  0  0
    4.8697   -6.5701    4.1647 C   0  0  0  0  0  0  0  0  0  0  0  0
    5.1158   -5.0344    4.3135 C   0  0  0  0  0  0  0  0  0  0  0  0
    6.1743   -7.1677    4.7661 C   0  0  0  0  0  0  0  0  0  0  0  0
    2.9154   -9.8664    2.5016 O   0  0  0  0  0  0  0  0  0  0  0  0
    6.1683   -9.8845    3.0526 H   0  0  0  0  0  0  0  0  0  0  0  0
    5.1822   -9.6696    1.5827 H   0  0  0  0  0  0  0  0  0  0  0  0
    5.5900  -11.2326    2.1193 H   0  0  0  0  0  0  0  0  0  0  0  0
    4.7521  -12.2419    4.0235 H   0  0  0  0  0  0  0  0  0  0  0  0
    3.6094  -12.3432    2.6936 H   0  0  0  0  0  0  0  0  0  0  0  0
    3.0618  -12.0698    4.3296 H   0  0  0  0  0  0  0  0  0  0  0  0
    3.8890  -10.3356    5.3534 H   0  0  0  0  0  0  0  0  0  0  0  0
    3.9205   -6.8266    6.0619 H   0  0  0  0  0  0  0  0  0  0  0  0
    2.6755   -5.0687    5.3842 H   0  0  0  0  0  0  0  0  0  0  0  0
    2.4883   -5.6017    3.7624 H   0  0  0  0  0  0  0  0  0  0  0  0
    0.9164   -6.3306    6.1560 H   0  0  0  0  0  0  0  0  0  0  0  0
    0.3450   -4.6454    4.8884 H   0  0  0  0  0  0  0  0  0  0  0  0
   -0.1487   -8.0684    4.9996 H   0  0  0  0  0  0  0  0  0  0  0  0
    0.7097   -8.5071    7.4140 H   0  0  0  0  0  0  0  0  0  0  0  0
    2.2107   -7.6005    7.3378 H   0  0  0  0  0  0  0  0  0  0  0  0
    2.2589   -9.3191    7.5819 H   0  0  0  0  0  0  0  0  0  0  0  0
    1.8562  -10.9982    5.7693 H   0  0  0  0  0  0  0  0  0  0  0  0
    0.3279  -10.2903    6.0161 H   0  0  0  0  0  0  0  0  0  0  0  0
    1.3309  -11.3140    3.4419 H   0  0  0  0  0  0  0  0  0  0  0  0
   -0.1743  -11.4386    4.1728 H   0  0  0  0  0  0  0  0  0  0  0  0
    0.1617  -10.0214    2.0337 H   0  0  0  0  0  0  0  0  0  0  0  0
   -1.5648  -10.0566    3.9560 H   0  0  0  0  0  0  0  0  0  0  0  0
    0.0036   -7.6163    1.2199 H   0  0  0  0  0  0  0  0  0  0  0  0
    0.6526   -6.2944    2.1768 H   0  0  0  0  0  0  0  0  0  0  0  0
   -0.8399   -7.0584    2.6476 H   0  0  0  0  0  0  0  0  0  0  0  0
    1.9653   -8.7265    1.3893 H   0  0  0  0  0  0  0  0  0  0  0  0
    3.5979   -7.5735    0.9681 H   0  0  0  0  0  0  0  0  0  0  0  0
    2.7648   -6.4198    1.8777 H   0  0  0  0  0  0  0  0  0  0  0  0
    5.3347   -7.8858    2.5892 H   0  0  0  0  0  0  0  0  0  0  0  0
    4.0308   -4.5787    0.9265 H   0  0  0  0  0  0  0  0  0  0  0  0
    6.2227   -3.6695   -0.4361 H   0  0  0  0  0  0  0  0  0  0  0  0
    7.6464   -6.8453    1.6752 H   0  0  0  0  0  0  0  0  0  0  0  0
    6.0923   -4.7299    3.9350 H   0  0  0  0  0  0  0  0  0  0  0  0
    5.0921   -4.7304    5.3609 H   0  0  0  0  0  0  0  0  0  0  0  0
    4.3852   -4.4272    3.7809 H   0  0  0  0  0  0  0  0  0  0  0  0
    7.0588   -6.7858    4.2527 H   0  0  0  0  0  0  0  0  0  0  0  0
    6.2446   -8.2495    4.6992 H   0  0  0  0  0  0  0  0  0  0  0  0
    6.2879   -6.9050    5.8188 H   0  0  0  0  0  0  0  0  0  0  0  0
  1  2  1  0
  1 31  1  0
  1 32  1  0
  1 33  1  0
  2 30  1  0
  2  3  1  0
  2  4  1  0
  3 34  1  0
  3 35  1  0
  3 36  1  0
  4  5  2  3
  4 37  1  0
  5 11  1  0
  5  6  1  0
  6 27  1  0
  6  7  1  0
  6 38  1  1
  7  8  1  0
  7 39  1  0
  7 40  1  0
  8  9  1  0
  8 10  1  0
  8 41  1  1
  9 42  1  0
 10 17  1  0
 10 11  1  0
 10 43  1  1
 11 12  1  1
 11 13  1  0
 12 44  1  0
 12 45  1  0
 12 46  1  0
 13 14  1  0
 13 47  1  0
 13 48  1  0
 14 15  1  0
 14 49  1  0
 14 50  1  0
 15 16  1  0
 15 17  1  0
 15 51  1  6
 16 52  1  0
 17 18  1  6
 17 19  1  0
 18 53  1  0
 18 54  1  0
 18 55  1  0
 19 20  1  0
 19 30  1  0
 19 56  1  6
 20 21  1  0
 20 57  1  0
 20 58  1  0
 21 22  1  0
 21 27  1  0
 21 59  1  1
 22 26  2  0
 22 23  1  0
 23 24  2  0
 23 60  1  0
 24 25  1  0
 24 61  1  0
 25 26  1  0
 26 62  1  0
 27 28  1  0
 27 29  1  0
 28 63  1  0
 28 64  1  0
 28 65  1  0
 29 66  1  0
 29 67  1  0
 29 68  1  0
M  END
>  <i_m_ct_stereo_status>  (155) 
1

>  <s_m_source_file>  (155) 
/var/tmp/pbs.5076255.sched01/tmpx9mnojvb/44r91_cmns.sdf

>  <i_m_source_file_index>  (155) 
32

>  <i_lp_mmshare_version>  (155) 
48012

>  <i_f3d_flags>  (155) 
0

>  <s_epik_input>  (155) 
W2NIXTFvW2NIXVtjSF1jMVtDQEBIXShDMihbQ0gzXSlbQ0gzXSlbQ0gyXVtDQEBIXShPQyhbQ0gzXSkoW0NIM10pL1tDSF09MylbQ0BAXShbQ0gzXSkoW0NASF0oW09IXSlbQ0gyXVtDSDJdNClbQ0BASF01W0NASF0oW09IXSlbQ0gyXVtDQEhdMlxDM1tDQF00NVtDSDNd

>  <s_epik_cmdline>  (155) 
J2VwaWtfcHl0aG9uJywgJy1waHQnLCAnMi4wJywgJy1waCcsICc3LjAnLCAnLXRuJywgJzgnLCAnLW1hJywgJzIwMCcsICctaW1hZScsICc8aW5maWxlLm1hZT4nLCAnLW9tYWUnLCAnPG91dGZpbGUubWFlPic=

>  <r_lp_tautomer_probability>  (155) 
1

>  <r_epik_Ionization_Penalty>  (155) 
1.30567e-06

>  <r_epik_Ionization_Penalty_Charging>  (155) 
0

>  <r_epik_Ionization_Penalty_Neutral>  (155) 
1.30567e-06

>  <r_epik_State_Penalty>  (155) 
-0

>  <r_epik_Charging_Adjusted_Penalty>  (155) 
0

>  <i_epik_Tot_Q>  (155) 
0

>  <i_epik_Tot_abs_Q>  (155) 
0

>  <s_lp_Force_Field>  (155) 
OPLS3e

>  <r_lp_Energy>  (155) 
155.531

>  <b_lp_Chiralities_Consistent>  (155) 
1

>  <s_lp_Variant>  (155) 
41:0-2

>  <s_i_glide_gridfile>  (155) 
pfpi4k_grid

>  <i_i_glide_lignum>  (155) 
32

>  <i_i_glide_rotatable_bonds>  (155) 
3

>  <r_i_docking_score>  (155) 
-3.05734

>  <r_i_glide_ligand_efficiency>  (155) 
-0.101911

>  <r_i_glide_ligand_efficiency_sa>  (155) 
-0.316662

>  <r_i_glide_ligand_efficiency_ln>  (155) 
-0.694661

>  <r_i_glide_gscore>  (155) 
-3.05734

>  <r_i_glide_lipo>  (155) 
-0.329327

>  <r_i_glide_hbond>  (155) 
-0.16

>  <r_i_glide_metal>  (155) 
-0

>  <r_i_glide_rewards>  (155) 
-0.582426

>  <r_i_glide_evdw>  (155) 
-26.918

>  <r_i_glide_ecoul>  (155) 
-5.03022

>  <r_i_glide_erotb>  (155) 
0.114844

>  <r_i_glide_esite>  (155) 
0

>  <r_i_glide_emodel>  (155) 
-37.9968

>  <r_i_glide_energy>  (155) 
-31.9482

>  <r_i_glide_einternal>  (155) 
1.85366

>  <r_i_glide_intrahb_reward>  (155) 
-0

>  <i_i_glide_confnum>  (155) 
4

>  <i_i_glide_posenum>  (155) 
34

>  <r_i_glide_eff_state_penalty>  (155) 
0

>  <ligand_id>  (155) 
41

>  <original_smiles>  (155) 
CC1(C)C=C2C3CC(O)C4C2(C)CCC(O)C4(C)C(CC(c2ccoc2)C3(C)C)O1

>  <smiles>  (155) 
[H]OC1([H])C([H])([H])C2([H])C3=C([H])C(C([H])([H])[H])(C([H])([H])[H])OC([H])(C([H])([H])C([H])(c4c([H])oc([H])c4[H])C2(C([H])([H])[H])C([H])([H])[H])C2(C([H])([H])[H])C([H])(O[H])C([H])([H])C([H])([H])C3(C([H])([H])[H])C12[H]

$$$$
45:0:0
     RDKit          3D

 54 57  0  0  1  0  0  0  0  0999 V2000
    2.4420   -2.7012   -3.8878 C   0  0  0  0  0  0  0  0  0  0  0  0
    3.3548   -2.6938   -2.6517 C   0  0  2  0  0  0  0  0  0  0  0  0
    3.8097   -1.2749   -2.2493 C   0  0  0  0  0  0  0  0  0  0  0  0
    4.7466   -1.2637   -1.0154 C   0  0  0  0  0  0  0  0  0  0  0  0
    4.3366   -2.2687    0.0981 C   0  0  1  0  0  0  0  0  0  0  0  0
    3.9082   -3.6480   -0.4999 C   0  0  2  0  0  0  0  0  0  0  0  0
    3.4459   -4.6288    0.6099 C   0  0  0  0  0  0  0  0  0  0  0  0
    4.2646   -4.6326    1.9190 C   0  0  0  0  0  0  0  0  0  0  0  0
    4.6807   -3.2377    2.4618 C   0  0  2  0  0  0  0  0  0  0  0  0
    3.6340   -2.5393    3.4361 C   0  0  0  0  0  0  0  0  0  0  0  0
    2.1972   -2.3908    2.8805 C   0  0  0  0  0  0  0  0  0  0  0  0
    3.4903   -3.3757    4.7338 C   0  0  0  0  0  0  0  0  0  0  0  0
    4.1090   -1.1126    3.8335 C   0  0  1  0  0  0  0  0  0  0  0  0
    5.1588   -1.1359    4.7836 O   0  0  0  0  0  0  0  0  0  0  0  0
    4.5757   -0.2881    2.6353 C   0  0  0  0  0  0  0  0  0  0  0  0
    5.7080   -0.9879    1.8848 C   0  0  0  0  0  0  0  0  0  0  0  0
    5.3242   -2.3765    1.3158 C   0  0  2  0  0  0  0  0  0  0  0  0
    6.6643   -3.0326    0.8758 C   0  0  0  0  0  0  0  0  0  0  0  0
    4.9484   -4.2377   -1.5065 C   0  0  0  0  0  0  0  0  0  0  0  0
    4.5631   -3.5985   -2.8331 C   0  0  0  0  0  0  0  0  0  0  0  0
    5.0809   -3.8586   -3.9141 O   0  0  0  0  0  0  0  0  0  0  0  0
    2.7111   -3.3505   -1.4317 C   0  0  0  0  0  0  0  0  0  0  0  0
    1.4680   -2.2728   -3.6621 H   0  0  0  0  0  0  0  0  0  0  0  0
    2.2608   -3.7119   -4.2541 H   0  0  0  0  0  0  0  0  0  0  0  0
    2.8755   -2.1256   -4.7015 H   0  0  0  0  0  0  0  0  0  0  0  0
    4.2961   -0.7788   -3.0878 H   0  0  0  0  0  0  0  0  0  0  0  0
    2.9184   -0.6870   -2.0320 H   0  0  0  0  0  0  0  0  0  0  0  0
    5.7695   -1.4477   -1.3397 H   0  0  0  0  0  0  0  0  0  0  0  0
    4.7176   -0.2512   -0.6100 H   0  0  0  0  0  0  0  0  0  0  0  0
    3.4259   -1.8350    0.4919 H   0  0  0  0  0  0  0  0  0  0  0  0
    2.4012   -4.4340    0.8407 H   0  0  0  0  0  0  0  0  0  0  0  0
    3.4456   -5.6455    0.2147 H   0  0  0  0  0  0  0  0  0  0  0  0
    3.7059   -5.1880    2.6728 H   0  0  0  0  0  0  0  0  0  0  0  0
    5.1578   -5.2421    1.7704 H   0  0  0  0  0  0  0  0  0  0  0  0
    5.5104   -3.4514    3.1348 H   0  0  0  0  0  0  0  0  0  0  0  0
    1.5260   -2.0126    3.6521 H   0  0  0  0  0  0  0  0  0  0  0  0
    1.7795   -3.3405    2.5578 H   0  0  0  0  0  0  0  0  0  0  0  0
    2.1164   -1.6786    2.0648 H   0  0  0  0  0  0  0  0  0  0  0  0
    2.9252   -2.8341    5.4954 H   0  0  0  0  0  0  0  0  0  0  0  0
    4.4597   -3.6250    5.1688 H   0  0  0  0  0  0  0  0  0  0  0  0
    2.9646   -4.3145    4.5599 H   0  0  0  0  0  0  0  0  0  0  0  0
    3.2903   -0.5751    4.3140 H   0  0  0  0  0  0  0  0  0  0  0  0
    4.8378   -1.5467    5.5714 H   0  0  0  0  0  0  0  0  0  0  0  0
    3.7470   -0.0734    1.9603 H   0  0  0  0  0  0  0  0  0  0  0  0
    4.9153    0.6713    3.0124 H   0  0  0  0  0  0  0  0  0  0  0  0
    6.0936   -0.3362    1.1036 H   0  0  0  0  0  0  0  0  0  0  0  0
    6.5431   -1.1013    2.5755 H   0  0  0  0  0  0  0  0  0  0  0  0
    7.4032   -3.0440    1.6707 H   0  0  0  0  0  0  0  0  0  0  0  0
    7.1345   -2.5063    0.0458 H   0  0  0  0  0  0  0  0  0  0  0  0
    6.5674   -4.0797    0.6067 H   0  0  0  0  0  0  0  0  0  0  0  0
    5.9903   -4.0350   -1.3030 H   0  0  0  0  0  0  0  0  0  0  0  0
    4.8384   -5.3180   -1.6003 H   0  0  0  0  0  0  0  0  0  0  0  0
    1.9758   -2.7048   -0.9507 H   0  0  0  0  0  0  0  0  0  0  0  0
    2.1848   -4.2552   -1.7322 H   0  0  0  0  0  0  0  0  0  0  0  0
  2  1  1  6
  1 23  1  0
  1 24  1  0
  1 25  1  0
  2 20  1  0
  2 22  1  0
  2  3  1  0
  3  4  1  0
  3 26  1  0
  3 27  1  0
  4  5  1  0
  4 28  1  0
  4 29  1  0
  5 17  1  0
  5  6  1  0
  5 30  1  1
  6  7  1  1
  6 19  1  0
  6 22  1  0
  7  8  1  0
  7 31  1  0
  7 32  1  0
  8  9  1  0
  8 33  1  0
  8 34  1  0
  9 17  1  0
  9 10  1  0
  9 35  1  1
 10 11  1  0
 10 12  1  0
 10 13  1  0
 11 36  1  0
 11 37  1  0
 11 38  1  0
 12 39  1  0
 12 40  1  0
 12 41  1  0
 13 14  1  0
 13 15  1  0
 13 42  1  1
 14 43  1  0
 15 16  1  0
 15 44  1  0
 15 45  1  0
 16 17  1  0
 16 46  1  0
 16 47  1  0
 17 18  1  6
 18 48  1  0
 18 49  1  0
 18 50  1  0
 19 20  1  0
 19 51  1  0
 19 52  1  0
 20 21  2  0
 22 53  1  0
 22 54  1  0
M  END
>  <i_m_ct_stereo_status>  (156) 
1

>  <s_m_source_file>  (156) 
/var/tmp/pbs.5076255.sched01/tmpx9mnojvb/44r91_cmns.sdf

>  <i_m_source_file_index>  (156) 
36

>  <i_lp_mmshare_version>  (156) 
48012

>  <i_f3d_flags>  (156) 
0

>  <s_epik_input>  (156) 
W0NIMl0xQyg9TylbQ0BAXShbQ0gzXSkoW0NIMl0yKVtDSDJdW0NIMl1bQ0BASF0oW0NAXTEyMylbQ0BdNChbQ0gzXSlbQ0BIXShbQ0gyXVtDSDJdMylDKFtDSDNdKShbQ0gzXSlbQ0BASF0oW09IXSlbQ0gyXVtDSDJdNA==

>  <s_epik_cmdline>  (156) 
J2VwaWtfcHl0aG9uJywgJy1waHQnLCAnMi4wJywgJy1waCcsICc3LjAnLCAnLXRuJywgJzgnLCAnLW1hJywgJzIwMCcsICctaW1hZScsICc8aW5maWxlLm1hZT4nLCAnLW9tYWUnLCAnPG91dGZpbGUubWFlPic=

>  <r_lp_tautomer_probability>  (156) 
1

>  <r_epik_Ionization_Penalty>  (156) 
2.74289e-06

>  <r_epik_Ionization_Penalty_Charging>  (156) 
0

>  <r_epik_Ionization_Penalty_Neutral>  (156) 
2.74289e-06

>  <r_epik_State_Penalty>  (156) 
-0

>  <r_epik_Charging_Adjusted_Penalty>  (156) 
0

>  <i_epik_Tot_Q>  (156) 
0

>  <i_epik_Tot_abs_Q>  (156) 
0

>  <s_lp_Force_Field>  (156) 
OPLS3e

>  <r_lp_Energy>  (156) 
54.0452

>  <b_lp_Chiralities_Consistent>  (156) 
1

>  <s_lp_Variant>  (156) 
45:0-1

>  <s_i_glide_gridfile>  (156) 
pfpi4k_grid

>  <i_i_glide_lignum>  (156) 
36

>  <i_i_glide_rotatable_bonds>  (156) 
1

>  <r_i_docking_score>  (156) 
-3.66956

>  <r_i_glide_ligand_efficiency>  (156) 
-0.166798

>  <r_i_glide_ligand_efficiency_sa>  (156) 
-0.467375

>  <r_i_glide_ligand_efficiency_ln>  (156) 
-0.896975

>  <r_i_glide_gscore>  (156) 
-3.66956

>  <r_i_glide_lipo>  (156) 
-0.671476

>  <r_i_glide_hbond>  (156) 
0

>  <r_i_glide_metal>  (156) 
-0

>  <r_i_glide_rewards>  (156) 
-1.34264

>  <r_i_glide_evdw>  (156) 
-24.5832

>  <r_i_glide_ecoul>  (156) 
-2.84189

>  <r_i_glide_erotb>  (156) 
0

>  <r_i_glide_esite>  (156) 
0

>  <r_i_glide_emodel>  (156) 
-32.8914

>  <r_i_glide_energy>  (156) 
-27.4251

>  <r_i_glide_einternal>  (156) 
0.326377

>  <r_i_glide_intrahb_reward>  (156) 
-0

>  <i_i_glide_confnum>  (156) 
1

>  <i_i_glide_posenum>  (156) 
16

>  <r_i_glide_eff_state_penalty>  (156) 
0

>  <ligand_id>  (156) 
45

>  <original_smiles>  (156) 
CC12CCC3C(CCC4C(C)(C)C(O)CCC34C)(CC1=O)C2

>  <smiles>  (156) 
[H]OC1([H])C([H])([H])C([H])([H])C2(C([H])([H])[H])C3([H])C([H])([H])C([H])([H])C4(C([H])([H])[H])C(=O)C([H])([H])C3(C([H])([H])C([H])([H])C2([H])C1(C([H])([H])[H])C([H])([H])[H])C4([H])[H]

$$$$
45:0:1
     RDKit          3D

 54 57  0  0  1  0  0  0  0  0999 V2000
    2.5377   -2.7066   -3.9005 C   0  0  0  0  0  0  0  0  0  0  0  0
    3.3644   -2.6946   -2.6087 C   0  0  2  0  0  0  0  0  0  0  0  0
    3.7955   -1.2730   -2.1907 C   0  0  0  0  0  0  0  0  0  0  0  0
    4.6446   -1.2511   -0.8954 C   0  0  0  0  0  0  0  0  0  0  0  0
    4.1447   -2.2375    0.1999 C   0  0  1  0  0  0  0  0  0  0  0  0
    3.7583   -3.6245   -0.4087 C   0  0  2  0  0  0  0  0  0  0  0  0
    3.2121   -4.5846    0.6789 C   0  0  0  0  0  0  0  0  0  0  0  0
    3.9330   -4.5727    2.0417 C   0  0  0  0  0  0  0  0  0  0  0  0
    4.3082   -3.1718    2.5964 C   0  0  2  0  0  0  0  0  0  0  0  0
    3.2081   -2.4515    3.4875 C   0  0  0  0  0  0  0  0  0  0  0  0
    1.8157   -2.3041    2.8323 C   0  0  0  0  0  0  0  0  0  0  0  0
    2.9686   -3.2732    4.7793 C   0  0  0  0  0  0  0  0  0  0  0  0
    3.6702   -1.0231    3.8977 C   0  0  1  0  0  0  0  0  0  0  0  0
    4.6613   -1.0364    4.9114 O   0  0  0  0  0  0  0  0  0  0  0  0
    4.2182   -0.2125    2.7224 C   0  0  0  0  0  0  0  0  0  0  0  0
    5.3948   -0.9332    2.0645 C   0  0  0  0  0  0  0  0  0  0  0  0
    5.0301   -2.3267    1.4898 C   0  0  2  0  0  0  0  0  0  0  0  0
    6.3937   -2.9991    1.1836 C   0  0  0  0  0  0  0  0  0  0  0  0
    4.8611   -4.2342   -1.3357 C   0  0  0  0  0  0  0  0  0  0  0  0
    4.5848   -3.5964   -2.6855 C   0  0  0  0  0  0  0  0  0  0  0  0
    5.1990   -3.8398   -3.7211 O   0  0  0  0  0  0  0  0  0  0  0  0
    2.6368   -3.3410   -1.4281 C   0  0  0  0  0  0  0  0  0  0  0  0
    1.5559   -2.2607   -3.7448 H   0  0  0  0  0  0  0  0  0  0  0  0
    2.3704   -3.7213   -4.2606 H   0  0  0  0  0  0  0  0  0  0  0  0
    3.0250   -2.1465   -4.6959 H   0  0  0  0  0  0  0  0  0  0  0  0
    4.3453   -0.7853   -2.9983 H   0  0  0  0  0  0  0  0  0  0  0  0
    2.8927   -0.6740   -2.0439 H   0  0  0  0  0  0  0  0  0  0  0  0
    5.6912   -1.4433   -1.1404 H   0  0  0  0  0  0  0  0  0  0  0  0
    4.5930   -0.2378   -0.5026 H   0  0  0  0  0  0  0  0  0  0  0  0
    3.2069   -1.7927    0.5137 H   0  0  0  0  0  0  0  0  0  0  0  0
    2.1552   -4.3769    0.8314 H   0  0  0  0  0  0  0  0  0  0  0  0
    3.2336   -5.6046    0.3012 H   0  0  0  0  0  0  0  0  0  0  0  0
    3.3204   -5.1125    2.7579 H   0  0  0  0  0  0  0  0  0  0  0  0
    4.8301   -5.1897    1.9677 H   0  0  0  0  0  0  0  0  0  0  0  0
    5.0862   -3.3807    3.3285 H   0  0  0  0  0  0  0  0  0  0  0  0
    1.0947   -1.9097    3.5517 H   0  0  0  0  0  0  0  0  0  0  0  0
    1.4201   -3.2616    2.5012 H   0  0  0  0  0  0  0  0  0  0  0  0
    1.7993   -1.6061    1.9982 H   0  0  0  0  0  0  0  0  0  0  0  0
    2.3561   -2.7151    5.4910 H   0  0  0  0  0  0  0  0  0  0  0  0
    3.9048   -3.5142    5.2853 H   0  0  0  0  0  0  0  0  0  0  0  0
    2.4519   -4.2119    4.5786 H   0  0  0  0  0  0  0  0  0  0  0  0
    2.8222   -0.4797    4.3151 H   0  0  0  0  0  0  0  0  0  0  0  0
    4.8230   -0.1468    5.1798 H   0  0  0  0  0  0  0  0  0  0  0  0
    3.4412   -0.0172    1.9842 H   0  0  0  0  0  0  0  0  0  0  0  0
    4.5384    0.7649    3.0828 H   0  0  0  0  0  0  0  0  0  0  0  0
    5.8454   -0.2963    1.3047 H   0  0  0  0  0  0  0  0  0  0  0  0
    6.1753   -1.0504    2.8165 H   0  0  0  0  0  0  0  0  0  0  0  0
    7.0191   -2.9978    2.0666 H   0  0  0  0  0  0  0  0  0  0  0  0
    6.9555   -2.4800    0.4063 H   0  0  0  0  0  0  0  0  0  0  0  0
    6.3186   -4.0475    0.9047 H   0  0  0  0  0  0  0  0  0  0  0  0
    5.8910   -4.0481   -1.0563 H   0  0  0  0  0  0  0  0  0  0  0  0
    4.7409   -5.3085   -1.4460 H   0  0  0  0  0  0  0  0  0  0  0  0
    1.8623   -2.6985   -1.0150 H   0  0  0  0  0  0  0  0  0  0  0  0
    2.1391   -4.2494   -1.7593 H   0  0  0  0  0  0  0  0  0  0  0  0
  2  1  1  6
  1 23  1  0
  1 24  1  0
  1 25  1  0
  2 20  1  0
  2 22  1  0
  2  3  1  0
  3  4  1  0
  3 26  1  0
  3 27  1  0
  4  5  1  0
  4 28  1  0
  4 29  1  0
  5 17  1  0
  5  6  1  0
  5 30  1  1
  6  7  1  1
  6 19  1  0
  6 22  1  0
  7  8  1  0
  7 31  1  0
  7 32  1  0
  8  9  1  0
  8 33  1  0
  8 34  1  0
  9 17  1  0
  9 10  1  0
  9 35  1  1
 10 11  1  0
 10 12  1  0
 10 13  1  0
 11 36  1  0
 11 37  1  0
 11 38  1  0
 12 39  1  0
 12 40  1  0
 12 41  1  0
 13 14  1  0
 13 15  1  0
 13 42  1  1
 14 43  1  0
 15 16  1  0
 15 44  1  0
 15 45  1  0
 16 17  1  0
 16 46  1  0
 16 47  1  0
 17 18  1  6
 18 48  1  0
 18 49  1  0
 18 50  1  0
 19 20  1  0
 19 51  1  0
 19 52  1  0
 20 21  2  0
 22 53  1  0
 22 54  1  0
M  END
>  <i_m_ct_stereo_status>  (157) 
1

>  <s_m_source_file>  (157) 
/var/tmp/pbs.5076255.sched01/tmpx9mnojvb/44r91_cmns.sdf

>  <i_m_source_file_index>  (157) 
36

>  <i_lp_mmshare_version>  (157) 
48012

>  <i_f3d_flags>  (157) 
0

>  <s_epik_input>  (157) 
W0NIMl0xQyg9TylbQ0BAXShbQ0gzXSkoW0NIMl0yKVtDSDJdW0NIMl1bQ0BASF0oW0NAXTEyMylbQ0BdNChbQ0gzXSlbQ0BIXShbQ0gyXVtDSDJdMylDKFtDSDNdKShbQ0gzXSlbQ0BASF0oW09IXSlbQ0gyXVtDSDJdNA==

>  <s_epik_cmdline>  (157) 
J2VwaWtfcHl0aG9uJywgJy1waHQnLCAnMi4wJywgJy1waCcsICc3LjAnLCAnLXRuJywgJzgnLCAnLW1hJywgJzIwMCcsICctaW1hZScsICc8aW5maWxlLm1hZT4nLCAnLW9tYWUnLCAnPG91dGZpbGUubWFlPic=

>  <r_lp_tautomer_probability>  (157) 
1

>  <r_epik_Ionization_Penalty>  (157) 
2.74289e-06

>  <r_epik_Ionization_Penalty_Charging>  (157) 
0

>  <r_epik_Ionization_Penalty_Neutral>  (157) 
2.74289e-06

>  <r_epik_State_Penalty>  (157) 
-0

>  <r_epik_Charging_Adjusted_Penalty>  (157) 
0

>  <i_epik_Tot_Q>  (157) 
0

>  <i_epik_Tot_abs_Q>  (157) 
0

>  <s_lp_Force_Field>  (157) 
OPLS3e

>  <r_lp_Energy>  (157) 
54.0452

>  <b_lp_Chiralities_Consistent>  (157) 
1

>  <s_lp_Variant>  (157) 
45:0-1

>  <s_i_glide_gridfile>  (157) 
pfpi4k_grid

>  <i_i_glide_lignum>  (157) 
36

>  <i_i_glide_rotatable_bonds>  (157) 
1

>  <r_i_docking_score>  (157) 
-3.50235

>  <r_i_glide_ligand_efficiency>  (157) 
-0.159198

>  <r_i_glide_ligand_efficiency_sa>  (157) 
-0.446078

>  <r_i_glide_ligand_efficiency_ln>  (157) 
-0.856101

>  <r_i_glide_gscore>  (157) 
-3.50235

>  <r_i_glide_lipo>  (157) 
-0.572653

>  <r_i_glide_hbond>  (157) 
0

>  <r_i_glide_metal>  (157) 
-0

>  <r_i_glide_rewards>  (157) 
-1.33318

>  <r_i_glide_evdw>  (157) 
-24.1638

>  <r_i_glide_ecoul>  (157) 
-2.56362

>  <r_i_glide_erotb>  (157) 
0

>  <r_i_glide_esite>  (157) 
-0.00378108

>  <r_i_glide_emodel>  (157) 
-31.9207

>  <r_i_glide_energy>  (157) 
-26.7274

>  <r_i_glide_einternal>  (157) 
0.329624

>  <r_i_glide_intrahb_reward>  (157) 
-0

>  <i_i_glide_confnum>  (157) 
1

>  <i_i_glide_posenum>  (157) 
6

>  <r_i_glide_eff_state_penalty>  (157) 
0

>  <ligand_id>  (157) 
45

>  <original_smiles>  (157) 
CC12CCC3C(CCC4C(C)(C)C(O)CCC34C)(CC1=O)C2

>  <smiles>  (157) 
[H]OC1([H])C([H])([H])C([H])([H])C2(C([H])([H])[H])C3([H])C([H])([H])C([H])([H])C4(C([H])([H])[H])C(=O)C([H])([H])C3(C([H])([H])C([H])([H])C2([H])C1(C([H])([H])[H])C([H])([H])[H])C4([H])[H]

$$$$
45:0:2
     RDKit          3D

 54 57  0  0  1  0  0  0  0  0999 V2000
    2.5362   -2.7080   -3.9014 C   0  0  0  0  0  0  0  0  0  0  0  0
    3.3661   -2.6919   -2.6107 C   0  0  2  0  0  0  0  0  0  0  0  0
    3.7921   -1.2732   -2.1913 C   0  0  0  0  0  0  0  0  0  0  0  0
    4.6392   -1.2489   -0.8943 C   0  0  0  0  0  0  0  0  0  0  0  0
    4.1405   -2.2389    0.1969 C   0  0  1  0  0  0  0  0  0  0  0  0
    3.7588   -3.6252   -0.4096 C   0  0  2  0  0  0  0  0  0  0  0  0
    3.2136   -4.5906    0.6740 C   0  0  0  0  0  0  0  0  0  0  0  0
    3.9290   -4.5762    2.0416 C   0  0  0  0  0  0  0  0  0  0  0  0
    4.3082   -3.1741    2.5958 C   0  0  2  0  0  0  0  0  0  0  0  0
    3.2094   -2.4573    3.4887 C   0  0  0  0  0  0  0  0  0  0  0  0
    1.8138   -2.3094    2.8310 C   0  0  0  0  0  0  0  0  0  0  0  0
    2.9664   -3.2810    4.7787 C   0  0  0  0  0  0  0  0  0  0  0  0
    3.6660   -1.0275    3.9027 C   0  0  1  0  0  0  0  0  0  0  0  0
    4.6461   -1.0438    4.9281 O   0  0  0  0  0  0  0  0  0  0  0  0
    4.2203   -0.2181    2.7278 C   0  0  0  0  0  0  0  0  0  0  0  0
    5.3942   -0.9347    2.0653 C   0  0  0  0  0  0  0  0  0  0  0  0
    5.0304   -2.3297    1.4875 C   0  0  2  0  0  0  0  0  0  0  0  0
    6.3896   -2.9985    1.1761 C   0  0  0  0  0  0  0  0  0  0  0  0
    4.8561   -4.2344   -1.3402 C   0  0  0  0  0  0  0  0  0  0  0  0
    4.5818   -3.5974   -2.6919 C   0  0  0  0  0  0  0  0  0  0  0  0
    5.2019   -3.8386   -3.7229 O   0  0  0  0  0  0  0  0  0  0  0  0
    2.6345   -3.3381   -1.4305 C   0  0  0  0  0  0  0  0  0  0  0  0
    1.5545   -2.2696   -3.7475 H   0  0  0  0  0  0  0  0  0  0  0  0
    2.3704   -3.7215   -4.2654 H   0  0  0  0  0  0  0  0  0  0  0  0
    3.0211   -2.1455   -4.6973 H   0  0  0  0  0  0  0  0  0  0  0  0
    4.3423   -0.7850   -2.9961 H   0  0  0  0  0  0  0  0  0  0  0  0
    2.8918   -0.6740   -2.0426 H   0  0  0  0  0  0  0  0  0  0  0  0
    5.6836   -1.4408   -1.1396 H   0  0  0  0  0  0  0  0  0  0  0  0
    4.5928   -0.2331   -0.5003 H   0  0  0  0  0  0  0  0  0  0  0  0
    3.2053   -1.7952    0.5146 H   0  0  0  0  0  0  0  0  0  0  0  0
    2.1611   -4.3809    0.8311 H   0  0  0  0  0  0  0  0  0  0  0  0
    3.2291   -5.6118    0.2947 H   0  0  0  0  0  0  0  0  0  0  0  0
    3.3180   -5.1200    2.7586 H   0  0  0  0  0  0  0  0  0  0  0  0
    4.8265   -5.1912    1.9649 H   0  0  0  0  0  0  0  0  0  0  0  0
    5.0907   -3.3897    3.3248 H   0  0  0  0  0  0  0  0  0  0  0  0
    1.0934   -1.9169    3.5489 H   0  0  0  0  0  0  0  0  0  0  0  0
    1.4168   -3.2645    2.4977 H   0  0  0  0  0  0  0  0  0  0  0  0
    1.7960   -1.6110    1.9990 H   0  0  0  0  0  0  0  0  0  0  0  0
    2.3543   -2.7238    5.4901 H   0  0  0  0  0  0  0  0  0  0  0  0
    3.9017   -3.5261    5.2877 H   0  0  0  0  0  0  0  0  0  0  0  0
    2.4486   -4.2190    4.5788 H   0  0  0  0  0  0  0  0  0  0  0  0
    2.8175   -0.4828    4.3171 H   0  0  0  0  0  0  0  0  0  0  0  0
    5.4069   -1.4955    4.6097 H   0  0  0  0  0  0  0  0  0  0  0  0
    3.4412   -0.0192    1.9909 H   0  0  0  0  0  0  0  0  0  0  0  0
    4.5368    0.7584    3.0917 H   0  0  0  0  0  0  0  0  0  0  0  0
    5.8413   -0.2973    1.3049 H   0  0  0  0  0  0  0  0  0  0  0  0
    6.1803   -1.0491    2.8123 H   0  0  0  0  0  0  0  0  0  0  0  0
    7.0106   -2.9974    2.0627 H   0  0  0  0  0  0  0  0  0  0  0  0
    6.9440   -2.4854    0.3923 H   0  0  0  0  0  0  0  0  0  0  0  0
    6.3166   -4.0454    0.8971 H   0  0  0  0  0  0  0  0  0  0  0  0
    5.8856   -4.0466   -1.0601 H   0  0  0  0  0  0  0  0  0  0  0  0
    4.7381   -5.3093   -1.4468 H   0  0  0  0  0  0  0  0  0  0  0  0
    1.8581   -2.7023   -1.0170 H   0  0  0  0  0  0  0  0  0  0  0  0
    2.1343   -4.2533   -1.7603 H   0  0  0  0  0  0  0  0  0  0  0  0
  2  1  1  6
  1 23  1  0
  1 24  1  0
  1 25  1  0
  2 20  1  0
  2 22  1  0
  2  3  1  0
  3  4  1  0
  3 26  1  0
  3 27  1  0
  4  5  1  0
  4 28  1  0
  4 29  1  0
  5 17  1  0
  5  6  1  0
  5 30  1  1
  6  7  1  1
  6 19  1  0
  6 22  1  0
  7  8  1  0
  7 31  1  0
  7 32  1  0
  8  9  1  0
  8 33  1  0
  8 34  1  0
  9 17  1  0
  9 10  1  0
  9 35  1  1
 10 11  1  0
 10 12  1  0
 10 13  1  0
 11 36  1  0
 11 37  1  0
 11 38  1  0
 12 39  1  0
 12 40  1  0
 12 41  1  0
 13 14  1  0
 13 15  1  0
 13 42  1  1
 14 43  1  0
 15 16  1  0
 15 44  1  0
 15 45  1  0
 16 17  1  0
 16 46  1  0
 16 47  1  0
 17 18  1  6
 18 48  1  0
 18 49  1  0
 18 50  1  0
 19 20  1  0
 19 51  1  0
 19 52  1  0
 20 21  2  0
 22 53  1  0
 22 54  1  0
M  END
>  <i_m_ct_stereo_status>  (158) 
1

>  <s_m_source_file>  (158) 
/var/tmp/pbs.5076255.sched01/tmpx9mnojvb/44r91_cmns.sdf

>  <i_m_source_file_index>  (158) 
36

>  <i_lp_mmshare_version>  (158) 
48012

>  <i_f3d_flags>  (158) 
0

>  <s_epik_input>  (158) 
W0NIMl0xQyg9TylbQ0BAXShbQ0gzXSkoW0NIMl0yKVtDSDJdW0NIMl1bQ0BASF0oW0NAXTEyMylbQ0BdNChbQ0gzXSlbQ0BIXShbQ0gyXVtDSDJdMylDKFtDSDNdKShbQ0gzXSlbQ0BASF0oW09IXSlbQ0gyXVtDSDJdNA==

>  <s_epik_cmdline>  (158) 
J2VwaWtfcHl0aG9uJywgJy1waHQnLCAnMi4wJywgJy1waCcsICc3LjAnLCAnLXRuJywgJzgnLCAnLW1hJywgJzIwMCcsICctaW1hZScsICc8aW5maWxlLm1hZT4nLCAnLW9tYWUnLCAnPG91dGZpbGUubWFlPic=

>  <r_lp_tautomer_probability>  (158) 
1

>  <r_epik_Ionization_Penalty>  (158) 
2.74289e-06

>  <r_epik_Ionization_Penalty_Charging>  (158) 
0

>  <r_epik_Ionization_Penalty_Neutral>  (158) 
2.74289e-06

>  <r_epik_State_Penalty>  (158) 
-0

>  <r_epik_Charging_Adjusted_Penalty>  (158) 
0

>  <i_epik_Tot_Q>  (158) 
0

>  <i_epik_Tot_abs_Q>  (158) 
0

>  <s_lp_Force_Field>  (158) 
OPLS3e

>  <r_lp_Energy>  (158) 
54.0452

>  <b_lp_Chiralities_Consistent>  (158) 
1

>  <s_lp_Variant>  (158) 
45:0-1

>  <s_i_glide_gridfile>  (158) 
pfpi4k_grid

>  <i_i_glide_lignum>  (158) 
36

>  <i_i_glide_rotatable_bonds>  (158) 
1

>  <r_i_docking_score>  (158) 
-3.47673

>  <r_i_glide_ligand_efficiency>  (158) 
-0.158033

>  <r_i_glide_ligand_efficiency_sa>  (158) 
-0.442815

>  <r_i_glide_ligand_efficiency_ln>  (158) 
-0.84984

>  <r_i_glide_gscore>  (158) 
-3.47673

>  <r_i_glide_lipo>  (158) 
-0.572283

>  <r_i_glide_hbond>  (158) 
0

>  <r_i_glide_metal>  (158) 
-0

>  <r_i_glide_rewards>  (158) 
-1.33318

>  <r_i_glide_evdw>  (158) 
-24.1926

>  <r_i_glide_ecoul>  (158) 
-2.38592

>  <r_i_glide_erotb>  (158) 
0

>  <r_i_glide_esite>  (158) 
-0.00374958

>  <r_i_glide_emodel>  (158) 
-31.9035

>  <r_i_glide_energy>  (158) 
-26.5785

>  <r_i_glide_einternal>  (158) 
0.000205493

>  <r_i_glide_intrahb_reward>  (158) 
-0

>  <i_i_glide_confnum>  (158) 
1

>  <i_i_glide_posenum>  (158) 
2

>  <r_i_glide_eff_state_penalty>  (158) 
0

>  <ligand_id>  (158) 
45

>  <original_smiles>  (158) 
CC12CCC3C(CCC4C(C)(C)C(O)CCC34C)(CC1=O)C2

>  <smiles>  (158) 
[H]OC1([H])C([H])([H])C([H])([H])C2(C([H])([H])[H])C3([H])C([H])([H])C([H])([H])C4(C([H])([H])[H])C(=O)C([H])([H])C3(C([H])([H])C([H])([H])C2([H])C1(C([H])([H])[H])C([H])([H])[H])C4([H])[H]

$$$$
46:0:0
     RDKit          3D

 65 73  0  0  1  0  0  0  0  0999 V2000
    3.6601    0.0318    0.8367 C   0  0  0  0  0  0  0  0  0  0  0  0
    4.2142   -0.3648    2.0836 O   0  0  0  0  0  0  0  0  0  0  0  0
    3.2744   -0.7761    3.0723 C   0  0  0  0  0  0  0  0  0  0  0  0
    2.4016    0.3842    3.6257 C   0  0  2  0  0  0  0  0  0  0  0  0
    1.0318    0.6761    2.5980 C   0  0  0  0  0  0  0  0  0  0  0  0
   -0.0222    1.9298    2.8519 C   0  0  2  0  0  0  0  0  0  0  0  0
    1.0916    2.3501    3.4962 C   0  0  2  0  0  0  0  0  0  0  0  0
    2.3709    3.0673    3.1896 N   0  0  1  0  0  0  0  0  0  0  0  0
    2.5435    4.3120    2.3819 C   0  0  0  0  0  0  0  0  0  0  0  0
    2.8152    3.1352    4.5466 C   0  0  2  0  0  0  0  0  0  0  0  0
    3.3874    1.5868    4.3025 C   0  0  1  0  0  0  0  0  0  0  0  0
    3.8763    1.0258    5.6210 C   0  0  1  0  0  0  0  0  0  0  0  0
    4.5546    1.9633    6.4286 O   0  0  0  0  0  0  0  0  0  0  0  0
    2.5811    0.5303    6.1358 C   0  0  1  0  0  0  0  0  0  0  0  0
    2.7596   -0.4706    7.1206 O   0  0  0  0  0  0  0  0  0  0  0  0
    1.4465    1.5076    6.3731 C   0  0  1  0  0  0  0  0  0  0  0  0
    1.3771    2.9432    6.7469 C   0  0  2  0  0  0  0  0  0  0  0  0
    2.3270    3.3686    7.6711 O   0  0  0  0  0  0  0  0  0  0  0  0
   -0.0985    3.0396    7.3355 C   0  0  0  0  0  0  0  0  0  0  0  0
   -1.2042    2.2465    6.4980 C   0  0  1  0  0  0  0  0  0  0  0  0
   -1.8055    1.3599    7.4349 O   0  0  0  0  0  0  0  0  0  0  0  0
   -2.3938    3.0512    5.8634 C   0  0  0  0  0  0  0  0  0  0  0  0
   -2.1273    3.1322    4.3409 C   0  0  0  0  0  0  0  0  0  0  0  0
   -0.6654    2.6978    4.2623 C   0  0  2  0  0  0  0  0  0  0  0  0
    0.2580    4.0633    4.9084 C   0  0  1  0  0  0  0  0  0  0  0  0
   -0.3792    5.1312    5.5743 O   0  0  0  0  0  0  0  0  0  0  0  0
    1.6525    3.7278    5.5088 N   0  0  0  0  0  0  0  0  0  0  0  0
   -0.6517    1.5312    5.2147 C   0  0  2  0  0  0  0  0  0  0  0  0
   -1.4991    0.2843    4.8254 C   0  0  0  0  0  0  0  0  0  0  0  0
    0.8301    1.3876    4.9841 C   0  0  1  0  0  0  0  0  0  0  0  0
    1.6987    0.1084    4.9101 C   0  0  1  0  0  0  0  0  0  0  0  0
    1.0690   -1.1502    4.9471 O   0  0  0  0  0  0  0  0  0  0  0  0
    4.3996    0.2526    0.0710 H   0  0  0  0  0  0  0  0  0  0  0  0
    3.1912    1.0073    0.9354 H   0  0  0  0  0  0  0  0  0  0  0  0
    2.9601   -0.7132    0.4518 H   0  0  0  0  0  0  0  0  0  0  0  0
    2.6663   -1.5853    2.6843 H   0  0  0  0  0  0  0  0  0  0  0  0
    3.8623   -1.2430    3.8613 H   0  0  0  0  0  0  0  0  0  0  0  0
    1.2375    0.8682    1.5490 H   0  0  0  0  0  0  0  0  0  0  0  0
    0.5046   -0.2868    2.5048 H   0  0  0  0  0  0  0  0  0  0  0  0
   -0.3371    2.3525    1.8737 H   0  0  0  0  0  0  0  0  0  0  0  0
    0.7660    3.2474    2.9422 H   0  0  0  0  0  0  0  0  0  0  0  0
    2.1361    5.2228    2.7781 H   0  0  0  0  0  0  0  0  0  0  0  0
    2.2144    4.2234    1.3571 H   0  0  0  0  0  0  0  0  0  0  0  0
    3.5984    4.5259    2.2437 H   0  0  0  0  0  0  0  0  0  0  0  0
    3.6666    3.8105    4.6009 H   0  0  0  0  0  0  0  0  0  0  0  0
    4.2735    1.6803    3.6841 H   0  0  0  0  0  0  0  0  0  0  0  0
    4.5558    0.1953    5.4367 H   0  0  0  0  0  0  0  0  0  0  0  0
    3.9352    2.6227    6.7288 H   0  0  0  0  0  0  0  0  0  0  0  0
    3.3781   -1.0942    6.7577 H   0  0  0  0  0  0  0  0  0  0  0  0
    0.8761    0.8978    7.0792 H   0  0  0  0  0  0  0  0  0  0  0  0
    1.8800    3.5229    8.4833 H   0  0  0  0  0  0  0  0  0  0  0  0
   -0.0498    2.5931    8.3292 H   0  0  0  0  0  0  0  0  0  0  0  0
   -0.4056    4.0423    7.6184 H   0  0  0  0  0  0  0  0  0  0  0  0
   -2.0950    1.8816    8.1747 H   0  0  0  0  0  0  0  0  0  0  0  0
   -3.3395    2.5431    6.0214 H   0  0  0  0  0  0  0  0  0  0  0  0
   -2.5092    4.0239    6.3342 H   0  0  0  0  0  0  0  0  0  0  0  0
   -2.7614    2.4429    3.7654 H   0  0  0  0  0  0  0  0  0  0  0  0
   -2.2690    4.1329    3.9346 H   0  0  0  0  0  0  0  0  0  0  0  0
    0.4815    4.7258    4.0831 H   0  0  0  0  0  0  0  0  0  0  0  0
    0.2788    5.6536    6.0305 H   0  0  0  0  0  0  0  0  0  0  0  0
   -1.2523   -0.1415    3.8631 H   0  0  0  0  0  0  0  0  0  0  0  0
   -2.5652    0.4735    4.8047 H   0  0  0  0  0  0  0  0  0  0  0  0
   -1.3668   -0.5116    5.5529 H   0  0  0  0  0  0  0  0  0  0  0  0
    1.6452   -1.7640    4.5153 H   0  0  0  0  0  0  0  0  0  0  0  0
    2.9602    2.4164    2.7032 H   0  0  0  0  0  0  0  0  0  0  0  0
  1  2  1  0
  1 33  1  0
  1 34  1  0
  1 35  1  0
  2  3  1  0
  4  3  1  6
  3 36  1  0
  3 37  1  0
  4 11  1  0
  4 31  1  0
  4  5  1  0
  5  6  1  0
  5 38  1  0
  5 39  1  0
  6 24  1  0
  6  7  1  0
  6 40  1  6
  7 30  1  0
  7  8  1  0
  7 41  1  1
  8  9  1  0
  8 10  1  0
  8 65  1  6
  9 42  1  0
  9 43  1  0
  9 44  1  0
 10 27  1  0
 10 11  1  0
 10 45  1  6
 11 12  1  0
 11 46  1  6
 12 13  1  0
 12 14  1  0
 12 47  1  6
 13 48  1  0
 14 31  1  0
 14 15  1  1
 14 16  1  0
 15 49  1  0
 16 30  1  0
 16 17  1  0
 16 50  1  1
 17 27  1  0
 17 18  1  1
 17 19  1  0
 18 51  1  0
 19 20  1  0
 19 52  1  0
 19 53  1  0
 20 28  1  0
 20 21  1  1
 20 22  1  0
 21 54  1  0
 22 23  1  0
 22 55  1  0
 22 56  1  0
 24 23  1  6
 23 57  1  0
 23 58  1  0
 24 25  1  0
 24 28  1  0
 25 26  1  0
 25 27  1  0
 25 59  1  6
 26 60  1  0
 28 29  1  6
 28 30  1  0
 29 61  1  0
 29 62  1  0
 29 63  1  0
 30 31  1  6
 31 32  1  1
 32 64  1  0
M  CHG  1   8   1
M  END
>  <i_m_ct_stereo_status>  (159) 
1

>  <s_m_source_file>  (159) 
/var/tmp/pbs.5076255.sched01/tmpx9mnojvb/44r91_cmns.sdf

>  <i_m_source_file_index>  (159) 
37

>  <i_lp_mmshare_version>  (159) 
48012

>  <i_f3d_flags>  (159) 
0

>  <s_epik_input>  (159) 
W0NAQF0xMjNbQ0BIXTRbQ0BIXTVbQ0BAXTY3W0NASF04W0NAQF05KFtPSF0pW0NAXTcoW09IXSlbQ0BdKFtDSDJdNCkoW0NIMl1PW0NIM10pW0NASF0oW0NASF05W09IXSlbQ0BASF0oTjVbQ0gzXSlOKFtDQEBIXTJbT0hdKVtDQEBdOChbT0hdKVtDSDJdW0NAQF0oW09IXSkoW0NIMl1bQ0gyXTEpW0NAQF0zNltDSDNd

>  <s_epik_cmdline>  (159) 
J2VwaWtfcHl0aG9uJywgJy1waHQnLCAnMi4wJywgJy1waCcsICc3LjAnLCAnLXRuJywgJzgnLCAnLW1hJywgJzIwMCcsICctaW1hZScsICc8aW5maWxlLm1hZT4nLCAnLW9tYWUnLCAnPG91dGZpbGUubWFlPic=

>  <r_epik_Ionization_Penalty>  (159) 
0.015658

>  <r_epik_Ionization_Penalty_Charging>  (159) 
0.0156573

>  <r_epik_Ionization_Penalty_Neutral>  (159) 
7.25071e-07

>  <r_epik_State_Penalty>  (159) 
0.0123163

>  <r_epik_Charging_Adjusted_Penalty>  (159) 
0.0279737

>  <i_epik_Tot_Q>  (159) 
1

>  <i_epik_Tot_abs_Q>  (159) 
1

>  <s_epik_Chemistry_Notes>  (159) 
This compound contains an acetal/aminal-like group ( X-CH(R)-Y where X, Y are N, S, or O) that may be acid/base labile, releasing an aldehyde.

>  <s_lp_Force_Field>  (159) 
OPLS3e

>  <r_lp_Energy>  (159) 
540.563

>  <b_lp_Chiralities_Consistent>  (159) 
1

>  <s_lp_Variant>  (159) 
46:0-1

>  <s_i_glide_gridfile>  (159) 
pfpi4k_grid

>  <i_i_glide_lignum>  (159) 
37

>  <i_i_glide_rotatable_bonds>  (159) 
8

>  <r_i_docking_score>  (159) 
-3.17278

>  <r_i_glide_ligand_efficiency>  (159) 
-0.0991495

>  <r_i_glide_ligand_efficiency_sa>  (159) 
-0.31478

>  <r_i_glide_ligand_efficiency_ln>  (159) 
-0.710473

>  <r_i_glide_gscore>  (159) 
-3.17278

>  <r_i_glide_lipo>  (159) 
-0.0504169

>  <r_i_glide_hbond>  (159) 
-0.110787

>  <r_i_glide_metal>  (159) 
-0

>  <r_i_glide_rewards>  (159) 
-0.8442

>  <r_i_glide_evdw>  (159) 
-19.8204

>  <r_i_glide_ecoul>  (159) 
-8.04286

>  <r_i_glide_erotb>  (159) 
0.0991832

>  <r_i_glide_esite>  (159) 
-0.0691149

>  <r_i_glide_emodel>  (159) 
-36.4178

>  <r_i_glide_energy>  (159) 
-27.8633

>  <r_i_glide_einternal>  (159) 
3.96866

>  <r_i_glide_intrahb_reward>  (159) 
-0.5

>  <i_i_glide_confnum>  (159) 
4

>  <i_i_glide_posenum>  (159) 
7

>  <r_i_glide_eff_state_penalty>  (159) 
0

>  <ligand_id>  (159) 
46

>  <original_smiles>  (159) 
COCC12CC3C4N(C)C5C1C(O)C1(O)C6C7(O)CC8(O)CCC3(C(O)N57)C8(C)C46C21O

>  <smiles>  (159) 
[H]OC1([H])N2C3(O[H])C([H])([H])C4(O[H])C([H])([H])C([H])([H])C15C1([H])C([H])([H])C6(C([H])([H])OC([H])([H])[H])C7([H])C([H])(O[H])C8(O[H])C3([H])C(C86O[H])(C45C([H])([H])[H])C1([H])[N+]([H])(C([H])([H])[H])C27[H]

$$$$
46:0:1
     RDKit          3D

 65 73  0  0  1  0  0  0  0  0999 V2000
   -4.6293    3.7988    2.1081 C   0  0  0  0  0  0  0  0  0  0  0  0
   -3.6891    3.1849    2.9775 O   0  0  0  0  0  0  0  0  0  0  0  0
   -2.4894    3.9268    3.1392 C   0  0  0  0  0  0  0  0  0  0  0  0
   -1.4290    3.0090    3.7749 C   0  0  2  0  0  0  0  0  0  0  0  0
   -0.8509    1.9289    2.5998 C   0  0  0  0  0  0  0  0  0  0  0  0
    0.3558    0.7908    2.8876 C   0  0  2  0  0  0  0  0  0  0  0  0
   -0.2293    0.9851    4.0852 C   0  0  2  0  0  0  0  0  0  0  0  0
   -1.4369    0.4801    4.8197 N   0  0  1  0  0  0  0  0  0  0  0  0
   -1.8998   -0.9345    4.9749 C   0  0  0  0  0  0  0  0  0  0  0  0
   -1.1568    1.1719    6.0321 C   0  0  2  0  0  0  0  0  0  0  0  0
   -1.8788    2.4976    5.3323 C   0  0  1  0  0  0  0  0  0  0  0  0
   -1.6648    3.6759    6.2109 C   0  0  1  0  0  0  0  0  0  0  0  0
   -1.7879    3.3973    7.6024 O   0  0  0  0  0  0  0  0  0  0  0  0
   -0.3253    4.0819    5.7149 C   0  0  1  0  0  0  0  0  0  0  0  0
   -0.1265    5.4488    6.0117 O   0  0  0  0  0  0  0  0  0  0  0  0
    0.8358    3.1444    5.9188 C   0  0  1  0  0  0  0  0  0  0  0  0
    1.1304    2.0603    6.9126 C   0  0  2  0  0  0  0  0  0  0  0  0
    0.7527    2.3361    8.2348 O   0  0  0  0  0  0  0  0  0  0  0  0
    2.7108    1.9750    6.7458 C   0  0  0  0  0  0  0  0  0  0  0  0
    3.2050    2.0264    5.2110 C   0  0  1  0  0  0  0  0  0  0  0  0
    4.0626    3.1524    5.1630 O   0  0  0  0  0  0  0  0  0  0  0  0
    3.9910    0.7948    4.6510 C   0  0  0  0  0  0  0  0  0  0  0  0
    3.0196    0.0462    3.6846 C   0  0  0  0  0  0  0  0  0  0  0  0
    1.6688    0.6755    4.0367 C   0  0  2  0  0  0  0  0  0  0  0  0
    1.2810    0.0226    5.6400 C   0  0  1  0  0  0  0  0  0  0  0  0
    2.1707   -0.7032    6.4516 O   0  0  0  0  0  0  0  0  0  0  0  0
    0.3269    0.8684    6.5226 N   0  0  0  0  0  0  0  0  0  0  0  0
    2.0487    2.1263    4.1463 C   0  0  2  0  0  0  0  0  0  0  0  0
    2.4766    2.8391    2.8375 C   0  0  0  0  0  0  0  0  0  0  0  0
    0.6708    2.4566    4.5587 C   0  0  1  0  0  0  0  0  0  0  0  0
   -0.1857    3.7011    4.2131 C   0  0  1  0  0  0  0  0  0  0  0  0
    0.3031    4.7038    3.3274 O   0  0  0  0  0  0  0  0  0  0  0  0
   -5.5220    3.1806    2.0486 H   0  0  0  0  0  0  0  0  0  0  0  0
   -4.2304    3.8809    1.0997 H   0  0  0  0  0  0  0  0  0  0  0  0
   -4.9398    4.7887    2.4451 H   0  0  0  0  0  0  0  0  0  0  0  0
   -2.1255    4.2880    2.1774 H   0  0  0  0  0  0  0  0  0  0  0  0
   -2.6451    4.8068    3.7513 H   0  0  0  0  0  0  0  0  0  0  0  0
   -1.7268    1.4081    2.2001 H   0  0  0  0  0  0  0  0  0  0  0  0
   -0.4899    2.5330    1.7659 H   0  0  0  0  0  0  0  0  0  0  0  0
    0.1742   -0.1172    2.2654 H   0  0  0  0  0  0  0  0  0  0  0  0
   -0.1860   -0.1116    4.0245 H   0  0  0  0  0  0  0  0  0  0  0  0
   -1.2267   -1.5684    5.5532 H   0  0  0  0  0  0  0  0  0  0  0  0
   -2.0479   -1.3507    3.9886 H   0  0  0  0  0  0  0  0  0  0  0  0
   -2.8767   -0.8984    5.4603 H   0  0  0  0  0  0  0  0  0  0  0  0
   -1.8164    0.8504    6.8471 H   0  0  0  0  0  0  0  0  0  0  0  0
   -2.9535    2.3450    5.3424 H   0  0  0  0  0  0  0  0  0  0  0  0
   -2.3869    4.4118    5.9052 H   0  0  0  0  0  0  0  0  0  0  0  0
   -0.9710    3.0242    7.9245 H   0  0  0  0  0  0  0  0  0  0  0  0
    0.7184    5.6779    5.6550 H   0  0  0  0  0  0  0  0  0  0  0  0
    1.6516    3.8813    5.8594 H   0  0  0  0  0  0  0  0  0  0  0  0
    1.5506    2.5285    8.7049 H   0  0  0  0  0  0  0  0  0  0  0  0
    3.1507    2.8361    7.2514 H   0  0  0  0  0  0  0  0  0  0  0  0
    3.1787    1.1751    7.3155 H   0  0  0  0  0  0  0  0  0  0  0  0
    4.4140    3.2156    4.2910 H   0  0  0  0  0  0  0  0  0  0  0  0
    4.8626    1.1080    4.0736 H   0  0  0  0  0  0  0  0  0  0  0  0
    4.3809    0.1490    5.4393 H   0  0  0  0  0  0  0  0  0  0  0  0
    3.2781    0.2202    2.6377 H   0  0  0  0  0  0  0  0  0  0  0  0
    3.0210   -1.0318    3.8385 H   0  0  0  0  0  0  0  0  0  0  0  0
    0.7336   -0.8912    5.4593 H   0  0  0  0  0  0  0  0  0  0  0  0
    2.3560   -1.5177    6.0051 H   0  0  0  0  0  0  0  0  0  0  0  0
    1.6966    2.8398    2.0711 H   0  0  0  0  0  0  0  0  0  0  0  0
    3.3393    2.3438    2.4140 H   0  0  0  0  0  0  0  0  0  0  0  0
    2.7375    3.8824    3.0482 H   0  0  0  0  0  0  0  0  0  0  0  0
    0.2151    4.4013    2.4125 H   0  0  0  0  0  0  0  0  0  0  0  0
   -2.1969    0.9899    4.3884 H   0  0  0  0  0  0  0  0  0  0  0  0
  1  2  1  0
  1 33  1  0
  1 34  1  0
  1 35  1  0
  2  3  1  0
  4  3  1  6
  3 36  1  0
  3 37  1  0
  4 11  1  0
  4 31  1  0
  4  5  1  0
  5  6  1  0
  5 38  1  0
  5 39  1  0
  6 24  1  0
  6  7  1  0
  6 40  1  6
  7 30  1  0
  7  8  1  0
  7 41  1  1
  8  9  1  0
  8 10  1  0
  8 65  1  6
  9 42  1  0
  9 43  1  0
  9 44  1  0
 10 27  1  0
 10 11  1  0
 10 45  1  1
 11 12  1  0
 11 46  1  6
 12 13  1  0
 12 14  1  0
 12 47  1  6
 13 48  1  0
 14 31  1  0
 14 15  1  6
 14 16  1  0
 15 49  1  0
 16 30  1  0
 16 17  1  0
 16 50  1  6
 17 27  1  0
 17 18  1  1
 17 19  1  0
 18 51  1  0
 19 20  1  0
 19 52  1  0
 19 53  1  0
 20 28  1  0
 20 21  1  1
 20 22  1  0
 21 54  1  0
 22 23  1  0
 22 55  1  0
 22 56  1  0
 24 23  1  6
 23 57  1  0
 23 58  1  0
 24 25  1  0
 24 28  1  0
 25 26  1  0
 25 27  1  0
 25 59  1  6
 26 60  1  0
 28 29  1  6
 28 30  1  0
 29 61  1  0
 29 62  1  0
 29 63  1  0
 30 31  1  6
 31 32  1  6
 32 64  1  0
M  CHG  1   8   1
M  END
>  <i_m_ct_stereo_status>  (160) 
1

>  <s_m_source_file>  (160) 
/var/tmp/pbs.5076255.sched01/tmpx9mnojvb/44r91_cmns.sdf

>  <i_m_source_file_index>  (160) 
37

>  <i_lp_mmshare_version>  (160) 
48012

>  <i_f3d_flags>  (160) 
0

>  <s_epik_input>  (160) 
W0NAQF0xMjNbQ0BIXTRbQ0BIXTVbQ0BAXTY3W0NASF04W0NAQF05KFtPSF0pW0NAXTcoW09IXSlbQ0BdKFtDSDJdNCkoW0NIMl1PW0NIM10pW0NASF0oW0NASF05W09IXSlbQ0BASF0oTjVbQ0gzXSlOKFtDQEBIXTJbT0hdKVtDQEBdOChbT0hdKVtDSDJdW0NAQF0oW09IXSkoW0NIMl1bQ0gyXTEpW0NAQF0zNltDSDNd

>  <s_epik_cmdline>  (160) 
J2VwaWtfcHl0aG9uJywgJy1waHQnLCAnMi4wJywgJy1waCcsICc3LjAnLCAnLXRuJywgJzgnLCAnLW1hJywgJzIwMCcsICctaW1hZScsICc8aW5maWxlLm1hZT4nLCAnLW9tYWUnLCAnPG91dGZpbGUubWFlPic=

>  <r_epik_Ionization_Penalty>  (160) 
0.015658

>  <r_epik_Ionization_Penalty_Charging>  (160) 
0.0156573

>  <r_epik_Ionization_Penalty_Neutral>  (160) 
7.25071e-07

>  <r_epik_State_Penalty>  (160) 
0.0123163

>  <r_epik_Charging_Adjusted_Penalty>  (160) 
0.0279737

>  <i_epik_Tot_Q>  (160) 
1

>  <i_epik_Tot_abs_Q>  (160) 
1

>  <s_epik_Chemistry_Notes>  (160) 
This compound contains an acetal/aminal-like group ( X-CH(R)-Y where X, Y are N, S, or O) that may be acid/base labile, releasing an aldehyde.

>  <s_lp_Force_Field>  (160) 
OPLS3e

>  <r_lp_Energy>  (160) 
540.563

>  <b_lp_Chiralities_Consistent>  (160) 
1

>  <s_lp_Variant>  (160) 
46:0-1

>  <s_i_glide_gridfile>  (160) 
pfpi4k_grid

>  <i_i_glide_lignum>  (160) 
37

>  <i_i_glide_rotatable_bonds>  (160) 
8

>  <r_i_docking_score>  (160) 
-3.10317

>  <r_i_glide_ligand_efficiency>  (160) 
-0.0969741

>  <r_i_glide_ligand_efficiency_sa>  (160) 
-0.307874

>  <r_i_glide_ligand_efficiency_ln>  (160) 
-0.694885

>  <r_i_glide_gscore>  (160) 
-3.10317

>  <r_i_glide_lipo>  (160) 
-0.331918

>  <r_i_glide_hbond>  (160) 
0

>  <r_i_glide_metal>  (160) 
-0

>  <r_i_glide_rewards>  (160) 
-0.8442

>  <r_i_glide_evdw>  (160) 
-17.1613

>  <r_i_glide_ecoul>  (160) 
-7.35034

>  <r_i_glide_erotb>  (160) 
0.0991832

>  <r_i_glide_esite>  (160) 
-0.0656231

>  <r_i_glide_emodel>  (160) 
-35.2504

>  <r_i_glide_energy>  (160) 
-24.5116

>  <r_i_glide_einternal>  (160) 
2.01098

>  <r_i_glide_intrahb_reward>  (160) 
-0.5

>  <i_i_glide_confnum>  (160) 
1

>  <i_i_glide_posenum>  (160) 
38

>  <r_i_glide_eff_state_penalty>  (160) 
0

>  <ligand_id>  (160) 
46

>  <original_smiles>  (160) 
COCC12CC3C4N(C)C5C1C(O)C1(O)C6C7(O)CC8(O)CCC3(C(O)N57)C8(C)C46C21O

>  <smiles>  (160) 
[H]OC1([H])N2C3(O[H])C([H])([H])C4(O[H])C([H])([H])C([H])([H])C15C1([H])C([H])([H])C6(C([H])([H])OC([H])([H])[H])C7([H])C([H])(O[H])C8(O[H])C3([H])C(C86O[H])(C45C([H])([H])[H])C1([H])[N+]([H])(C([H])([H])[H])C27[H]

$$$$
46:0:2
     RDKit          3D

 65 73  0  0  1  0  0  0  0  0999 V2000
    5.3491   -2.0547    3.1056 C   0  0  0  0  0  0  0  0  0  0  0  0
    4.2760   -1.1438    3.2714 O   0  0  0  0  0  0  0  0  0  0  0  0
    4.6050    0.0057    4.0383 C   0  0  0  0  0  0  0  0  0  0  0  0
    3.3909    0.9404    4.1486 C   0  0  2  0  0  0  0  0  0  0  0  0
    2.6216    1.0858    2.6239 C   0  0  0  0  0  0  0  0  0  0  0  0
    1.2568    2.0105    2.3510 C   0  0  2  0  0  0  0  0  0  0  0  0
    1.8621    2.6083    3.3864 C   0  0  2  0  0  0  0  0  0  0  0  0
    2.9421    3.6050    3.6041 N   0  0  1  0  0  0  0  0  0  0  0  0
    3.1261    4.9190    2.8830 C   0  0  0  0  0  0  0  0  0  0  0  0
    2.8269    3.6717    5.0249 C   0  0  2  0  0  0  0  0  0  0  0  0
    3.7644    2.3016    5.0951 C   0  0  1  0  0  0  0  0  0  0  0  0
    3.8045    1.7804    6.5052 C   0  0  1  0  0  0  0  0  0  0  0  0
    3.9097    2.7917    7.4799 O   0  0  0  0  0  0  0  0  0  0  0  0
    2.5203    1.0267    6.4707 C   0  0  1  0  0  0  0  0  0  0  0  0
    2.5502    0.0582    7.4882 O   0  0  0  0  0  0  0  0  0  0  0  0
    1.2084    1.7226    6.2097 C   0  0  1  0  0  0  0  0  0  0  0  0
    0.7144    3.0893    6.4960 C   0  0  2  0  0  0  0  0  0  0  0  0
    1.0743    3.5977    7.7527 O   0  0  0  0  0  0  0  0  0  0  0  0
   -0.8574    2.8356    6.4446 C   0  0  0  0  0  0  0  0  0  0  0  0
   -1.3279    1.8804    5.2517 C   0  0  1  0  0  0  0  0  0  0  0  0
   -1.9667    0.7789    5.8884 O   0  0  0  0  0  0  0  0  0  0  0  0
   -2.3021    2.4832    4.1867 C   0  0  0  0  0  0  0  0  0  0  0  0
   -1.4926    2.6847    2.8750 C   0  0  0  0  0  0  0  0  0  0  0  0
   -0.0626    2.5534    3.3719 C   0  0  2  0  0  0  0  0  0  0  0  0
    0.2387    4.0126    4.3209 C   0  0  1  0  0  0  0  0  0  0  0  0
   -0.7537    4.9451    4.6455 O   0  0  0  0  0  0  0  0  0  0  0  0
    1.2911    3.9588    5.4411 N   0  0  0  0  0  0  0  0  0  0  0  0
   -0.1908    1.3877    4.2978 C   0  0  2  0  0  0  0  0  0  0  0  0
   -0.5451    0.0118    3.6693 C   0  0  0  0  0  0  0  0  0  0  0  0
    1.2351    1.5490    4.6919 C   0  0  1  0  0  0  0  0  0  0  0  0
    2.2809    0.4995    5.0334 C   0  0  1  0  0  0  0  0  0  0  0  0
    1.9353   -0.8561    4.8892 O   0  0  0  0  0  0  0  0  0  0  0  0
    4.9912   -2.9162    2.5449 H   0  0  0  0  0  0  0  0  0  0  0  0
    5.7206   -2.4217    4.0618 H   0  0  0  0  0  0  0  0  0  0  0  0
    6.1783   -1.6187    2.5476 H   0  0  0  0  0  0  0  0  0  0  0  0
    4.9816   -0.3095    5.0162 H   0  0  0  0  0  0  0  0  0  0  0  0
    5.4137    0.5478    3.5429 H   0  0  0  0  0  0  0  0  0  0  0  0
    3.3938    1.3880    1.9124 H   0  0  0  0  0  0  0  0  0  0  0  0
    2.3390    0.0844    2.2988 H   0  0  0  0  0  0  0  0  0  0  0  0
    1.2733    2.4071    1.3144 H   0  0  0  0  0  0  0  0  0  0  0  0
    1.6091    3.4422    2.7403 H   0  0  0  0  0  0  0  0  0  0  0  0
    2.3460    5.6485    3.0719 H   0  0  0  0  0  0  0  0  0  0  0  0
    3.1931    4.6853    1.8288 H   0  0  0  0  0  0  0  0  0  0  0  0
    4.0735    5.3421    3.2061 H   0  0  0  0  0  0  0  0  0  0  0  0
    3.4062    4.4979    5.4307 H   0  0  0  0  0  0  0  0  0  0  0  0
    4.7869    2.6111    4.8932 H   0  0  0  0  0  0  0  0  0  0  0  0
    4.6458    1.1013    6.6538 H   0  0  0  0  0  0  0  0  0  0  0  0
    3.1411    3.3403    7.4199 H   0  0  0  0  0  0  0  0  0  0  0  0
    2.6336    0.5369    8.2978 H   0  0  0  0  0  0  0  0  0  0  0  0
    0.5440    0.9572    6.6209 H   0  0  0  0  0  0  0  0  0  0  0  0
    1.6937    4.3096    7.6311 H   0  0  0  0  0  0  0  0  0  0  0  0
   -1.1405    2.3527    7.3779 H   0  0  0  0  0  0  0  0  0  0  0  0
   -1.4447    3.7455    6.5180 H   0  0  0  0  0  0  0  0  0  0  0  0
   -2.5431    0.3889    5.2433 H   0  0  0  0  0  0  0  0  0  0  0  0
   -3.0580    1.7544    3.9389 H   0  0  0  0  0  0  0  0  0  0  0  0
   -2.8214    3.3795    4.5279 H   0  0  0  0  0  0  0  0  0  0  0  0
   -1.7340    1.9111    2.1450 H   0  0  0  0  0  0  0  0  0  0  0  0
   -1.6922    3.6461    2.4077 H   0  0  0  0  0  0  0  0  0  0  0  0
    0.5794    4.7440    3.5973 H   0  0  0  0  0  0  0  0  0  0  0  0
   -0.8492    5.4461    3.8567 H   0  0  0  0  0  0  0  0  0  0  0  0
    0.1465   -0.2979    2.8830 H   0  0  0  0  0  0  0  0  0  0  0  0
   -1.5554    0.0029    3.2573 H   0  0  0  0  0  0  0  0  0  0  0  0
   -0.5392   -0.7693    4.4372 H   0  0  0  0  0  0  0  0  0  0  0  0
    2.1943   -1.0744    4.0110 H   0  0  0  0  0  0  0  0  0  0  0  0
    3.7841    3.0810    3.4129 H   0  0  0  0  0  0  0  0  0  0  0  0
  1  2  1  0
  1 33  1  0
  1 34  1  0
  1 35  1  0
  2  3  1  0
  4  3  1  6
  3 36  1  0
  3 37  1  0
  4 11  1  0
  4 31  1  0
  4  5  1  0
  5  6  1  0
  5 38  1  0
  5 39  1  0
  6 24  1  0
  6  7  1  0
  6 40  1  6
  7 30  1  0
  7  8  1  0
  7 41  1  1
  8  9  1  0
  8 10  1  0
  8 65  1  1
  9 42  1  0
  9 43  1  0
  9 44  1  0
 10 27  1  0
 10 11  1  0
 10 45  1  1
 11 12  1  0
 11 46  1  6
 12 13  1  0
 12 14  1  0
 12 47  1  6
 13 48  1  0
 14 31  1  0
 14 15  1  1
 14 16  1  0
 15 49  1  0
 16 30  1  0
 16 17  1  0
 16 50  1  1
 17 27  1  0
 17 18  1  1
 17 19  1  0
 18 51  1  0
 19 20  1  0
 19 52  1  0
 19 53  1  0
 20 28  1  0
 20 21  1  1
 20 22  1  0
 21 54  1  0
 22 23  1  0
 22 55  1  0
 22 56  1  0
 24 23  1  6
 23 57  1  0
 23 58  1  0
 24 25  1  0
 24 28  1  0
 25 26  1  0
 25 27  1  0
 25 59  1  6
 26 60  1  0
 28 29  1  6
 28 30  1  0
 29 61  1  0
 29 62  1  0
 29 63  1  0
 30 31  1  1
 31 32  1  1
 32 64  1  0
M  CHG  1   8   1
M  END
>  <i_m_ct_stereo_status>  (161) 
1

>  <s_m_source_file>  (161) 
/var/tmp/pbs.5076255.sched01/tmpx9mnojvb/44r91_cmns.sdf

>  <i_m_source_file_index>  (161) 
37

>  <i_lp_mmshare_version>  (161) 
48012

>  <i_f3d_flags>  (161) 
0

>  <s_epik_input>  (161) 
W0NAQF0xMjNbQ0BIXTRbQ0BIXTVbQ0BAXTY3W0NASF04W0NAQF05KFtPSF0pW0NAXTcoW09IXSlbQ0BdKFtDSDJdNCkoW0NIMl1PW0NIM10pW0NASF0oW0NASF05W09IXSlbQ0BASF0oTjVbQ0gzXSlOKFtDQEBIXTJbT0hdKVtDQEBdOChbT0hdKVtDSDJdW0NAQF0oW09IXSkoW0NIMl1bQ0gyXTEpW0NAQF0zNltDSDNd

>  <s_epik_cmdline>  (161) 
J2VwaWtfcHl0aG9uJywgJy1waHQnLCAnMi4wJywgJy1waCcsICc3LjAnLCAnLXRuJywgJzgnLCAnLW1hJywgJzIwMCcsICctaW1hZScsICc8aW5maWxlLm1hZT4nLCAnLW9tYWUnLCAnPG91dGZpbGUubWFlPic=

>  <r_epik_Ionization_Penalty>  (161) 
0.015658

>  <r_epik_Ionization_Penalty_Charging>  (161) 
0.0156573

>  <r_epik_Ionization_Penalty_Neutral>  (161) 
7.25071e-07

>  <r_epik_State_Penalty>  (161) 
0.0123163

>  <r_epik_Charging_Adjusted_Penalty>  (161) 
0.0279737

>  <i_epik_Tot_Q>  (161) 
1

>  <i_epik_Tot_abs_Q>  (161) 
1

>  <s_epik_Chemistry_Notes>  (161) 
This compound contains an acetal/aminal-like group ( X-CH(R)-Y where X, Y are N, S, or O) that may be acid/base labile, releasing an aldehyde.

>  <s_lp_Force_Field>  (161) 
OPLS3e

>  <r_lp_Energy>  (161) 
540.563

>  <b_lp_Chiralities_Consistent>  (161) 
1

>  <s_lp_Variant>  (161) 
46:0-1

>  <s_i_glide_gridfile>  (161) 
pfpi4k_grid

>  <i_i_glide_lignum>  (161) 
37

>  <i_i_glide_rotatable_bonds>  (161) 
8

>  <r_i_docking_score>  (161) 
-2.98771

>  <r_i_glide_ligand_efficiency>  (161) 
-0.0933661

>  <r_i_glide_ligand_efficiency_sa>  (161) 
-0.296419

>  <r_i_glide_ligand_efficiency_ln>  (161) 
-0.669031

>  <r_i_glide_gscore>  (161) 
-2.98771

>  <r_i_glide_lipo>  (161) 
-0.258249

>  <r_i_glide_hbond>  (161) 
-0.0230914

>  <r_i_glide_metal>  (161) 
-0

>  <r_i_glide_rewards>  (161) 
-0.8442

>  <r_i_glide_evdw>  (161) 
-17.666

>  <r_i_glide_ecoul>  (161) 
-6.71728

>  <r_i_glide_erotb>  (161) 
0.0991832

>  <r_i_glide_esite>  (161) 
-0.0704634

>  <r_i_glide_emodel>  (161) 
-33.7655

>  <r_i_glide_energy>  (161) 
-24.3833

>  <r_i_glide_einternal>  (161) 
4.69542

>  <r_i_glide_intrahb_reward>  (161) 
-0.5

>  <i_i_glide_confnum>  (161) 
3

>  <i_i_glide_posenum>  (161) 
33

>  <r_i_glide_eff_state_penalty>  (161) 
0

>  <ligand_id>  (161) 
46

>  <original_smiles>  (161) 
COCC12CC3C4N(C)C5C1C(O)C1(O)C6C7(O)CC8(O)CCC3(C(O)N57)C8(C)C46C21O

>  <smiles>  (161) 
[H]OC1([H])N2C3(O[H])C([H])([H])C4(O[H])C([H])([H])C([H])([H])C15C1([H])C([H])([H])C6(C([H])([H])OC([H])([H])[H])C7([H])C([H])(O[H])C8(O[H])C3([H])C(C86O[H])(C45C([H])([H])[H])C1([H])[N+]([H])(C([H])([H])[H])C27[H]

$$$$
46:1:0
     RDKit          3D

 64 72  0  0  1  0  0  0  0  0999 V2000
   -4.2379    3.5565    2.3755 C   0  0  0  0  0  0  0  0  0  0  0  0
   -3.2096    3.3335    3.3347 O   0  0  0  0  0  0  0  0  0  0  0  0
   -1.9465    3.0558    2.7471 C   0  0  0  0  0  0  0  0  0  0  0  0
   -0.9000    2.6878    3.8178 C   0  0  2  0  0  0  0  0  0  0  0  0
   -1.1332    1.0748    4.3414 C   0  0  0  0  0  0  0  0  0  0  0  0
   -0.2155    0.3370    5.5443 C   0  0  2  0  0  0  0  0  0  0  0  0
   -0.1743    1.6690    5.7751 C   0  0  2  0  0  0  0  0  0  0  0  0
   -0.7699    2.5663    6.7627 N   0  0  0  0  0  0  0  0  0  0  0  0
   -2.2358    2.6668    6.8692 C   0  0  0  0  0  0  0  0  0  0  0  0
    0.0488    3.6759    6.4250 C   0  0  2  0  0  0  0  0  0  0  0  0
   -0.6771    3.9551    4.9231 C   0  0  1  0  0  0  0  0  0  0  0  0
    0.1452    4.9580    4.1465 C   0  0  1  0  0  0  0  0  0  0  0  0
    0.6020    6.0659    4.8876 O   0  0  0  0  0  0  0  0  0  0  0  0
    1.1899    4.0420    3.6256 C   0  0  1  0  0  0  0  0  0  0  0  0
    1.8202    4.6411    2.5379 O   0  0  0  0  0  0  0  0  0  0  0  0
    2.0689    3.2452    4.5521 C   0  0  1  0  0  0  0  0  0  0  0  0
    2.6094    3.4993    5.8945 C   0  0  2  0  0  0  0  0  0  0  0  0
    2.9923    4.8319    6.0777 O   0  0  0  0  0  0  0  0  0  0  0  0
    3.8576    2.5264    5.9484 C   0  0  0  0  0  0  0  0  0  0  0  0
    3.5674    1.0830    5.3252 C   0  0  1  0  0  0  0  0  0  0  0  0
    4.5181    0.8932    4.2854 O   0  0  0  0  0  0  0  0  0  0  0  0
    3.7058   -0.1669    6.2517 C   0  0  0  0  0  0  0  0  0  0  0  0
    2.2581   -0.6648    6.5631 C   0  0  0  0  0  0  0  0  0  0  0  0
    1.4019    0.5143    6.1069 C   0  0  2  0  0  0  0  0  0  0  0  0
    1.6717    1.7493    7.3100 C   0  0  1  0  0  0  0  0  0  0  0  0
    2.6706    1.6791    8.3037 O   0  0  0  0  0  0  0  0  0  0  0  0
    1.5119    3.2190    6.8589 N   0  0  0  0  0  0  0  0  0  0  0  0
    2.0853    0.8758    4.8240 C   0  0  2  0  0  0  0  0  0  0  0  0
    2.0263   -0.1691    3.6646 C   0  0  0  0  0  0  0  0  0  0  0  0
    1.1541    2.0428    4.6550 C   0  0  1  0  0  0  0  0  0  0  0  0
    0.5306    2.6596    3.3883 C   0  0  1  0  0  0  0  0  0  0  0  0
    0.7565    2.0488    2.1397 O   0  0  0  0  0  0  0  0  0  0  0  0
   -5.1809    3.7519    2.8802 H   0  0  0  0  0  0  0  0  0  0  0  0
   -4.3885    2.6923    1.7274 H   0  0  0  0  0  0  0  0  0  0  0  0
   -4.0371    4.4267    1.7533 H   0  0  0  0  0  0  0  0  0  0  0  0
   -2.0541    2.2036    2.0824 H   0  0  0  0  0  0  0  0  0  0  0  0
   -1.6512    3.9194    2.1538 H   0  0  0  0  0  0  0  0  0  0  0  0
   -2.1797    0.9910    4.6317 H   0  0  0  0  0  0  0  0  0  0  0  0
   -1.0832    0.4435    3.4593 H   0  0  0  0  0  0  0  0  0  0  0  0
   -0.8370   -0.3224    6.1585 H   0  0  0  0  0  0  0  0  0  0  0  0
   -0.3310    1.2600    6.7706 H   0  0  0  0  0  0  0  0  0  0  0  0
   -2.5223    3.4501    7.5697 H   0  0  0  0  0  0  0  0  0  0  0  0
   -2.6422    1.7332    7.2565 H   0  0  0  0  0  0  0  0  0  0  0  0
   -2.7531    2.8522    5.9295 H   0  0  0  0  0  0  0  0  0  0  0  0
   -0.2083    4.5058    7.0805 H   0  0  0  0  0  0  0  0  0  0  0  0
   -1.6319    4.4446    5.1063 H   0  0  0  0  0  0  0  0  0  0  0  0
   -0.4386    5.3746    3.3212 H   0  0  0  0  0  0  0  0  0  0  0  0
    1.1206    6.5970    4.2975 H   0  0  0  0  0  0  0  0  0  0  0  0
    1.1938    4.5617    1.7958 H   0  0  0  0  0  0  0  0  0  0  0  0
    2.8799    3.0272    3.8522 H   0  0  0  0  0  0  0  0  0  0  0  0
    3.1743    5.1761    5.2176 H   0  0  0  0  0  0  0  0  0  0  0  0
    4.6420    2.9972    5.3606 H   0  0  0  0  0  0  0  0  0  0  0  0
    4.3451    2.4951    6.9200 H   0  0  0  0  0  0  0  0  0  0  0  0
    4.4664    1.6140    3.6738 H   0  0  0  0  0  0  0  0  0  0  0  0
    4.2385   -0.9703    5.7392 H   0  0  0  0  0  0  0  0  0  0  0  0
    4.2918    0.0486    7.1452 H   0  0  0  0  0  0  0  0  0  0  0  0
    2.0251   -1.5649    5.9957 H   0  0  0  0  0  0  0  0  0  0  0  0
    2.1311   -0.9025    7.6187 H   0  0  0  0  0  0  0  0  0  0  0  0
    0.9302    1.5987    8.0949 H   0  0  0  0  0  0  0  0  0  0  0  0
    2.3780    1.0895    8.9758 H   0  0  0  0  0  0  0  0  0  0  0  0
    1.0144   -0.4586    3.3865 H   0  0  0  0  0  0  0  0  0  0  0  0
    2.5768   -1.0841    3.8908 H   0  0  0  0  0  0  0  0  0  0  0  0
    2.4961    0.2322    2.7629 H   0  0  0  0  0  0  0  0  0  0  0  0
    0.4811    2.6792    1.4824 H   0  0  0  0  0  0  0  0  0  0  0  0
  1  2  1  0
  1 33  1  0
  1 34  1  0
  1 35  1  0
  2  3  1  0
  4  3  1  6
  3 36  1  0
  3 37  1  0
  4 11  1  0
  4 31  1  0
  4  5  1  0
  5  6  1  0
  5 38  1  0
  5 39  1  0
  6 24  1  0
  6  7  1  0
  6 40  1  1
  7 30  1  0
  7  8  1  0
  7 41  1  6
  8  9  1  0
  8 10  1  0
  9 42  1  0
  9 43  1  0
  9 44  1  0
 10 27  1  0
 10 11  1  0
 10 45  1  1
 11 12  1  0
 11 46  1  1
 12 13  1  0
 12 14  1  0
 12 47  1  6
 13 48  1  0
 14 31  1  0
 14 15  1  6
 14 16  1  0
 15 49  1  0
 16 30  1  0
 16 17  1  0
 16 50  1  6
 17 27  1  0
 17 18  1  6
 17 19  1  0
 18 51  1  0
 19 20  1  0
 19 52  1  0
 19 53  1  0
 20 28  1  0
 20 21  1  6
 20 22  1  0
 21 54  1  0
 22 23  1  0
 22 55  1  0
 22 56  1  0
 24 23  1  1
 23 57  1  0
 23 58  1  0
 24 25  1  0
 24 28  1  0
 25 26  1  0
 25 27  1  0
 25 59  1  1
 26 60  1  0
 28 29  1  6
 28 30  1  0
 29 61  1  0
 29 62  1  0
 29 63  1  0
 30 31  1  6
 31 32  1  6
 32 64  1  0
M  END
>  <i_m_ct_stereo_status>  (162) 
1

>  <s_m_source_file>  (162) 
/var/tmp/pbs.5076255.sched01/tmpx9mnojvb/44r91_cmns.sdf

>  <i_m_source_file_index>  (162) 
38

>  <i_lp_mmshare_version>  (162) 
48012

>  <i_f3d_flags>  (162) 
0

>  <s_epik_input>  (162) 
W0NAQF0xMjNbQ0BIXTRbQ0BIXTVbQ0BAXTY3W0NASF04W0NAQF05KFtPSF0pW0NAXTcoW09IXSlbQ0BdKFtDSDJdNCkoW0NIMl1PW0NIM10pW0NASF0oW0NASF05W09IXSlbQ0BASF0oTjVbQ0gzXSlOKFtDQEBIXTJbT0hdKVtDQEBdOChbT0hdKVtDSDJdW0NAQF0oW09IXSkoW0NIMl1bQ0gyXTEpW0NAQF0zNltDSDNd

>  <s_epik_cmdline>  (162) 
J2VwaWtfcHl0aG9uJywgJy1waHQnLCAnMi4wJywgJy1waCcsICc3LjAnLCAnLXRuJywgJzgnLCAnLW1hJywgJzIwMCcsICctaW1hZScsICc8aW5maWxlLm1hZT4nLCAnLW9tYWUnLCAnPG91dGZpbGUubWFlPic=

>  <r_epik_Ionization_Penalty>  (162) 
2.33715

>  <r_epik_Ionization_Penalty_Charging>  (162) 
0

>  <r_epik_Ionization_Penalty_Neutral>  (162) 
2.33715

>  <r_epik_State_Penalty>  (162) 
2.30108

>  <r_epik_Charging_Adjusted_Penalty>  (162) 
2.30108

>  <i_epik_Tot_Q>  (162) 
0

>  <i_epik_Tot_abs_Q>  (162) 
0

>  <s_epik_Chemistry_Notes>  (162) 
This compound contains an acetal/aminal-like group ( X-CH(R)-Y where X, Y are N, S, or O) that may be acid/base labile, releasing an aldehyde.

>  <s_lp_Force_Field>  (162) 
OPLS3e

>  <r_lp_Energy>  (162) 
523.515

>  <b_lp_Chiralities_Consistent>  (162) 
1

>  <s_lp_Variant>  (162) 
46:0-2

>  <s_i_glide_gridfile>  (162) 
pfpi4k_grid

>  <i_i_glide_lignum>  (162) 
38

>  <i_i_glide_rotatable_bonds>  (162) 
8

>  <r_i_docking_score>  (162) 
-3.35268

>  <r_i_glide_ligand_efficiency>  (162) 
-0.104771

>  <r_i_glide_ligand_efficiency_sa>  (162) 
-0.332628

>  <r_i_glide_ligand_efficiency_ln>  (162) 
-0.750756

>  <r_i_glide_gscore>  (162) 
-3.35268

>  <r_i_glide_lipo>  (162) 
-0.413795

>  <r_i_glide_hbond>  (162) 
-0.165682

>  <r_i_glide_metal>  (162) 
-0

>  <r_i_glide_rewards>  (162) 
-0.351072

>  <r_i_glide_evdw>  (162) 
-17.8501

>  <r_i_glide_ecoul>  (162) 
-10.8612

>  <r_i_glide_erotb>  (162) 
0.0995888

>  <r_i_glide_esite>  (162) 
-3.14105e-05

>  <r_i_glide_emodel>  (162) 
-34.5397

>  <r_i_glide_energy>  (162) 
-28.7113

>  <r_i_glide_einternal>  (162) 
2.88325

>  <r_i_glide_intrahb_reward>  (162) 
-0

>  <i_i_glide_confnum>  (162) 
4

>  <i_i_glide_posenum>  (162) 
1

>  <r_i_glide_eff_state_penalty>  (162) 
0

>  <ligand_id>  (162) 
46

>  <original_smiles>  (162) 
COCC12CC3C4N(C)C5C1C(O)C1(O)C6C7(O)CC8(O)CCC3(C(O)N57)C8(C)C46C21O

>  <smiles>  (162) 
[H]OC1([H])N2C3([H])N(C([H])([H])[H])C4([H])C5([H])C([H])([H])C6(C([H])([H])OC([H])([H])[H])C3([H])C([H])(O[H])C3(O[H])C7([H])C2(O[H])C([H])([H])C2(O[H])C([H])([H])C([H])([H])C15C2(C([H])([H])[H])C47C36O[H]

$$$$
46:1:1
     RDKit          3D

 64 72  0  0  1  0  0  0  0  0999 V2000
   -4.1601    3.5500    2.1593 C   0  0  0  0  0  0  0  0  0  0  0  0
   -3.2360    3.2791    3.2099 O   0  0  0  0  0  0  0  0  0  0  0  0
   -1.9051    3.0979    2.7442 C   0  0  0  0  0  0  0  0  0  0  0  0
   -0.9270    2.9723    3.9338 C   0  0  2  0  0  0  0  0  0  0  0  0
   -1.1401    1.4635    4.7248 C   0  0  0  0  0  0  0  0  0  0  0  0
   -0.2876    0.9961    6.1016 C   0  0  2  0  0  0  0  0  0  0  0  0
   -0.3212    2.3418    6.0977 C   0  0  2  0  0  0  0  0  0  0  0  0
   -1.0181    3.3726    6.8642 N   0  0  0  0  0  0  0  0  0  0  0  0
   -2.4917    3.4132    6.8550 C   0  0  0  0  0  0  0  0  0  0  0  0
   -0.2192    4.4439    6.3908 C   0  0  2  0  0  0  0  0  0  0  0  0
   -0.8270    4.4218    4.8177 C   0  0  1  0  0  0  0  0  0  0  0  0
    0.0101    5.3205    3.9283 C   0  0  1  0  0  0  0  0  0  0  0  0
    0.3376    6.5684    4.5044 O   0  0  0  0  0  0  0  0  0  0  0  0
    1.1196    4.3668    3.6573 C   0  0  1  0  0  0  0  0  0  0  0  0
    1.8131    4.7715    2.4926 O   0  0  0  0  0  0  0  0  0  0  0  0
    1.9590    3.7940    4.7695 C   0  0  1  0  0  0  0  0  0  0  0  0
    2.3776    4.3077    6.0923 C   0  0  2  0  0  0  0  0  0  0  0  0
    2.6933    5.6713    6.0548 O   0  0  0  0  0  0  0  0  0  0  0  0
    3.6539    3.4160    6.3942 C   0  0  0  0  0  0  0  0  0  0  0  0
    3.4624    1.8740    6.0144 C   0  0  1  0  0  0  0  0  0  0  0  0
    4.5009    1.5516    5.0989 O   0  0  0  0  0  0  0  0  0  0  0  0
    3.5764    0.8071    7.1582 C   0  0  0  0  0  0  0  0  0  0  0  0
    2.1309    0.3047    7.4544 C   0  0  0  0  0  0  0  0  0  0  0  0
    1.2690    1.3461    6.7369 C   0  0  2  0  0  0  0  0  0  0  0  0
    1.4054    2.7838    7.7245 C   0  0  1  0  0  0  0  0  0  0  0  0
    2.3313    2.9223    8.7771 O   0  0  0  0  0  0  0  0  0  0  0  0
    1.2214    4.1400    7.0074 N   0  0  0  0  0  0  0  0  0  0  0  0
    2.0357    1.5090    5.4561 C   0  0  2  0  0  0  0  0  0  0  0  0
    2.0996    0.2754    4.5019 C   0  0  0  0  0  0  0  0  0  0  0  0
    1.0819    2.5869    5.0198 C   0  0  1  0  0  0  0  0  0  0  0  0
    0.5334    2.9294    3.6196 C   0  0  1  0  0  0  0  0  0  0  0  0
    0.8707    2.1127    2.5274 O   0  0  0  0  0  0  0  0  0  0  0  0
   -5.1684    3.6439    2.5557 H   0  0  0  0  0  0  0  0  0  0  0  0
   -4.1722    2.7707    1.3957 H   0  0  0  0  0  0  0  0  0  0  0  0
   -3.9366    4.5011    1.6804 H   0  0  0  0  0  0  0  0  0  0  0  0
   -1.8549    2.2091    2.1116 H   0  0  0  0  0  0  0  0  0  0  0  0
   -1.6534    3.9476    2.1144 H   0  0  0  0  0  0  0  0  0  0  0  0
   -2.1981    1.3853    4.9596 H   0  0  0  0  0  0  0  0  0  0  0  0
   -1.0043    0.6887    3.9744 H   0  0  0  0  0  0  0  0  0  0  0  0
   -0.9411    0.4244    6.7842 H   0  0  0  0  0  0  0  0  0  0  0  0
   -0.5442    2.1128    7.1400 H   0  0  0  0  0  0  0  0  0  0  0  0
   -2.8555    4.2843    7.3953 H   0  0  0  0  0  0  0  0  0  0  0  0
   -2.8876    2.5398    7.3718 H   0  0  0  0  0  0  0  0  0  0  0  0
   -2.9403    3.4114    5.8658 H   0  0  0  0  0  0  0  0  0  0  0  0
   -0.5451    5.3608    6.8737 H   0  0  0  0  0  0  0  0  0  0  0  0
   -1.8101    4.8781    4.8443 H   0  0  0  0  0  0  0  0  0  0  0  0
   -0.5248    5.5587    3.0116 H   0  0  0  0  0  0  0  0  0  0  0  0
    0.6376    7.1360    3.8001 H   0  0  0  0  0  0  0  0  0  0  0  0
    1.1892    4.6099    1.7600 H   0  0  0  0  0  0  0  0  0  0  0  0
    2.8316    3.4955    4.1786 H   0  0  0  0  0  0  0  0  0  0  0  0
    2.8219    5.8946    5.1484 H   0  0  0  0  0  0  0  0  0  0  0  0
    4.4700    3.8153    5.7881 H   0  0  0  0  0  0  0  0  0  0  0  0
    4.0674    3.5763    7.3873 H   0  0  0  0  0  0  0  0  0  0  0  0
    4.4322    2.1228    4.3461 H   0  0  0  0  0  0  0  0  0  0  0  0
    4.1723   -0.0439    6.8329 H   0  0  0  0  0  0  0  0  0  0  0  0
    4.0845    1.2035    8.0383 H   0  0  0  0  0  0  0  0  0  0  0  0
    1.9675   -0.6939    7.0377 H   0  0  0  0  0  0  0  0  0  0  0  0
    1.9259    0.2480    8.5216 H   0  0  0  0  0  0  0  0  0  0  0  0
    0.6085    2.7324    8.4630 H   0  0  0  0  0  0  0  0  0  0  0  0
    2.0237    2.4087    9.5033 H   0  0  0  0  0  0  0  0  0  0  0  0
    1.1241   -0.1030    4.2132 H   0  0  0  0  0  0  0  0  0  0  0  0
    2.6628   -0.5568    4.9260 H   0  0  0  0  0  0  0  0  0  0  0  0
    2.6238    0.5378    3.5801 H   0  0  0  0  0  0  0  0  0  0  0  0
    0.5745    2.5666    1.7507 H   0  0  0  0  0  0  0  0  0  0  0  0
  1  2  1  0
  1 33  1  0
  1 34  1  0
  1 35  1  0
  2  3  1  0
  4  3  1  6
  3 36  1  0
  3 37  1  0
  4 11  1  0
  4 31  1  0
  4  5  1  0
  5  6  1  0
  5 38  1  0
  5 39  1  0
  6 24  1  0
  6  7  1  0
  6 40  1  1
  7 30  1  0
  7  8  1  0
  7 41  1  6
  8  9  1  0
  8 10  1  0
  9 42  1  0
  9 43  1  0
  9 44  1  0
 10 27  1  0
 10 11  1  0
 10 45  1  1
 11 12  1  0
 11 46  1  1
 12 13  1  0
 12 14  1  0
 12 47  1  6
 13 48  1  0
 14 31  1  0
 14 15  1  6
 14 16  1  0
 15 49  1  0
 16 30  1  0
 16 17  1  0
 16 50  1  6
 17 27  1  0
 17 18  1  6
 17 19  1  0
 18 51  1  0
 19 20  1  0
 19 52  1  0
 19 53  1  0
 20 28  1  0
 20 21  1  6
 20 22  1  0
 21 54  1  0
 22 23  1  0
 22 55  1  0
 22 56  1  0
 24 23  1  1
 23 57  1  0
 23 58  1  0
 24 25  1  0
 24 28  1  0
 25 26  1  0
 25 27  1  0
 25 59  1  1
 26 60  1  0
 28 29  1  6
 28 30  1  0
 29 61  1  0
 29 62  1  0
 29 63  1  0
 30 31  1  6
 31 32  1  6
 32 64  1  0
M  END
>  <i_m_ct_stereo_status>  (163) 
1

>  <s_m_source_file>  (163) 
/var/tmp/pbs.5076255.sched01/tmpx9mnojvb/44r91_cmns.sdf

>  <i_m_source_file_index>  (163) 
38

>  <i_lp_mmshare_version>  (163) 
48012

>  <i_f3d_flags>  (163) 
0

>  <s_epik_input>  (163) 
W0NAQF0xMjNbQ0BIXTRbQ0BIXTVbQ0BAXTY3W0NASF04W0NAQF05KFtPSF0pW0NAXTcoW09IXSlbQ0BdKFtDSDJdNCkoW0NIMl1PW0NIM10pW0NASF0oW0NASF05W09IXSlbQ0BASF0oTjVbQ0gzXSlOKFtDQEBIXTJbT0hdKVtDQEBdOChbT0hdKVtDSDJdW0NAQF0oW09IXSkoW0NIMl1bQ0gyXTEpW0NAQF0zNltDSDNd

>  <s_epik_cmdline>  (163) 
J2VwaWtfcHl0aG9uJywgJy1waHQnLCAnMi4wJywgJy1waCcsICc3LjAnLCAnLXRuJywgJzgnLCAnLW1hJywgJzIwMCcsICctaW1hZScsICc8aW5maWxlLm1hZT4nLCAnLW9tYWUnLCAnPG91dGZpbGUubWFlPic=

>  <r_epik_Ionization_Penalty>  (163) 
2.33715

>  <r_epik_Ionization_Penalty_Charging>  (163) 
0

>  <r_epik_Ionization_Penalty_Neutral>  (163) 
2.33715

>  <r_epik_State_Penalty>  (163) 
2.30108

>  <r_epik_Charging_Adjusted_Penalty>  (163) 
2.30108

>  <i_epik_Tot_Q>  (163) 
0

>  <i_epik_Tot_abs_Q>  (163) 
0

>  <s_epik_Chemistry_Notes>  (163) 
This compound contains an acetal/aminal-like group ( X-CH(R)-Y where X, Y are N, S, or O) that may be acid/base labile, releasing an aldehyde.

>  <s_lp_Force_Field>  (163) 
OPLS3e

>  <r_lp_Energy>  (163) 
523.515

>  <b_lp_Chiralities_Consistent>  (163) 
1

>  <s_lp_Variant>  (163) 
46:0-2

>  <s_i_glide_gridfile>  (163) 
pfpi4k_grid

>  <i_i_glide_lignum>  (163) 
38

>  <i_i_glide_rotatable_bonds>  (163) 
8

>  <r_i_docking_score>  (163) 
-3.14012

>  <r_i_glide_ligand_efficiency>  (163) 
-0.0981289

>  <r_i_glide_ligand_efficiency_sa>  (163) 
-0.31154

>  <r_i_glide_ligand_efficiency_ln>  (163) 
-0.703159

>  <r_i_glide_gscore>  (163) 
-3.14012

>  <r_i_glide_lipo>  (163) 
-0.36443

>  <r_i_glide_hbond>  (163) 
0

>  <r_i_glide_metal>  (163) 
-0

>  <r_i_glide_rewards>  (163) 
-0.351072

>  <r_i_glide_evdw>  (163) 
-17.7108

>  <r_i_glide_ecoul>  (163) 
-10.8968

>  <r_i_glide_erotb>  (163) 
0.0995888

>  <r_i_glide_esite>  (163) 
-0.00414091

>  <r_i_glide_emodel>  (163) 
-33.7477

>  <r_i_glide_energy>  (163) 
-28.6077

>  <r_i_glide_einternal>  (163) 
3.28391

>  <r_i_glide_intrahb_reward>  (163) 
-0

>  <i_i_glide_confnum>  (163) 
4

>  <i_i_glide_posenum>  (163) 
10

>  <r_i_glide_eff_state_penalty>  (163) 
0

>  <ligand_id>  (163) 
46

>  <original_smiles>  (163) 
COCC12CC3C4N(C)C5C1C(O)C1(O)C6C7(O)CC8(O)CCC3(C(O)N57)C8(C)C46C21O

>  <smiles>  (163) 
[H]OC1([H])N2C3([H])N(C([H])([H])[H])C4([H])C5([H])C([H])([H])C6(C([H])([H])OC([H])([H])[H])C3([H])C([H])(O[H])C3(O[H])C7([H])C2(O[H])C([H])([H])C2(O[H])C([H])([H])C([H])([H])C15C2(C([H])([H])[H])C47C36O[H]

$$$$
46:1:2
     RDKit          3D

 64 72  0  0  1  0  0  0  0  0999 V2000
    4.2263   -4.1214    5.7033 C   0  0  0  0  0  0  0  0  0  0  0  0
    3.6720   -2.8631    5.3424 O   0  0  0  0  0  0  0  0  0  0  0  0
    2.5516   -2.4921    6.1376 C   0  0  0  0  0  0  0  0  0  0  0  0
    1.9901   -1.1282    5.6536 C   0  0  2  0  0  0  0  0  0  0  0  0
    1.2112   -1.2920    4.1410 C   0  0  0  0  0  0  0  0  0  0  0  0
    0.5189   -0.0063    3.2922 C   0  0  2  0  0  0  0  0  0  0  0  0
    1.4891    0.5164    4.0831 C   0  0  2  0  0  0  0  0  0  0  0  0
    2.8266    1.0553    3.8542 N   0  0  0  0  0  0  0  0  0  0  0  0
    3.8712    0.2164    3.2539 C   0  0  0  0  0  0  0  0  0  0  0  0
    2.9555    1.6172    5.1502 C   0  0  2  0  0  0  0  0  0  0  0  0
    3.1012    0.1313    5.9493 C   0  0  1  0  0  0  0  0  0  0  0  0
    3.0007    0.3616    7.4439 C   0  0  1  0  0  0  0  0  0  0  0  0
    3.6687    1.5149    7.9162 O   0  0  0  0  0  0  0  0  0  0  0  0
    1.5142    0.3935    7.5605 C   0  0  1  0  0  0  0  0  0  0  0  0
    1.1393    0.1097    8.8939 O   0  0  0  0  0  0  0  0  0  0  0  0
    0.7244    1.4567    6.8373 C   0  0  1  0  0  0  0  0  0  0  0  0
    1.0270    2.8421    6.4263 C   0  0  2  0  0  0  0  0  0  0  0  0
    1.7938    3.5036    7.3936 O   0  0  0  0  0  0  0  0  0  0  0  0
   -0.4243    3.4527    6.2535 C   0  0  0  0  0  0  0  0  0  0  0  0
   -1.4548    2.4633    5.5256 C   0  0  1  0  0  0  0  0  0  0  0  0
   -2.5082    2.2837    6.4668 O   0  0  0  0  0  0  0  0  0  0  0  0
   -2.1032    2.9189    4.1709 C   0  0  0  0  0  0  0  0  0  0  0  0
   -1.4044    2.0974    3.0359 C   0  0  0  0  0  0  0  0  0  0  0  0
   -0.1982    1.4943    3.7541 C   0  0  2  0  0  0  0  0  0  0  0  0
    0.8827    2.8424    3.9763 C   0  0  1  0  0  0  0  0  0  0  0  0
    0.4986    4.1841    3.7286 O   0  0  0  0  0  0  0  0  0  0  0  0
    1.8564    2.7666    5.1911 N   0  0  0  0  0  0  0  0  0  0  0  0
   -0.8215    1.0923    5.0581 C   0  0  2  0  0  0  0  0  0  0  0  0
   -1.8785   -0.0544    5.0281 C   0  0  0  0  0  0  0  0  0  0  0  0
    0.5181    0.6514    5.5624 C   0  0  1  0  0  0  0  0  0  0  0  0
    0.9037   -0.5269    6.4803 C   0  0  1  0  0  0  0  0  0  0  0  0
   -0.0875   -1.4591    6.8736 O   0  0  0  0  0  0  0  0  0  0  0  0
    5.0666   -4.3546    5.0490 H   0  0  0  0  0  0  0  0  0  0  0  0
    3.4986   -4.9271    5.6036 H   0  0  0  0  0  0  0  0  0  0  0  0
    4.5986   -4.1170    6.7274 H   0  0  0  0  0  0  0  0  0  0  0  0
    1.7855   -3.2619    6.0403 H   0  0  0  0  0  0  0  0  0  0  0  0
    2.8430   -2.4637    7.1889 H   0  0  0  0  0  0  0  0  0  0  0  0
    1.9283   -1.7714    3.4688 H   0  0  0  0  0  0  0  0  0  0  0  0
    0.4426   -2.0529    4.2548 H   0  0  0  0  0  0  0  0  0  0  0  0
    0.6746   -0.1216    2.2159 H   0  0  0  0  0  0  0  0  0  0  0  0
    1.6588    1.0440    3.1364 H   0  0  0  0  0  0  0  0  0  0  0  0
    4.8311    0.7318    3.2744 H   0  0  0  0  0  0  0  0  0  0  0  0
    3.6158    0.0202    2.2120 H   0  0  0  0  0  0  0  0  0  0  0  0
    4.0010   -0.7523    3.7327 H   0  0  0  0  0  0  0  0  0  0  0  0
    3.9144    2.1313    5.2161 H   0  0  0  0  0  0  0  0  0  0  0  0
    4.1158   -0.2362    5.7797 H   0  0  0  0  0  0  0  0  0  0  0  0
    3.4135   -0.4939    7.9831 H   0  0  0  0  0  0  0  0  0  0  0  0
    3.2756    2.2836    7.5180 H   0  0  0  0  0  0  0  0  0  0  0  0
    1.4948    0.8000    9.4255 H   0  0  0  0  0  0  0  0  0  0  0  0
   -0.1893    1.4317    7.4430 H   0  0  0  0  0  0  0  0  0  0  0  0
    1.4712    3.2188    8.2384 H   0  0  0  0  0  0  0  0  0  0  0  0
   -0.8093    3.6502    7.2556 H   0  0  0  0  0  0  0  0  0  0  0  0
   -0.4414    4.4623    5.8494 H   0  0  0  0  0  0  0  0  0  0  0  0
   -3.2673    1.9709    6.0012 H   0  0  0  0  0  0  0  0  0  0  0  0
   -3.1723    2.6930    4.1354 H   0  0  0  0  0  0  0  0  0  0  0  0
   -2.0235    3.9956    4.0181 H   0  0  0  0  0  0  0  0  0  0  0  0
   -2.0633    1.3265    2.6483 H   0  0  0  0  0  0  0  0  0  0  0  0
   -1.1193    2.7157    2.1860 H   0  0  0  0  0  0  0  0  0  0  0  0
    1.5208    2.8963    3.0947 H   0  0  0  0  0  0  0  0  0  0  0  0
    0.4059    4.2929    2.7851 H   0  0  0  0  0  0  0  0  0  0  0  0
   -1.5195   -0.9750    4.5732 H   0  0  0  0  0  0  0  0  0  0  0  0
   -2.7721    0.2294    4.4859 H   0  0  0  0  0  0  0  0  0  0  0  0
   -2.2243   -0.2935    6.0340 H   0  0  0  0  0  0  0  0  0  0  0  0
    0.3502   -2.2906    6.9331 H   0  0  0  0  0  0  0  0  0  0  0  0
  1  2  1  0
  1 33  1  0
  1 34  1  0
  1 35  1  0
  2  3  1  0
  4  3  1  1
  3 36  1  0
  3 37  1  0
  4 11  1  0
  4 31  1  0
  4  5  1  0
  5  6  1  0
  5 38  1  0
  5 39  1  0
  6 24  1  0
  6  7  1  0
  6 40  1  6
  7 30  1  0
  7  8  1  0
  7 41  1  1
  8  9  1  0
  8 10  1  0
  9 42  1  0
  9 43  1  0
  9 44  1  0
 10 27  1  0
 10 11  1  0
 10 45  1  6
 11 12  1  0
 11 46  1  1
 12 13  1  0
 12 14  1  0
 12 47  1  1
 13 48  1  0
 14 31  1  0
 14 15  1  1
 14 16  1  0
 15 49  1  0
 16 30  1  0
 16 17  1  0
 16 50  1  1
 17 27  1  0
 17 18  1  1
 17 19  1  0
 18 51  1  0
 19 20  1  0
 19 52  1  0
 19 53  1  0
 20 28  1  0
 20 21  1  1
 20 22  1  0
 21 54  1  0
 22 23  1  0
 22 55  1  0
 22 56  1  0
 24 23  1  6
 23 57  1  0
 23 58  1  0
 24 25  1  0
 24 28  1  0
 25 26  1  0
 25 27  1  0
 25 59  1  6
 26 60  1  0
 28 29  1  6
 28 30  1  0
 29 61  1  0
 29 62  1  0
 29 63  1  0
 30 31  1  1
 31 32  1  1
 32 64  1  0
M  END
>  <i_m_ct_stereo_status>  (164) 
1

>  <s_m_source_file>  (164) 
/var/tmp/pbs.5076255.sched01/tmpx9mnojvb/44r91_cmns.sdf

>  <i_m_source_file_index>  (164) 
38

>  <i_lp_mmshare_version>  (164) 
48012

>  <i_f3d_flags>  (164) 
0

>  <s_epik_input>  (164) 
W0NAQF0xMjNbQ0BIXTRbQ0BIXTVbQ0BAXTY3W0NASF04W0NAQF05KFtPSF0pW0NAXTcoW09IXSlbQ0BdKFtDSDJdNCkoW0NIMl1PW0NIM10pW0NASF0oW0NASF05W09IXSlbQ0BASF0oTjVbQ0gzXSlOKFtDQEBIXTJbT0hdKVtDQEBdOChbT0hdKVtDSDJdW0NAQF0oW09IXSkoW0NIMl1bQ0gyXTEpW0NAQF0zNltDSDNd

>  <s_epik_cmdline>  (164) 
J2VwaWtfcHl0aG9uJywgJy1waHQnLCAnMi4wJywgJy1waCcsICc3LjAnLCAnLXRuJywgJzgnLCAnLW1hJywgJzIwMCcsICctaW1hZScsICc8aW5maWxlLm1hZT4nLCAnLW9tYWUnLCAnPG91dGZpbGUubWFlPic=

>  <r_epik_Ionization_Penalty>  (164) 
2.33715

>  <r_epik_Ionization_Penalty_Charging>  (164) 
0

>  <r_epik_Ionization_Penalty_Neutral>  (164) 
2.33715

>  <r_epik_State_Penalty>  (164) 
2.30108

>  <r_epik_Charging_Adjusted_Penalty>  (164) 
2.30108

>  <i_epik_Tot_Q>  (164) 
0

>  <i_epik_Tot_abs_Q>  (164) 
0

>  <s_epik_Chemistry_Notes>  (164) 
This compound contains an acetal/aminal-like group ( X-CH(R)-Y where X, Y are N, S, or O) that may be acid/base labile, releasing an aldehyde.

>  <s_lp_Force_Field>  (164) 
OPLS3e

>  <r_lp_Energy>  (164) 
523.515

>  <b_lp_Chiralities_Consistent>  (164) 
1

>  <s_lp_Variant>  (164) 
46:0-2

>  <s_i_glide_gridfile>  (164) 
pfpi4k_grid

>  <i_i_glide_lignum>  (164) 
38

>  <i_i_glide_rotatable_bonds>  (164) 
8

>  <r_i_docking_score>  (164) 
-2.51153

>  <r_i_glide_ligand_efficiency>  (164) 
-0.0784854

>  <r_i_glide_ligand_efficiency_sa>  (164) 
-0.249176

>  <r_i_glide_ligand_efficiency_ln>  (164) 
-0.562401

>  <r_i_glide_gscore>  (164) 
-2.51153

>  <r_i_glide_lipo>  (164) 
-0.0132242

>  <r_i_glide_hbond>  (164) 
-0.152808

>  <r_i_glide_metal>  (164) 
-0

>  <r_i_glide_rewards>  (164) 
-0.851072

>  <r_i_glide_evdw>  (164) 
-15.5861

>  <r_i_glide_ecoul>  (164) 
-5.18257

>  <r_i_glide_erotb>  (164) 
0.0995888

>  <r_i_glide_esite>  (164) 
-0.0373264

>  <r_i_glide_emodel>  (164) 
-30.1583

>  <r_i_glide_energy>  (164) 
-20.7687

>  <r_i_glide_einternal>  (164) 
1.96981

>  <r_i_glide_intrahb_reward>  (164) 
-0.5

>  <i_i_glide_confnum>  (164) 
4

>  <i_i_glide_posenum>  (164) 
2

>  <r_i_glide_eff_state_penalty>  (164) 
0

>  <ligand_id>  (164) 
46

>  <original_smiles>  (164) 
COCC12CC3C4N(C)C5C1C(O)C1(O)C6C7(O)CC8(O)CCC3(C(O)N57)C8(C)C46C21O

>  <smiles>  (164) 
[H]OC1([H])N2C3([H])N(C([H])([H])[H])C4([H])C5([H])C([H])([H])C6(C([H])([H])OC([H])([H])[H])C3([H])C([H])(O[H])C3(O[H])C7([H])C2(O[H])C([H])([H])C2(O[H])C([H])([H])C([H])([H])C15C2(C([H])([H])[H])C47C36O[H]

$$$$
48:0:0
     RDKit          3D

 47 53  0  0  1  0  0  0  0  0999 V2000
    5.0601   -3.2869    4.5355 C   0  0  0  0  0  0  0  0  0  0  0  0
    5.0068   -3.6246    3.2338 C   0  0  0  0  0  0  0  0  0  0  0  0
    4.3672   -2.6929    2.0703 C   0  0  1  0  0  0  0  0  0  0  0  0
    5.7045   -2.2092    1.4902 C   0  0  0  0  0  0  0  0  0  0  0  0
    6.2400   -3.3306    0.5471 C   0  0  1  0  0  0  0  0  0  0  0  0
    7.7754   -3.2902    0.5496 C   0  0  0  0  0  0  0  0  0  0  0  0
    5.7168   -4.7086    1.2012 C   0  0  1  0  0  0  0  0  0  0  0  0
    5.5897   -5.0215    2.6460 C   0  0  2  0  0  0  0  0  0  0  0  0
    4.6320   -6.2807    1.9945 C   0  0  1  0  0  0  0  0  0  0  0  0
    3.8868   -6.4297    0.5821 C   0  0  0  0  0  0  0  0  0  0  0  0
    3.1106   -5.0058    0.5780 C   0  0  1  0  0  0  0  0  0  0  0  0
    3.3052   -3.3772    0.8683 C   0  0  2  0  0  0  0  0  0  0  0  0
    2.9412   -2.4592   -0.3654 C   0  0  0  0  0  0  0  0  0  0  0  0
    3.6897   -1.6626   -1.0295 C   0  0  0  0  0  0  0  0  0  0  0  0
    5.0409   -1.7724   -1.0217 N   0  0  0  0  0  0  0  0  0  0  0  0
    5.6995   -3.0769   -0.9475 C   0  0  2  0  0  0  0  0  0  0  0  0
    5.0498   -4.2817   -1.2104 O   0  0  0  0  0  0  0  0  0  0  0  0
    6.2736   -3.1279   -2.3788 C   0  0  0  0  0  0  0  0  0  0  0  0
    5.1040   -2.8882   -3.4387 C   0  0  0  0  0  0  0  0  0  0  0  0
    3.5854   -3.1821   -3.1105 C   0  0  0  0  0  0  0  0  0  0  0  0
    2.8356   -2.4690   -1.9447 C   0  0  1  0  0  0  0  0  0  0  0  0
    4.1255   -5.0650    1.5460 C   0  0  2  0  0  0  0  0  0  0  0  0
    5.5192   -3.9475    5.2573 H   0  0  0  0  0  0  0  0  0  0  0  0
    4.6759   -2.3435    4.8929 H   0  0  0  0  0  0  0  0  0  0  0  0
    3.8660   -1.8495    2.5596 H   0  0  0  0  0  0  0  0  0  0  0  0
    5.6359   -1.1888    1.1195 H   0  0  0  0  0  0  0  0  0  0  0  0
    6.4225   -2.0436    2.2954 H   0  0  0  0  0  0  0  0  0  0  0  0
    8.2087   -4.0459   -0.1014 H   0  0  0  0  0  0  0  0  0  0  0  0
    8.1469   -3.4861    1.5570 H   0  0  0  0  0  0  0  0  0  0  0  0
    8.1504   -2.3109    0.2466 H   0  0  0  0  0  0  0  0  0  0  0  0
    6.2723   -5.5086    0.6905 H   0  0  0  0  0  0  0  0  0  0  0  0
    6.5240   -5.3470    3.1123 H   0  0  0  0  0  0  0  0  0  0  0  0
    4.0715   -6.8001    2.7752 H   0  0  0  0  0  0  0  0  0  0  0  0
    4.5529   -6.5687   -0.2764 H   0  0  0  0  0  0  0  0  0  0  0  0
    3.2008   -7.2787    0.5985 H   0  0  0  0  0  0  0  0  0  0  0  0
    2.1182   -5.2959    0.9274 H   0  0  0  0  0  0  0  0  0  0  0  0
    2.3708   -3.1649    1.3913 H   0  0  0  0  0  0  0  0  0  0  0  0
    4.2335   -4.0644   -1.6455 H   0  0  0  0  0  0  0  0  0  0  0  0
    7.0602   -2.3952   -2.5416 H   0  0  0  0  0  0  0  0  0  0  0  0
    6.7654   -4.0529   -2.6591 H   0  0  0  0  0  0  0  0  0  0  0  0
    5.1403   -1.8634   -3.7998 H   0  0  0  0  0  0  0  0  0  0  0  0
    5.3331   -3.5211   -4.3030 H   0  0  0  0  0  0  0  0  0  0  0  0
    3.0302   -2.9085   -4.0015 H   0  0  0  0  0  0  0  0  0  0  0  0
    3.4010   -4.2299   -3.0775 H   0  0  0  0  0  0  0  0  0  0  0  0
    1.9456   -2.0065   -2.3775 H   0  0  0  0  0  0  0  0  0  0  0  0
    3.4335   -4.9690    2.4323 H   0  0  0  0  0  0  0  0  0  0  0  0
    5.5417   -1.0916   -0.4771 H   0  0  0  0  0  0  0  0  0  0  0  0
  1  2  2  0
  1 23  1  0
  1 24  1  0
  2  8  1  0
  2  3  1  0
  3 12  1  0
  3  4  1  0
  3 25  1  1
  4  5  1  0
  4 26  1  0
  4 27  1  0
  5 16  1  0
  5  6  1  6
  5  7  1  0
  6 28  1  0
  6 29  1  0
  6 30  1  0
  7 22  1  0
  7  8  1  0
  7 31  1  6
  8  9  1  0
  8 32  1  1
  9 22  1  0
  9 10  1  0
  9 33  1  1
 10 11  1  0
 10 34  1  0
 10 35  1  0
 11 12  1  0
 11 22  1  0
 11 36  1  1
 12 13  1  0
 12 37  1  1
 13 21  1  0
 13 14  2  0
 14 21  1  0
 14 15  1  0
 15 16  1  0
 15 47  1  0
 16 17  1  6
 16 18  1  0
 17 38  1  0
 18 19  1  0
 18 39  1  0
 18 40  1  0
 19 20  1  0
 19 41  1  0
 19 42  1  0
 20 21  1  0
 20 43  1  0
 20 44  1  0
 21 45  1  1
 22 46  1  1
M  END
>  <i_m_ct_stereo_status>  (165) 
1

>  <s_m_source_file>  (165) 
/var/tmp/pbs.5076255.sched01/tmpx9mnojvb/44r91_cmns.sdf

>  <i_m_source_file_index>  (165) 
40

>  <i_lp_mmshare_version>  (165) 
48012

>  <i_f3d_flags>  (165) 
0

>  <s_epik_input>  (165) 
W0NIM11bQ0BAXTEyW0NASF0zW0NAQEhdNFtDSF01W0NAQEhdM1tDQEhdKFtDSDJdNSlbQ0BASF0oW0NASF0oW0NIMl0xKUM0PVtDSDJdKVtDSF02Qz03W0NIXTZbQ0gyXVtDSDJdW0NIMl1bQ0BAXTIoTjcpW09IXQ==

>  <s_epik_cmdline>  (165) 
J2VwaWtfcHl0aG9uJywgJy1waHQnLCAnMi4wJywgJy1waCcsICc3LjAnLCAnLXRuJywgJzgnLCAnLW1hJywgJzIwMCcsICctaW1hZScsICc8aW5maWxlLm1hZT4nLCAnLW9tYWUnLCAnPG91dGZpbGUubWFlPic=

>  <r_epik_Ionization_Penalty>  (165) 
0.000808544

>  <r_epik_Ionization_Penalty_Charging>  (165) 
1.98898e-05

>  <r_epik_Ionization_Penalty_Neutral>  (165) 
0.000788655

>  <r_epik_State_Penalty>  (165) 
0.258151

>  <r_epik_Charging_Adjusted_Penalty>  (165) 
0.258171

>  <i_epik_Tot_Q>  (165) 
0

>  <i_epik_Tot_abs_Q>  (165) 
0

>  <s_epik_Chemistry_Notes>  (165) 
This compound has an imine and may undergo hydrolysis.

>  <s_lp_Force_Field>  (165) 
OPLS3e

>  <r_lp_Energy>  (165) 
449.257

>  <b_lp_Chiralities_Consistent>  (165) 
1

>  <s_lp_Variant>  (165) 
48:0-1

>  <s_i_glide_gridfile>  (165) 
pfpi4k_grid

>  <i_i_glide_lignum>  (165) 
40

>  <i_i_glide_rotatable_bonds>  (165) 
1

>  <r_i_docking_score>  (165) 
-3.27373

>  <r_i_glide_ligand_efficiency>  (165) 
-0.148806

>  <r_i_glide_ligand_efficiency_sa>  (165) 
-0.41696

>  <r_i_glide_ligand_efficiency_ln>  (165) 
-0.800218

>  <r_i_glide_gscore>  (165) 
-3.27373

>  <r_i_glide_lipo>  (165) 
-1.00406

>  <r_i_glide_hbond>  (165) 
0

>  <r_i_glide_metal>  (165) 
-0

>  <r_i_glide_rewards>  (165) 
-1.4584

>  <r_i_glide_evdw>  (165) 
-14.3127

>  <r_i_glide_ecoul>  (165) 
-0.440247

>  <r_i_glide_erotb>  (165) 
0

>  <r_i_glide_esite>  (165) 
-0.0295957

>  <r_i_glide_emodel>  (165) 
-16.4301

>  <r_i_glide_energy>  (165) 
-14.753

>  <r_i_glide_einternal>  (165) 
0.175042

>  <r_i_glide_intrahb_reward>  (165) 
-0

>  <i_i_glide_confnum>  (165) 
2

>  <i_i_glide_posenum>  (165) 
4

>  <r_i_glide_eff_state_penalty>  (165) 
0

>  <ligand_id>  (165) 
48

>  <original_smiles>  (165) 
C=C1C2CC3(C)C4C1C1CC(C2C2C5=NC3(O)CCCC52)C14

>  <smiles>  (165) 
[H]OC12N([H])C3=C(C3([H])C([H])([H])C([H])([H])C1([H])[H])C1([H])C3([H])C(=C([H])[H])C4([H])C5([H])C([H])([H])C1([H])C5([H])C4([H])C2(C([H])([H])[H])C3([H])[H]

$$$$
48:0:1
     RDKit          3D

 47 53  0  0  1  0  0  0  0  0999 V2000
    3.3112   -3.4435    3.9531 C   0  0  0  0  0  0  0  0  0  0  0  0
    3.8375   -3.3397    2.7341 C   0  0  0  0  0  0  0  0  0  0  0  0
    2.9955   -3.2069    1.3555 C   0  0  1  0  0  0  0  0  0  0  0  0
    3.2125   -1.7027    1.1823 C   0  0  0  0  0  0  0  0  0  0  0  0
    4.6208   -1.5212    0.5328 C   0  0  1  0  0  0  0  0  0  0  0  0
    5.1818   -0.1901    1.0004 C   0  0  0  0  0  0  0  0  0  0  0  0
    5.5026   -2.7179    1.1137 C   0  0  1  0  0  0  0  0  0  0  0  0
    5.4368   -3.3056    2.4641 C   0  0  2  0  0  0  0  0  0  0  0  0
    6.3156   -4.5253    1.6646 C   0  0  1  0  0  0  0  0  0  0  0  0
    6.4326   -4.9136    0.1228 C   0  0  0  0  0  0  0  0  0  0  0  0
    4.8648   -4.9547   -0.2464 C   0  0  1  0  0  0  0  0  0  0  0  0
    3.4218   -4.1405   -0.0584 C   0  0  2  0  0  0  0  0  0  0  0  0
    2.6609   -3.8378   -1.3964 C   0  0  0  0  0  0  0  0  0  0  0  0
    2.4095   -2.6722   -1.8914 C   0  0  0  0  0  0  0  0  0  0  0  0
    3.1073   -1.6269   -1.4312 N   0  0  0  0  0  0  0  0  0  0  0  0
    4.4826   -1.5603   -1.0751 C   0  0  2  0  0  0  0  0  0  0  0  0
    5.3907   -2.5725   -1.4106 O   0  0  0  0  0  0  0  0  0  0  0  0
    5.0038   -0.7142   -2.2658 C   0  0  0  0  0  0  0  0  0  0  0  0
    4.4929   -1.3577   -3.6431 C   0  0  0  0  0  0  0  0  0  0  0  0
    4.1669   -2.9072   -3.7112 C   0  0  0  0  0  0  0  0  0  0  0  0
    2.9710   -3.4786   -2.9450 C   0  0  1  0  0  0  0  0  0  0  0  0
    5.1251   -4.3255    0.9751 C   0  0  2  0  0  0  0  0  0  0  0  0
    3.9422   -3.5028    4.8354 H   0  0  0  0  0  0  0  0  0  0  0  0
    2.2409   -3.4430    4.1136 H   0  0  0  0  0  0  0  0  0  0  0  0
    1.9517   -3.3895    1.6162 H   0  0  0  0  0  0  0  0  0  0  0  0
    2.3557   -1.2383    0.7130 H   0  0  0  0  0  0  0  0  0  0  0  0
    3.1925   -1.1944    2.1514 H   0  0  0  0  0  0  0  0  0  0  0  0
    6.1571    0.0186    0.5609 H   0  0  0  0  0  0  0  0  0  0  0  0
    5.2921   -0.1734    2.0881 H   0  0  0  0  0  0  0  0  0  0  0  0
    4.5126    0.6261    0.7280 H   0  0  0  0  0  0  0  0  0  0  0  0
    6.5443   -2.4748    0.8638 H   0  0  0  0  0  0  0  0  0  0  0  0
    5.9935   -2.7284    3.2030 H   0  0  0  0  0  0  0  0  0  0  0  0
    6.3708   -5.4289    2.2651 H   0  0  0  0  0  0  0  0  0  0  0  0
    7.0012   -4.2005   -0.4821 H   0  0  0  0  0  0  0  0  0  0  0  0
    6.9074   -5.8959    0.0493 H   0  0  0  0  0  0  0  0  0  0  0  0
    4.6632   -6.0220   -0.1747 H   0  0  0  0  0  0  0  0  0  0  0  0
    2.7792   -4.9754    0.1763 H   0  0  0  0  0  0  0  0  0  0  0  0
    4.8210   -3.2334   -1.7930 H   0  0  0  0  0  0  0  0  0  0  0  0
    4.6643    0.3205   -2.2965 H   0  0  0  0  0  0  0  0  0  0  0  0
    6.0802   -0.6793   -2.2584 H   0  0  0  0  0  0  0  0  0  0  0  0
    3.6558   -0.7691   -4.0157 H   0  0  0  0  0  0  0  0  0  0  0  0
    5.1868   -1.1573   -4.4509 H   0  0  0  0  0  0  0  0  0  0  0  0
    3.8652   -3.0510   -4.7348 H   0  0  0  0  0  0  0  0  0  0  0  0
    5.0439   -3.5483   -3.6415 H   0  0  0  0  0  0  0  0  0  0  0  0
    2.2847   -3.9243   -3.6898 H   0  0  0  0  0  0  0  0  0  0  0  0
    4.5876   -5.0952    1.6055 H   0  0  0  0  0  0  0  0  0  0  0  0
    2.5135   -0.9597   -0.9418 H   0  0  0  0  0  0  0  0  0  0  0  0
  1  2  2  0
  1 23  1  0
  1 24  1  0
  2  8  1  0
  2  3  1  0
  3 12  1  0
  3  4  1  0
  3 25  1  1
  4  5  1  0
  4 26  1  0
  4 27  1  0
  5 16  1  0
  5  6  1  6
  5  7  1  0
  6 28  1  0
  6 29  1  0
  6 30  1  0
  7 22  1  0
  7  8  1  0
  7 31  1  6
  8  9  1  0
  8 32  1  1
  9 22  1  0
  9 10  1  0
  9 33  1  1
 10 11  1  0
 10 34  1  0
 10 35  1  0
 11 12  1  0
 11 22  1  0
 11 36  1  1
 12 13  1  0
 12 37  1  1
 13 21  1  0
 13 14  2  0
 14 21  1  0
 14 15  1  0
 15 16  1  0
 15 47  1  0
 16 17  1  6
 16 18  1  0
 17 38  1  0
 18 19  1  0
 18 39  1  0
 18 40  1  0
 19 20  1  0
 19 41  1  0
 19 42  1  0
 20 21  1  0
 20 43  1  0
 20 44  1  0
 21 45  1  6
 22 46  1  1
M  END
>  <i_m_ct_stereo_status>  (166) 
1

>  <s_m_source_file>  (166) 
/var/tmp/pbs.5076255.sched01/tmpx9mnojvb/44r91_cmns.sdf

>  <i_m_source_file_index>  (166) 
40

>  <i_lp_mmshare_version>  (166) 
48012

>  <i_f3d_flags>  (166) 
0

>  <s_epik_input>  (166) 
W0NIM11bQ0BAXTEyW0NASF0zW0NAQEhdNFtDSF01W0NAQEhdM1tDQEhdKFtDSDJdNSlbQ0BASF0oW0NASF0oW0NIMl0xKUM0PVtDSDJdKVtDSF02Qz03W0NIXTZbQ0gyXVtDSDJdW0NIMl1bQ0BAXTIoTjcpW09IXQ==

>  <s_epik_cmdline>  (166) 
J2VwaWtfcHl0aG9uJywgJy1waHQnLCAnMi4wJywgJy1waCcsICc3LjAnLCAnLXRuJywgJzgnLCAnLW1hJywgJzIwMCcsICctaW1hZScsICc8aW5maWxlLm1hZT4nLCAnLW9tYWUnLCAnPG91dGZpbGUubWFlPic=

>  <r_epik_Ionization_Penalty>  (166) 
0.000808544

>  <r_epik_Ionization_Penalty_Charging>  (166) 
1.98898e-05

>  <r_epik_Ionization_Penalty_Neutral>  (166) 
0.000788655

>  <r_epik_State_Penalty>  (166) 
0.258151

>  <r_epik_Charging_Adjusted_Penalty>  (166) 
0.258171

>  <i_epik_Tot_Q>  (166) 
0

>  <i_epik_Tot_abs_Q>  (166) 
0

>  <s_epik_Chemistry_Notes>  (166) 
This compound has an imine and may undergo hydrolysis.

>  <s_lp_Force_Field>  (166) 
OPLS3e

>  <r_lp_Energy>  (166) 
449.257

>  <b_lp_Chiralities_Consistent>  (166) 
1

>  <s_lp_Variant>  (166) 
48:0-1

>  <s_i_glide_gridfile>  (166) 
pfpi4k_grid

>  <i_i_glide_lignum>  (166) 
40

>  <i_i_glide_rotatable_bonds>  (166) 
1

>  <r_i_docking_score>  (166) 
-2.89986

>  <r_i_glide_ligand_efficiency>  (166) 
-0.131812

>  <r_i_glide_ligand_efficiency_sa>  (166) 
-0.369342

>  <r_i_glide_ligand_efficiency_ln>  (166) 
-0.708832

>  <r_i_glide_gscore>  (166) 
-2.89986

>  <r_i_glide_lipo>  (166) 
-0.759024

>  <r_i_glide_hbond>  (166) 
-0.087273

>  <r_i_glide_metal>  (166) 
-0

>  <r_i_glide_rewards>  (166) 
-1.39487

>  <r_i_glide_evdw>  (166) 
-1.99019

>  <r_i_glide_ecoul>  (166) 
-2.79897

>  <r_i_glide_erotb>  (166) 
0

>  <r_i_glide_esite>  (166) 
-0.139338

>  <r_i_glide_emodel>  (166) 
-5.77858

>  <r_i_glide_energy>  (166) 
-4.78916

>  <r_i_glide_einternal>  (166) 
0.355202

>  <r_i_glide_intrahb_reward>  (166) 
-0

>  <i_i_glide_confnum>  (166) 
2

>  <i_i_glide_posenum>  (166) 
32

>  <r_i_glide_eff_state_penalty>  (166) 
0

>  <ligand_id>  (166) 
48

>  <original_smiles>  (166) 
C=C1C2CC3(C)C4C1C1CC(C2C2C5=NC3(O)CCCC52)C14

>  <smiles>  (166) 
[H]OC12N([H])C3=C(C3([H])C([H])([H])C([H])([H])C1([H])[H])C1([H])C3([H])C(=C([H])[H])C4([H])C5([H])C([H])([H])C1([H])C5([H])C4([H])C2(C([H])([H])[H])C3([H])[H]

$$$$
48:1:0
     RDKit          3D

 47 53  0  0  1  0  0  0  0  0999 V2000
    8.3519   -4.6123    1.2759 C   0  0  0  0  0  0  0  0  0  0  0  0
    7.1262   -4.0513    1.2929 C   0  0  0  0  0  0  0  0  0  0  0  0
    6.7173   -2.7914    0.3651 C   0  0  1  0  0  0  0  0  0  0  0  0
    5.9154   -3.5009   -0.6854 C   0  0  0  0  0  0  0  0  0  0  0  0
    4.6728   -4.1392   -0.0362 C   0  0  1  0  0  0  0  0  0  0  0  0
    4.7479   -5.6579   -0.3207 C   0  0  0  0  0  0  0  0  0  0  0  0
    4.7524   -4.0478    1.5246 C   0  0  1  0  0  0  0  0  0  0  0  0
    5.9160   -4.5785    2.2638 C   0  0  2  0  0  0  0  0  0  0  0  0
    5.1661   -3.6720    3.5079 C   0  0  1  0  0  0  0  0  0  0  0  0
    4.1029   -2.4684    3.4486 C   0  0  0  0  0  0  0  0  0  0  0  0
    4.9132   -1.5329    2.4295 C   0  0  1  0  0  0  0  0  0  0  0  0
    5.7775   -1.5197    1.0089 C   0  0  2  0  0  0  0  0  0  0  0  0
    5.0720   -0.5380    0.0926 C   0  0  2  0  0  0  0  0  0  0  0  0
    3.6738   -1.0237   -0.2123 C   0  0  0  0  0  0  0  0  0  0  0  0
    3.0200   -2.2472   -0.0361 N   0  0  0  0  0  0  0  0  0  0  0  0
    3.3651   -3.4993   -0.6554 C   0  0  2  0  0  0  0  0  0  0  0  0
    2.3336   -4.4100   -0.3379 O   0  0  0  0  0  0  0  0  0  0  0  0
    3.2890   -3.4402   -2.2324 C   0  0  0  0  0  0  0  0  0  0  0  0
    3.2876   -2.1182   -2.9866 C   0  0  0  0  0  0  0  0  0  0  0  0
    4.3969   -1.1519   -2.6342 C   0  0  0  0  0  0  0  0  0  0  0  0
    4.2802   -0.6368   -1.2131 C   0  0  0  0  0  0  0  0  0  0  0  0
    5.3966   -2.8319    2.4274 C   0  0  2  0  0  0  0  0  0  0  0  0
    8.5843   -5.4515    1.9148 H   0  0  0  0  0  0  0  0  0  0  0  0
    9.1184   -4.2335    0.6161 H   0  0  0  0  0  0  0  0  0  0  0  0
    7.6239   -2.3722   -0.0886 H   0  0  0  0  0  0  0  0  0  0  0  0
    5.7131   -2.8513   -1.5042 H   0  0  0  0  0  0  0  0  0  0  0  0
    6.5540   -4.2514   -1.1244 H   0  0  0  0  0  0  0  0  0  0  0  0
    3.9629   -6.2285    0.1841 H   0  0  0  0  0  0  0  0  0  0  0  0
    5.7093   -6.0858   -0.0217 H   0  0  0  0  0  0  0  0  0  0  0  0
    4.6563   -5.8224   -1.3890 H   0  0  0  0  0  0  0  0  0  0  0  0
    3.8174   -4.4838    1.9095 H   0  0  0  0  0  0  0  0  0  0  0  0
    5.9058   -5.6627    2.4162 H   0  0  0  0  0  0  0  0  0  0  0  0
    5.8227   -3.5459    4.3776 H   0  0  0  0  0  0  0  0  0  0  0  0
    3.1099   -2.7286    3.0630 H   0  0  0  0  0  0  0  0  0  0  0  0
    3.9832   -1.9993    4.4304 H   0  0  0  0  0  0  0  0  0  0  0  0
    5.4184   -0.8544    3.1235 H   0  0  0  0  0  0  0  0  0  0  0  0
    6.6218   -0.8912    1.2797 H   0  0  0  0  0  0  0  0  0  0  0  0
    5.1827    0.4683    0.5328 H   0  0  0  0  0  0  0  0  0  0  0  0
    2.3215   -5.1160   -0.9762 H   0  0  0  0  0  0  0  0  0  0  0  0
    4.0786   -4.0968   -2.6533 H   0  0  0  0  0  0  0  0  0  0  0  0
    2.3284   -3.8749   -2.5599 H   0  0  0  0  0  0  0  0  0  0  0  0
    3.3580   -2.3369   -4.0531 H   0  0  0  0  0  0  0  0  0  0  0  0
    2.3362   -1.5988   -2.8639 H   0  0  0  0  0  0  0  0  0  0  0  0
    5.3531   -1.5110   -2.9186 H   0  0  0  0  0  0  0  0  0  0  0  0
    4.2596   -0.2708   -3.2404 H   0  0  0  0  0  0  0  0  0  0  0  0
    6.4136   -2.5612    2.8125 H   0  0  0  0  0  0  0  0  0  0  0  0
    2.0329   -2.0997   -0.1957 H   0  0  0  0  0  0  0  0  0  0  0  0
  1  2  2  0
  1 23  1  0
  1 24  1  0
  2  8  1  0
  2  3  1  0
  3 12  1  0
  3  4  1  0
  3 25  1  6
  4  5  1  0
  4 26  1  0
  4 27  1  0
  5 16  1  0
  5  6  1  1
  5  7  1  0
  6 28  1  0
  6 29  1  0
  6 30  1  0
  7 22  1  0
  7  8  1  0
  7 31  1  1
  8  9  1  0
  8 32  1  1
  9 22  1  0
  9 10  1  0
  9 33  1  1
 10 11  1  0
 10 34  1  0
 10 35  1  0
 11 12  1  0
 11 22  1  0
 11 36  1  1
 12 13  1  0
 12 37  1  1
 13 21  1  0
 13 14  1  0
 13 38  1  1
 14 21  2  0
 14 15  1  0
 15 16  1  0
 15 47  1  0
 16 17  1  1
 16 18  1  0
 17 39  1  0
 18 19  1  0
 18 40  1  0
 18 41  1  0
 19 20  1  0
 19 42  1  0
 19 43  1  0
 20 21  1  0
 20 44  1  0
 20 45  1  0
 22 46  1  6
M  END
>  <i_m_ct_stereo_status>  (167) 
1

>  <s_m_source_file>  (167) 
/var/tmp/pbs.5076255.sched01/tmpx9mnojvb/44r91_cmns.sdf

>  <i_m_source_file_index>  (167) 
41

>  <i_lp_mmshare_version>  (167) 
48012

>  <i_f3d_flags>  (167) 
0

>  <s_epik_input>  (167) 
W0NIM11bQ0BAXTEyW0NASF0zW0NAQEhdNFtDSF01W0NAQEhdM1tDQEhdKFtDSDJdNSlbQ0BASF0oW0NASF0oW0NIMl0xKUM0PVtDSDJdKVtDSF02Qz03W0NIXTZbQ0gyXVtDSDJdW0NIMl1bQ0BAXTIoTjcpW09IXQ==

>  <s_epik_cmdline>  (167) 
J2VwaWtfcHl0aG9uJywgJy1waHQnLCAnMi4wJywgJy1waCcsICc3LjAnLCAnLXRuJywgJzgnLCAnLW1hJywgJzIwMCcsICctaW1hZScsICc8aW5maWxlLm1hZT4nLCAnLW9tYWUnLCAnPG91dGZpbGUubWFlPic=

>  <r_epik_Ionization_Penalty>  (167) 
0.00153459

>  <r_epik_Ionization_Penalty_Charging>  (167) 
1.95106e-05

>  <r_epik_Ionization_Penalty_Neutral>  (167) 
0.00151508

>  <r_epik_State_Penalty>  (167) 
0.616891

>  <r_epik_Charging_Adjusted_Penalty>  (167) 
0.61691

>  <i_epik_Tot_Q>  (167) 
0

>  <i_epik_Tot_abs_Q>  (167) 
0

>  <s_epik_Chemistry_Notes>  (167) 
This compound has an imine and may undergo hydrolysis.

>  <s_lp_Force_Field>  (167) 
OPLS3e

>  <r_lp_Energy>  (167) 
373.668

>  <b_lp_Chiralities_Consistent>  (167) 
1

>  <s_lp_Variant>  (167) 
48:0-2

>  <s_i_glide_gridfile>  (167) 
pfpi4k_grid

>  <i_i_glide_lignum>  (167) 
41

>  <i_i_glide_rotatable_bonds>  (167) 
1

>  <r_i_docking_score>  (167) 
-4.20585

>  <r_i_glide_ligand_efficiency>  (167) 
-0.191175

>  <r_i_glide_ligand_efficiency_sa>  (167) 
-0.53568

>  <r_i_glide_ligand_efficiency_ln>  (167) 
-1.02806

>  <r_i_glide_gscore>  (167) 
-4.20585

>  <r_i_glide_lipo>  (167) 
-0.787549

>  <r_i_glide_hbond>  (167) 
-0.452031

>  <r_i_glide_metal>  (167) 
-0

>  <r_i_glide_rewards>  (167) 
-1.45265

>  <r_i_glide_evdw>  (167) 
-14.3859

>  <r_i_glide_ecoul>  (167) 
-4.81394

>  <r_i_glide_erotb>  (167) 
0

>  <r_i_glide_esite>  (167) 
-0.0722414

>  <r_i_glide_emodel>  (167) 
-24.3788

>  <r_i_glide_energy>  (167) 
-19.1998

>  <r_i_glide_einternal>  (167) 
0.00854336

>  <r_i_glide_intrahb_reward>  (167) 
-0

>  <i_i_glide_confnum>  (167) 
2

>  <i_i_glide_posenum>  (167) 
7

>  <r_i_glide_eff_state_penalty>  (167) 
0

>  <ligand_id>  (167) 
48

>  <original_smiles>  (167) 
C=C1C2CC3(C)C4C1C1CC(C2C2C5=NC3(O)CCCC52)C14

>  <smiles>  (167) 
[H]OC12N([H])C3=C(C([H])([H])C([H])([H])C1([H])[H])C3([H])C1([H])C3([H])C(=C([H])[H])C4([H])C5([H])C([H])([H])C1([H])C5([H])C4([H])C2(C([H])([H])[H])C3([H])[H]

$$$$
48:1:1
     RDKit          3D

 47 53  0  0  1  0  0  0  0  0999 V2000
    6.8454   -5.8502    3.2113 C   0  0  0  0  0  0  0  0  0  0  0  0
    5.7765   -5.1223    2.8480 C   0  0  0  0  0  0  0  0  0  0  0  0
    5.8762   -3.6893    2.0666 C   0  0  1  0  0  0  0  0  0  0  0  0
    5.5531   -4.1322    0.6721 C   0  0  0  0  0  0  0  0  0  0  0  0
    4.1032   -4.6470    0.6385 C   0  0  1  0  0  0  0  0  0  0  0  0
    4.2124   -6.1043    0.0847 C   0  0  0  0  0  0  0  0  0  0  0  0
    3.5426   -4.7905    2.1137 C   0  0  1  0  0  0  0  0  0  0  0  0
    4.2372   -5.5886    3.1376 C   0  0  2  0  0  0  0  0  0  0  0  0
    3.0998   -4.7623    4.1240 C   0  0  1  0  0  0  0  0  0  0  0  0
    2.2551   -3.4217    3.8518 C   0  0  0  0  0  0  0  0  0  0  0  0
    3.4940   -2.4847    3.4533 C   0  0  1  0  0  0  0  0  0  0  0  0
    4.8453   -2.3931    2.5026 C   0  0  2  0  0  0  0  0  0  0  0  0
    4.6362   -1.1556    1.5939 C   0  0  2  0  0  0  0  0  0  0  0  0
    3.4681   -1.3725    0.6306 C   0  0  0  0  0  0  0  0  0  0  0  0
    2.7427   -2.4778    0.2957 N   0  0  0  0  0  0  0  0  0  0  0  0
    3.2146   -3.7334   -0.3242 C   0  0  2  0  0  0  0  0  0  0  0  0
    2.0788   -4.5365   -0.6072 O   0  0  0  0  0  0  0  0  0  0  0  0
    3.8108   -3.4855   -1.7625 C   0  0  0  0  0  0  0  0  0  0  0  0
    4.2595   -2.0655   -2.1814 C   0  0  0  0  0  0  0  0  0  0  0  0
    5.1820   -1.3299   -1.2155 C   0  0  0  0  0  0  0  0  0  0  0  0
    4.5440   -0.9057    0.0715 C   0  0  0  0  0  0  0  0  0  0  0  0
    3.8541   -3.8262    3.4375 C   0  0  2  0  0  0  0  0  0  0  0  0
    6.7272   -6.8015    3.7197 H   0  0  0  0  0  0  0  0  0  0  0  0
    7.8502   -5.5158    2.9892 H   0  0  0  0  0  0  0  0  0  0  0  0
    6.9147   -3.3514    2.0713 H   0  0  0  0  0  0  0  0  0  0  0  0
    5.7549   -3.3517   -0.0270 H   0  0  0  0  0  0  0  0  0  0  0  0
    6.2627   -4.9105    0.3901 H   0  0  0  0  0  0  0  0  0  0  0  0
    3.2526   -6.6219    0.1367 H   0  0  0  0  0  0  0  0  0  0  0  0
    4.9074   -6.7144    0.6681 H   0  0  0  0  0  0  0  0  0  0  0  0
    4.5704   -6.1273   -0.9443 H   0  0  0  0  0  0  0  0  0  0  0  0
    2.5011   -5.1300    1.9980 H   0  0  0  0  0  0  0  0  0  0  0  0
    4.0783   -6.6671    3.0581 H   0  0  0  0  0  0  0  0  0  0  0  0
    3.3149   -4.8766    5.1896 H   0  0  0  0  0  0  0  0  0  0  0  0
    1.5006   -3.4793    3.0598 H   0  0  0  0  0  0  0  0  0  0  0  0
    1.7599   -3.0769    4.7668 H   0  0  0  0  0  0  0  0  0  0  0  0
    3.7041   -1.9642    4.3895 H   0  0  0  0  0  0  0  0  0  0  0  0
    5.5586   -1.9437    3.1972 H   0  0  0  0  0  0  0  0  0  0  0  0
    4.6586   -0.2623    2.2133 H   0  0  0  0  0  0  0  0  0  0  0  0
    2.2509   -5.1037   -1.3640 H   0  0  0  0  0  0  0  0  0  0  0  0
    4.6451   -4.1689   -1.9382 H   0  0  0  0  0  0  0  0  0  0  0  0
    3.0697   -3.7582   -2.5230 H   0  0  0  0  0  0  0  0  0  0  0  0
    4.7423   -2.1436   -3.1564 H   0  0  0  0  0  0  0  0  0  0  0  0
    3.3888   -1.4347   -2.3563 H   0  0  0  0  0  0  0  0  0  0  0  0
    6.1776   -1.7493   -1.1461 H   0  0  0  0  0  0  0  0  0  0  0  0
    5.3849   -0.3875   -1.6903 H   0  0  0  0  0  0  0  0  0  0  0  0
    4.6392   -3.7749    4.2489 H   0  0  0  0  0  0  0  0  0  0  0  0
    1.8913   -2.2279   -0.1928 H   0  0  0  0  0  0  0  0  0  0  0  0
  1  2  2  0
  1 23  1  0
  1 24  1  0
  2  8  1  0
  2  3  1  0
  3 12  1  0
  3  4  1  0
  3 25  1  6
  4  5  1  0
  4 26  1  0
  4 27  1  0
  5 16  1  0
  5  6  1  6
  5  7  1  0
  6 28  1  0
  6 29  1  0
  6 30  1  0
  7 22  1  0
  7  8  1  0
  7 31  1  6
  8  9  1  0
  8 32  1  6
  9 22  1  0
  9 10  1  0
  9 33  1  1
 10 11  1  0
 10 34  1  0
 10 35  1  0
 11 12  1  0
 11 22  1  0
 11 36  1  1
 12 13  1  0
 12 37  1  1
 13 21  1  0
 13 14  1  0
 13 38  1  1
 14 21  2  0
 14 15  1  0
 15 16  1  0
 15 47  1  0
 16 17  1  6
 16 18  1  0
 17 39  1  0
 18 19  1  0
 18 40  1  0
 18 41  1  0
 19 20  1  0
 19 42  1  0
 19 43  1  0
 20 21  1  0
 20 44  1  0
 20 45  1  0
 22 46  1  1
M  END
>  <i_m_ct_stereo_status>  (168) 
1

>  <s_m_source_file>  (168) 
/var/tmp/pbs.5076255.sched01/tmpx9mnojvb/44r91_cmns.sdf

>  <i_m_source_file_index>  (168) 
41

>  <i_lp_mmshare_version>  (168) 
48012

>  <i_f3d_flags>  (168) 
0

>  <s_epik_input>  (168) 
W0NIM11bQ0BAXTEyW0NASF0zW0NAQEhdNFtDSF01W0NAQEhdM1tDQEhdKFtDSDJdNSlbQ0BASF0oW0NASF0oW0NIMl0xKUM0PVtDSDJdKVtDSF02Qz03W0NIXTZbQ0gyXVtDSDJdW0NIMl1bQ0BAXTIoTjcpW09IXQ==

>  <s_epik_cmdline>  (168) 
J2VwaWtfcHl0aG9uJywgJy1waHQnLCAnMi4wJywgJy1waCcsICc3LjAnLCAnLXRuJywgJzgnLCAnLW1hJywgJzIwMCcsICctaW1hZScsICc8aW5maWxlLm1hZT4nLCAnLW9tYWUnLCAnPG91dGZpbGUubWFlPic=

>  <r_epik_Ionization_Penalty>  (168) 
0.00153459

>  <r_epik_Ionization_Penalty_Charging>  (168) 
1.95106e-05

>  <r_epik_Ionization_Penalty_Neutral>  (168) 
0.00151508

>  <r_epik_State_Penalty>  (168) 
0.616891

>  <r_epik_Charging_Adjusted_Penalty>  (168) 
0.61691

>  <i_epik_Tot_Q>  (168) 
0

>  <i_epik_Tot_abs_Q>  (168) 
0

>  <s_epik_Chemistry_Notes>  (168) 
This compound has an imine and may undergo hydrolysis.

>  <s_lp_Force_Field>  (168) 
OPLS3e

>  <r_lp_Energy>  (168) 
373.668

>  <b_lp_Chiralities_Consistent>  (168) 
1

>  <s_lp_Variant>  (168) 
48:0-2

>  <s_i_glide_gridfile>  (168) 
pfpi4k_grid

>  <i_i_glide_lignum>  (168) 
41

>  <i_i_glide_rotatable_bonds>  (168) 
1

>  <r_i_docking_score>  (168) 
-3.9841

>  <r_i_glide_ligand_efficiency>  (168) 
-0.181096

>  <r_i_glide_ligand_efficiency_sa>  (168) 
-0.507437

>  <r_i_glide_ligand_efficiency_ln>  (168) 
-0.97386

>  <r_i_glide_gscore>  (168) 
-3.9841

>  <r_i_glide_lipo>  (168) 
-0.303637

>  <r_i_glide_hbond>  (168) 
-0.456

>  <r_i_glide_metal>  (168) 
-0

>  <r_i_glide_rewards>  (168) 
-1.39487

>  <r_i_glide_evdw>  (168) 
-16.3204

>  <r_i_glide_ecoul>  (168) 
-6.26401

>  <r_i_glide_erotb>  (168) 
0

>  <r_i_glide_esite>  (168) 
-0.0739699

>  <r_i_glide_emodel>  (168) 
-28.4884

>  <r_i_glide_energy>  (168) 
-22.5844

>  <r_i_glide_einternal>  (168) 
0.0161795

>  <r_i_glide_intrahb_reward>  (168) 
-0

>  <i_i_glide_confnum>  (168) 
2

>  <i_i_glide_posenum>  (168) 
16

>  <r_i_glide_eff_state_penalty>  (168) 
0

>  <ligand_id>  (168) 
48

>  <original_smiles>  (168) 
C=C1C2CC3(C)C4C1C1CC(C2C2C5=NC3(O)CCCC52)C14

>  <smiles>  (168) 
[H]OC12N([H])C3=C(C([H])([H])C([H])([H])C1([H])[H])C3([H])C1([H])C3([H])C(=C([H])[H])C4([H])C5([H])C([H])([H])C1([H])C5([H])C4([H])C2(C([H])([H])[H])C3([H])[H]

$$$$
49:0:0
     RDKit          3D

 41 44  0  0  1  0  0  0  0  0999 V2000
    5.7506   -2.7680    0.5701 O   0  0  0  0  0  0  0  0  0  0  0  0
    5.1068   -3.7465    0.1862 C   0  0  0  0  0  0  0  0  0  0  0  0
    4.5497   -3.8197   -1.0306 N   0  0  0  0  0  0  0  0  0  0  0  0
    4.3743   -2.8006   -2.0032 C   0  0  0  0  0  0  0  0  0  0  0  0
    4.4578   -1.4134   -1.7313 C   0  0  0  0  0  0  0  0  0  0  0  0
    4.2138   -0.5128   -2.7898 C   0  0  0  0  0  0  0  0  0  0  0  0
    3.8754   -1.0243   -4.0546 C   0  0  0  0  0  0  0  0  0  0  0  0
    3.8051   -2.3402   -4.3144 N   0  0  0  0  0  0  0  0  0  0  0  0
    4.0353   -3.1995   -3.3091 C   0  0  0  0  0  0  0  0  0  0  0  0
    4.8677   -4.8393    0.9591 N   0  0  0  0  0  0  0  0  0  0  0  0
    5.2217   -4.8652    2.3863 C   0  0  0  0  0  0  0  0  0  0  0  0
    3.9815   -5.2187    3.2226 C   0  0  0  0  0  0  0  0  0  0  0  0
    3.3481   -6.5446    2.7582 C   0  0  0  0  0  0  0  0  0  0  0  0
    2.1311   -6.8527    3.4919 N   0  0  0  0  0  0  0  0  0  0  0  0
    1.0873   -5.9498    3.4831 N   0  0  0  0  0  0  0  0  0  0  0  0
    0.1535   -6.4932    4.2434 C   0  0  0  0  0  0  0  0  0  0  0  0
    0.5557   -7.7535    4.7159 C   0  0  0  0  0  0  0  0  0  0  0  0
   -0.0777   -8.6402    5.4894 N   0  0  0  0  0  0  0  0  0  0  0  0
    0.6161   -9.7827    5.7343 C   0  0  0  0  0  0  0  0  0  0  0  0
    1.9219  -10.0224    5.2324 C   0  0  0  0  0  0  0  0  0  0  0  0
    2.5865   -9.1300    4.4575 N   0  0  0  0  0  0  0  0  0  0  0  0
    1.8521   -8.0056    4.2226 C   0  0  0  0  0  0  0  0  0  0  0  0
    3.0927   -6.5261    1.2447 C   0  0  0  0  0  0  0  0  0  0  0  0
    4.3634   -6.1427    0.4783 C   0  0  0  0  0  0  0  0  0  0  0  0
    4.1468   -4.7119   -1.2742 H   0  0  0  0  0  0  0  0  0  0  0  0
    4.6742   -1.0261   -0.7454 H   0  0  0  0  0  0  0  0  0  0  0  0
    4.2635    0.5524   -2.6406 H   0  0  0  0  0  0  0  0  0  0  0  0
    3.7070   -0.3653   -4.8901 H   0  0  0  0  0  0  0  0  0  0  0  0
    3.9434   -4.2475   -3.5580 H   0  0  0  0  0  0  0  0  0  0  0  0
    6.0238   -5.5834    2.5607 H   0  0  0  0  0  0  0  0  0  0  0  0
    5.5921   -3.9064    2.7453 H   0  0  0  0  0  0  0  0  0  0  0  0
    4.2432   -5.2859    4.2813 H   0  0  0  0  0  0  0  0  0  0  0  0
    3.2572   -4.4080    3.1302 H   0  0  0  0  0  0  0  0  0  0  0  0
    4.0639   -7.3427    2.9640 H   0  0  0  0  0  0  0  0  0  0  0  0
   -0.7963   -6.0320    4.4698 H   0  0  0  0  0  0  0  0  0  0  0  0
    0.1208  -10.5180    6.3479 H   0  0  0  0  0  0  0  0  0  0  0  0
    2.4333  -10.9453    5.4703 H   0  0  0  0  0  0  0  0  0  0  0  0
    2.7412   -7.5062    0.9185 H   0  0  0  0  0  0  0  0  0  0  0  0
    2.3002   -5.8136    1.0116 H   0  0  0  0  0  0  0  0  0  0  0  0
    4.1176   -6.1868   -0.5793 H   0  0  0  0  0  0  0  0  0  0  0  0
    5.1354   -6.9023    0.6000 H   0  0  0  0  0  0  0  0  0  0  0  0
  1  2  2  0
  2  3  1  0
  2 10  1  0
  3  4  1  0
  3 25  1  0
  4  9  1  0
  4  5  2  0
  5  6  1  0
  5 26  1  0
  6  7  2  0
  6 27  1  0
  7  8  1  0
  7 28  1  0
  8  9  2  0
  9 29  1  0
 10 24  1  0
 10 11  1  0
 11 12  1  0
 11 30  1  0
 11 31  1  0
 12 13  1  0
 12 32  1  0
 12 33  1  0
 13 14  1  0
 13 23  1  0
 13 34  1  0
 14 22  1  0
 14 15  1  0
 15 16  2  0
 16 17  1  0
 16 35  1  0
 17 22  2  0
 17 18  1  0
 18 19  2  0
 19 20  1  0
 19 36  1  0
 20 21  2  0
 20 37  1  0
 21 22  1  0
 23 24  1  0
 23 38  1  0
 23 39  1  0
 24 40  1  0
 24 41  1  0
M  END
>  <i_m_ct_stereo_status>  (169) 
1

>  <s_m_source_file>  (169) 
/var/tmp/pbs.5076255.sched01/tmpx9mnojvb/44r91_cmns.sdf

>  <i_m_source_file_index>  (169) 
42

>  <i_lp_mmshare_version>  (169) 
48012

>  <i_f3d_flags>  (169) 
0

>  <s_epik_input>  (169) 
W2NIXTFuW2NIXVtjSF1bY0hdYzFbTkhdQyg9TylOMltDSDJdW0NIMl1bQ0hdKFtDSDJdW0NIMl0yKW4obltjSF0zKWMoYzM0KW5bY0hdW2NIXW40

>  <s_epik_cmdline>  (169) 
J2VwaWtfcHl0aG9uJywgJy1waHQnLCAnMi4wJywgJy1waCcsICc3LjAnLCAnLXRuJywgJzgnLCAnLW1hJywgJzIwMCcsICctaW1hZScsICc8aW5maWxlLm1hZT4nLCAnLW9tYWUnLCAnPG91dGZpbGUubWFlPic=

>  <r_lp_tautomer_probability>  (169) 
1

>  <r_epik_Ionization_Penalty>  (169) 
0.00499991

>  <r_epik_Ionization_Penalty_Charging>  (169) 
0

>  <r_epik_Ionization_Penalty_Neutral>  (169) 
0.00499991

>  <r_epik_State_Penalty>  (169) 
0.00360715

>  <r_epik_Charging_Adjusted_Penalty>  (169) 
0.00360715

>  <i_epik_Tot_Q>  (169) 
0

>  <i_epik_Tot_abs_Q>  (169) 
0

>  <s_lp_Force_Field>  (169) 
OPLS3e

>  <r_lp_Energy>  (169) 
29.7191

>  <b_lp_Chiralities_Consistent>  (169) 
1

>  <s_lp_Variant>  (169) 
49:0-1

>  <s_i_glide_gridfile>  (169) 
pfpi4k_grid

>  <i_i_glide_lignum>  (169) 
42

>  <i_i_glide_rotatable_bonds>  (169) 
4

>  <r_i_docking_score>  (169) 
-3.97871

>  <r_i_glide_ligand_efficiency>  (169) 
-0.16578

>  <r_i_glide_ligand_efficiency_sa>  (169) 
-0.478191

>  <r_i_glide_ligand_efficiency_ln>  (169) 
-0.952288

>  <r_i_glide_gscore>  (169) 
-3.97871

>  <r_i_glide_lipo>  (169) 
-0.567662

>  <r_i_glide_hbond>  (169) 
-0.455156

>  <r_i_glide_metal>  (169) 
-0

>  <r_i_glide_rewards>  (169) 
-1.33065

>  <r_i_glide_evdw>  (169) 
-29.1988

>  <r_i_glide_ecoul>  (169) 
-5.76743

>  <r_i_glide_erotb>  (169) 
0.715892

>  <r_i_glide_esite>  (169) 
-0.0160855

>  <r_i_glide_emodel>  (169) 
-43.8367

>  <r_i_glide_energy>  (169) 
-34.9662

>  <r_i_glide_einternal>  (169) 
0.957833

>  <r_i_glide_intrahb_reward>  (169) 
-0

>  <i_i_glide_confnum>  (169) 
6

>  <i_i_glide_posenum>  (169) 
12

>  <r_i_glide_eff_state_penalty>  (169) 
0

>  <ligand_id>  (169) 
49

>  <original_smiles>  (169) 
O=C(Nc1cccnc1)N1CCC(n2ncc3nccnc32)CC1

>  <smiles>  (169) 
[H]c1nc2c([H])nn(C3([H])C([H])([H])C([H])([H])N(C(=O)N([H])c4c([H])nc([H])c([H])c4[H])C([H])([H])C3([H])[H])c2nc1[H]

$$$$
49:0:1
     RDKit          3D

 41 44  0  0  1  0  0  0  0  0999 V2000
    5.0109   -1.0560    2.0587 O   0  0  0  0  0  0  0  0  0  0  0  0
    3.9473   -0.6362    1.5998 C   0  0  0  0  0  0  0  0  0  0  0  0
    3.4580   -1.0412    0.4132 N   0  0  0  0  0  0  0  0  0  0  0  0
    4.1546   -1.7359   -0.6088 C   0  0  0  0  0  0  0  0  0  0  0  0
    3.4371   -2.5155   -1.5401 C   0  0  0  0  0  0  0  0  0  0  0  0
    4.1470   -3.1891   -2.5541 C   0  0  0  0  0  0  0  0  0  0  0  0
    5.5439   -3.0452   -2.6121 C   0  0  0  0  0  0  0  0  0  0  0  0
    6.2360   -2.2643   -1.7579 N   0  0  0  0  0  0  0  0  0  0  0  0
    5.5533   -1.6349   -0.7800 C   0  0  0  0  0  0  0  0  0  0  0  0
    3.1506    0.2276    2.2703 N   0  0  0  0  0  0  0  0  0  0  0  0
    1.9962    0.9370    1.6840 C   0  0  0  0  0  0  0  0  0  0  0  0
    0.7637    0.6867    2.5428 C   0  0  0  0  0  0  0  0  0  0  0  0
    1.0028    1.1430    3.9946 C   0  0  0  0  0  0  0  0  0  0  0  0
   -0.1514    0.8791    4.8313 N   0  0  0  0  0  0  0  0  0  0  0  0
   -0.8003   -0.3308    4.7231 N   0  0  0  0  0  0  0  0  0  0  0  0
   -1.7944   -0.2697    5.5846 C   0  0  0  0  0  0  0  0  0  0  0  0
   -1.7786    0.9447    6.2923 C   0  0  0  0  0  0  0  0  0  0  0  0
   -2.5686    1.4049    7.2734 N   0  0  0  0  0  0  0  0  0  0  0  0
   -2.2503    2.6419    7.7267 C   0  0  0  0  0  0  0  0  0  0  0  0
   -1.1620    3.3986    7.2210 C   0  0  0  0  0  0  0  0  0  0  0  0
   -0.3471    2.9523    6.2326 N   0  0  0  0  0  0  0  0  0  0  0  0
   -0.7023    1.7084    5.8039 C   0  0  0  0  0  0  0  0  0  0  0  0
    2.2761    0.4930    4.5725 C   0  0  0  0  0  0  0  0  0  0  0  0
    3.4770    0.6982    3.6326 C   0  0  0  0  0  0  0  0  0  0  0  0
    2.5108   -0.7555    0.1809 H   0  0  0  0  0  0  0  0  0  0  0  0
    2.3637   -2.6047   -1.4792 H   0  0  0  0  0  0  0  0  0  0  0  0
    3.6270   -3.8237   -3.2634 H   0  0  0  0  0  0  0  0  0  0  0  0
    6.1238   -3.5644   -3.3654 H   0  0  0  0  0  0  0  0  0  0  0  0
    6.1610   -0.9987   -0.1585 H   0  0  0  0  0  0  0  0  0  0  0  0
    2.2118    2.0036    1.6163 H   0  0  0  0  0  0  0  0  0  0  0  0
    1.7108    0.6054    0.6855 H   0  0  0  0  0  0  0  0  0  0  0  0
   -0.0952    1.2121    2.1192 H   0  0  0  0  0  0  0  0  0  0  0  0
    0.5351   -0.3818    2.5102 H   0  0  0  0  0  0  0  0  0  0  0  0
    1.1513    2.2269    3.9747 H   0  0  0  0  0  0  0  0  0  0  0  0
   -2.5101   -1.0604    5.7223 H   0  0  0  0  0  0  0  0  0  0  0  0
   -2.8851    3.0361    8.5063 H   0  0  0  0  0  0  0  0  0  0  0  0
   -0.9523    4.3771    7.6185 H   0  0  0  0  0  0  0  0  0  0  0  0
    2.4908    0.9153    5.5569 H   0  0  0  0  0  0  0  0  0  0  0  0
    2.1096   -0.5754    4.7225 H   0  0  0  0  0  0  0  0  0  0  0  0
    4.3395    0.1885    4.0655 H   0  0  0  0  0  0  0  0  0  0  0  0
    3.7488    1.7525    3.5978 H   0  0  0  0  0  0  0  0  0  0  0  0
  1  2  2  0
  2  3  1  0
  2 10  1  0
  3  4  1  0
  3 25  1  0
  4  9  1  0
  4  5  2  0
  5  6  1  0
  5 26  1  0
  6  7  2  0
  6 27  1  0
  7  8  1  0
  7 28  1  0
  8  9  2  0
  9 29  1  0
 10 24  1  0
 10 11  1  0
 11 12  1  0
 11 30  1  0
 11 31  1  0
 12 13  1  0
 12 32  1  0
 12 33  1  0
 13 14  1  0
 13 23  1  0
 13 34  1  0
 14 22  1  0
 14 15  1  0
 15 16  2  0
 16 17  1  0
 16 35  1  0
 17 22  2  0
 17 18  1  0
 18 19  2  0
 19 20  1  0
 19 36  1  0
 20 21  2  0
 20 37  1  0
 21 22  1  0
 23 24  1  0
 23 38  1  0
 23 39  1  0
 24 40  1  0
 24 41  1  0
M  END
>  <i_m_ct_stereo_status>  (170) 
1

>  <s_m_source_file>  (170) 
/var/tmp/pbs.5076255.sched01/tmpx9mnojvb/44r91_cmns.sdf

>  <i_m_source_file_index>  (170) 
42

>  <i_lp_mmshare_version>  (170) 
48012

>  <i_f3d_flags>  (170) 
0

>  <s_epik_input>  (170) 
W2NIXTFuW2NIXVtjSF1bY0hdYzFbTkhdQyg9TylOMltDSDJdW0NIMl1bQ0hdKFtDSDJdW0NIMl0yKW4obltjSF0zKWMoYzM0KW5bY0hdW2NIXW40

>  <s_epik_cmdline>  (170) 
J2VwaWtfcHl0aG9uJywgJy1waHQnLCAnMi4wJywgJy1waCcsICc3LjAnLCAnLXRuJywgJzgnLCAnLW1hJywgJzIwMCcsICctaW1hZScsICc8aW5maWxlLm1hZT4nLCAnLW9tYWUnLCAnPG91dGZpbGUubWFlPic=

>  <r_lp_tautomer_probability>  (170) 
1

>  <r_epik_Ionization_Penalty>  (170) 
0.00499991

>  <r_epik_Ionization_Penalty_Charging>  (170) 
0

>  <r_epik_Ionization_Penalty_Neutral>  (170) 
0.00499991

>  <r_epik_State_Penalty>  (170) 
0.00360715

>  <r_epik_Charging_Adjusted_Penalty>  (170) 
0.00360715

>  <i_epik_Tot_Q>  (170) 
0

>  <i_epik_Tot_abs_Q>  (170) 
0

>  <s_lp_Force_Field>  (170) 
OPLS3e

>  <r_lp_Energy>  (170) 
29.7191

>  <b_lp_Chiralities_Consistent>  (170) 
1

>  <s_lp_Variant>  (170) 
49:0-1

>  <s_i_glide_gridfile>  (170) 
pfpi4k_grid

>  <i_i_glide_lignum>  (170) 
42

>  <i_i_glide_rotatable_bonds>  (170) 
4

>  <r_i_docking_score>  (170) 
-3.51997

>  <r_i_glide_ligand_efficiency>  (170) 
-0.146665

>  <r_i_glide_ligand_efficiency_sa>  (170) 
-0.423056

>  <r_i_glide_ligand_efficiency_ln>  (170) 
-0.84249

>  <r_i_glide_gscore>  (170) 
-3.51997

>  <r_i_glide_lipo>  (170) 
-0.285954

>  <r_i_glide_hbond>  (170) 
-0.370408

>  <r_i_glide_metal>  (170) 
-0

>  <r_i_glide_rewards>  (170) 
-1.32334

>  <r_i_glide_evdw>  (170) 
-30.2394

>  <r_i_glide_ecoul>  (170) 
-4.4036

>  <r_i_glide_erotb>  (170) 
0.715892

>  <r_i_glide_esite>  (170) 
-0.083646

>  <r_i_glide_emodel>  (170) 
-40.2747

>  <r_i_glide_energy>  (170) 
-34.643

>  <r_i_glide_einternal>  (170) 
5.2359

>  <r_i_glide_intrahb_reward>  (170) 
-0

>  <i_i_glide_confnum>  (170) 
5

>  <i_i_glide_posenum>  (170) 
30

>  <r_i_glide_eff_state_penalty>  (170) 
0

>  <ligand_id>  (170) 
49

>  <original_smiles>  (170) 
O=C(Nc1cccnc1)N1CCC(n2ncc3nccnc32)CC1

>  <smiles>  (170) 
[H]c1nc2c([H])nn(C3([H])C([H])([H])C([H])([H])N(C(=O)N([H])c4c([H])nc([H])c([H])c4[H])C([H])([H])C3([H])[H])c2nc1[H]

$$$$
49:0:2
     RDKit          3D

 41 44  0  0  1  0  0  0  0  0999 V2000
    5.0120   -1.2125    1.8830 O   0  0  0  0  0  0  0  0  0  0  0  0
    3.9494   -0.7721    1.4274 C   0  0  0  0  0  0  0  0  0  0  0  0
    3.4712   -1.0882    0.2163 N   0  0  0  0  0  0  0  0  0  0  0  0
    4.0883   -1.7700   -0.8727 C   0  0  0  0  0  0  0  0  0  0  0  0
    5.2413   -2.5819   -0.7538 C   0  0  0  0  0  0  0  0  0  0  0  0
    5.7251   -3.2239   -1.9094 C   0  0  0  0  0  0  0  0  0  0  0  0
    5.0371   -3.0545   -3.1236 C   0  0  0  0  0  0  0  0  0  0  0  0
    3.9607   -2.2593   -3.2552 N   0  0  0  0  0  0  0  0  0  0  0  0
    3.4986   -1.6434   -2.1493 C   0  0  0  0  0  0  0  0  0  0  0  0
    3.1630    0.0981    2.1171 N   0  0  0  0  0  0  0  0  0  0  0  0
    2.0064    0.8453    1.5649 C   0  0  0  0  0  0  0  0  0  0  0  0
    0.7680    0.5966    2.4086 C   0  0  0  0  0  0  0  0  0  0  0  0
    1.0202    1.0198    3.8593 C   0  0  0  0  0  0  0  0  0  0  0  0
   -0.1320    0.7724    4.6912 N   0  0  0  0  0  0  0  0  0  0  0  0
   -0.7953   -0.4321    4.6006 N   0  0  0  0  0  0  0  0  0  0  0  0
   -1.7962   -0.3547    5.4503 C   0  0  0  0  0  0  0  0  0  0  0  0
   -1.7731    0.8706    6.1444 C   0  0  0  0  0  0  0  0  0  0  0  0
   -2.5588    1.3445    7.1140 N   0  0  0  0  0  0  0  0  0  0  0  0
   -2.2237    2.5758    7.5754 C   0  0  0  0  0  0  0  0  0  0  0  0
   -1.1298    3.3177    7.0789 C   0  0  0  0  0  0  0  0  0  0  0  0
   -0.3170    2.8545    6.0908 N   0  0  0  0  0  0  0  0  0  0  0  0
   -0.6792    1.6166    5.6540 C   0  0  0  0  0  0  0  0  0  0  0  0
    2.2820    0.3370    4.4185 C   0  0  0  0  0  0  0  0  0  0  0  0
    3.4873    0.5351    3.4880 C   0  0  0  0  0  0  0  0  0  0  0  0
    2.5600   -0.6879   -0.0013 H   0  0  0  0  0  0  0  0  0  0  0  0
    5.7477   -2.7381    0.1832 H   0  0  0  0  0  0  0  0  0  0  0  0
    6.6025   -3.8584   -1.8665 H   0  0  0  0  0  0  0  0  0  0  0  0
    5.3713   -3.5498   -4.0203 H   0  0  0  0  0  0  0  0  0  0  0  0
    2.6260   -1.0228   -2.3001 H   0  0  0  0  0  0  0  0  0  0  0  0
    2.2442    1.9064    1.5160 H   0  0  0  0  0  0  0  0  0  0  0  0
    1.7055    0.5749    0.5522 H   0  0  0  0  0  0  0  0  0  0  0  0
   -0.0730    1.1516    1.9865 H   0  0  0  0  0  0  0  0  0  0  0  0
    0.5198   -0.4653    2.3416 H   0  0  0  0  0  0  0  0  0  0  0  0
    1.1930    2.0967    3.8543 H   0  0  0  0  0  0  0  0  0  0  0  0
   -2.5261   -1.1369    5.6075 H   0  0  0  0  0  0  0  0  0  0  0  0
   -2.8565    2.9620    8.3546 H   0  0  0  0  0  0  0  0  0  0  0  0
   -0.9093    4.2994    7.4782 H   0  0  0  0  0  0  0  0  0  0  0  0
    2.5126    0.7375    5.4072 H   0  0  0  0  0  0  0  0  0  0  0  0
    2.0970   -0.7308    4.5491 H   0  0  0  0  0  0  0  0  0  0  0  0
    4.3416    0.0012    3.9042 H   0  0  0  0  0  0  0  0  0  0  0  0
    3.7781    1.5793    3.4526 H   0  0  0  0  0  0  0  0  0  0  0  0
  1  2  2  0
  2  3  1  0
  2 10  1  0
  3  4  1  0
  3 25  1  0
  4  9  1  0
  4  5  2  0
  5  6  1  0
  5 26  1  0
  6  7  2  0
  6 27  1  0
  7  8  1  0
  7 28  1  0
  8  9  2  0
  9 29  1  0
 10 24  1  0
 10 11  1  0
 11 12  1  0
 11 30  1  0
 11 31  1  0
 12 13  1  0
 12 32  1  0
 12 33  1  0
 13 14  1  0
 13 23  1  0
 13 34  1  0
 14 22  1  0
 14 15  1  0
 15 16  2  0
 16 17  1  0
 16 35  1  0
 17 22  2  0
 17 18  1  0
 18 19  2  0
 19 20  1  0
 19 36  1  0
 20 21  2  0
 20 37  1  0
 21 22  1  0
 23 24  1  0
 23 38  1  0
 23 39  1  0
 24 40  1  0
 24 41  1  0
M  END
>  <i_m_ct_stereo_status>  (171) 
1

>  <s_m_source_file>  (171) 
/var/tmp/pbs.5076255.sched01/tmpx9mnojvb/44r91_cmns.sdf

>  <i_m_source_file_index>  (171) 
42

>  <i_lp_mmshare_version>  (171) 
48012

>  <i_f3d_flags>  (171) 
0

>  <s_epik_input>  (171) 
W2NIXTFuW2NIXVtjSF1bY0hdYzFbTkhdQyg9TylOMltDSDJdW0NIMl1bQ0hdKFtDSDJdW0NIMl0yKW4obltjSF0zKWMoYzM0KW5bY0hdW2NIXW40

>  <s_epik_cmdline>  (171) 
J2VwaWtfcHl0aG9uJywgJy1waHQnLCAnMi4wJywgJy1waCcsICc3LjAnLCAnLXRuJywgJzgnLCAnLW1hJywgJzIwMCcsICctaW1hZScsICc8aW5maWxlLm1hZT4nLCAnLW9tYWUnLCAnPG91dGZpbGUubWFlPic=

>  <r_lp_tautomer_probability>  (171) 
1

>  <r_epik_Ionization_Penalty>  (171) 
0.00499991

>  <r_epik_Ionization_Penalty_Charging>  (171) 
0

>  <r_epik_Ionization_Penalty_Neutral>  (171) 
0.00499991

>  <r_epik_State_Penalty>  (171) 
0.00360715

>  <r_epik_Charging_Adjusted_Penalty>  (171) 
0.00360715

>  <i_epik_Tot_Q>  (171) 
0

>  <i_epik_Tot_abs_Q>  (171) 
0

>  <s_lp_Force_Field>  (171) 
OPLS3e

>  <r_lp_Energy>  (171) 
29.7191

>  <b_lp_Chiralities_Consistent>  (171) 
1

>  <s_lp_Variant>  (171) 
49:0-1

>  <s_i_glide_gridfile>  (171) 
pfpi4k_grid

>  <i_i_glide_lignum>  (171) 
42

>  <i_i_glide_rotatable_bonds>  (171) 
4

>  <r_i_docking_score>  (171) 
-3.34848

>  <r_i_glide_ligand_efficiency>  (171) 
-0.13952

>  <r_i_glide_ligand_efficiency_sa>  (171) 
-0.402445

>  <r_i_glide_ligand_efficiency_ln>  (171) 
-0.801444

>  <r_i_glide_gscore>  (171) 
-3.34848

>  <r_i_glide_lipo>  (171) 
-0.409268

>  <r_i_glide_hbond>  (171) 
-0.295672

>  <r_i_glide_metal>  (171) 
-0

>  <r_i_glide_rewards>  (171) 
-1.28082

>  <r_i_glide_evdw>  (171) 
-30.4525

>  <r_i_glide_ecoul>  (171) 
-3.10306

>  <r_i_glide_erotb>  (171) 
0.715892

>  <r_i_glide_esite>  (171) 
-0.0905234

>  <r_i_glide_emodel>  (171) 
-40.4295

>  <r_i_glide_energy>  (171) 
-33.5556

>  <r_i_glide_einternal>  (171) 
1.91424

>  <r_i_glide_intrahb_reward>  (171) 
-0

>  <i_i_glide_confnum>  (171) 
5

>  <i_i_glide_posenum>  (171) 
11

>  <r_i_glide_eff_state_penalty>  (171) 
0

>  <ligand_id>  (171) 
49

>  <original_smiles>  (171) 
O=C(Nc1cccnc1)N1CCC(n2ncc3nccnc32)CC1

>  <smiles>  (171) 
[H]c1nc2c([H])nn(C3([H])C([H])([H])C([H])([H])N(C(=O)N([H])c4c([H])nc([H])c([H])c4[H])C([H])([H])C3([H])[H])c2nc1[H]

$$$$
50:1:0
     RDKit          3D

 23 24  0  0  1  0  0  0  0  0999 V2000
    3.0671   -0.0858   -4.8805 C   0  0  0  0  0  0  0  0  0  0  0  0
    3.5732   -0.3437   -3.4604 C   0  0  0  0  0  0  0  0  0  0  0  0
    3.9262   -1.8196   -3.2082 C   0  0  2  0  0  0  0  0  0  0  0  0
    2.7621   -2.7445   -2.7939 C   0  0  0  0  0  0  0  0  0  0  0  0
    3.2890   -3.2177   -1.4871 N   0  0  2  0  0  0  0  0  0  0  0  0
    2.5148   -4.1672   -0.7379 O   0  0  0  0  0  0  0  0  0  0  0  0
    3.7710   -2.0659   -0.7286 C   0  0  0  0  0  0  0  0  0  0  0  0
    4.7103   -2.0596   -1.9416 C   0  0  1  0  0  0  0  0  0  0  0  0
    4.6990   -3.5599   -1.6481 C   0  0  0  0  0  0  0  0  0  0  0  0
    2.8392    0.9670   -5.0311 H   0  0  0  0  0  0  0  0  0  0  0  0
    2.1566   -0.6522   -5.0689 H   0  0  0  0  0  0  0  0  0  0  0  0
    3.8060   -0.3766   -5.6245 H   0  0  0  0  0  0  0  0  0  0  0  0
    4.4535    0.2822   -3.2933 H   0  0  0  0  0  0  0  0  0  0  0  0
    2.8295   -0.0046   -2.7438 H   0  0  0  0  0  0  0  0  0  0  0  0
    4.4767   -2.2225   -4.0577 H   0  0  0  0  0  0  0  0  0  0  0  0
    1.8150   -2.2284   -2.6724 H   0  0  0  0  0  0  0  0  0  0  0  0
    2.6203   -3.5643   -3.4951 H   0  0  0  0  0  0  0  0  0  0  0  0
    3.0688   -1.2305   -0.6895 H   0  0  0  0  0  0  0  0  0  0  0  0
    4.2237   -2.2616    0.2470 H   0  0  0  0  0  0  0  0  0  0  0  0
    5.6677   -1.5504   -1.8063 H   0  0  0  0  0  0  0  0  0  0  0  0
    5.2496   -3.8982   -0.7655 H   0  0  0  0  0  0  0  0  0  0  0  0
    4.9218   -4.1823   -2.5188 H   0  0  0  0  0  0  0  0  0  0  0  0
    2.5934   -4.9249   -1.3104 H   0  0  0  0  0  0  0  0  0  0  0  0
  1  2  1  0
  1 10  1  0
  1 11  1  0
  1 12  1  0
  2  3  1  0
  2 13  1  0
  2 14  1  0
  3  8  1  0
  3  4  1  0
  3 15  1  6
  4  5  1  0
  4 16  1  0
  4 17  1  0
  5  9  1  0
  5  6  1  1
  5  7  1  0
  6 23  1  0
  7  8  1  0
  7 18  1  0
  7 19  1  0
  8  9  1  0
  8 20  1  1
  9 21  1  0
  9 22  1  0
M  CHG  1   5   1
M  END
>  <i_m_ct_stereo_status>  (172) 
1

>  <s_m_source_file>  (172) 
/var/tmp/pbs.5076255.sched01/tmpx9mnojvb/44r91_cmns.sdf

>  <i_m_source_file_index>  (172) 
44

>  <i_lp_mmshare_version>  (172) 
48012

>  <i_f3d_flags>  (172) 
0

>  <s_epik_input>  (172) 
W0NIM11bQ0gyXVtDQEhdKFtDSDJdW05AK10xMltPLV0pW0NAQEhdKFtDSDJdMSlbQ0gyXTI=

>  <s_epik_cmdline>  (172) 
J2VwaWtfcHl0aG9uJywgJy1waHQnLCAnMi4wJywgJy1waCcsICc3LjAnLCAnLXRuJywgJzgnLCAnLW1hJywgJzIwMCcsICctaW1hZScsICc8aW5maWxlLm1hZT4nLCAnLW9tYWUnLCAnPG91dGZpbGUubWFlPic=

>  <r_epik_Ionization_Penalty>  (172) 
0.886605

>  <r_epik_Ionization_Penalty_Charging>  (172) 
0

>  <r_epik_Ionization_Penalty_Neutral>  (172) 
0.886605

>  <r_epik_State_Penalty>  (172) 
0.925293

>  <r_epik_Charging_Adjusted_Penalty>  (172) 
0.925293

>  <i_epik_Tot_Q>  (172) 
1

>  <i_epik_Tot_abs_Q>  (172) 
1

>  <s_epik_Chemistry_Notes>  (172) 
This compound has a N-S or N-O group and may undergo hydrolysis at high or low pH.

>  <s_lp_Force_Field>  (172) 
OPLS3e

>  <r_lp_Energy>  (172) 
35.6274

>  <b_lp_Chiralities_Consistent>  (172) 
1

>  <s_lp_Variant>  (172) 
50:0-2

>  <s_i_glide_gridfile>  (172) 
pfpi4k_grid

>  <i_i_glide_lignum>  (172) 
44

>  <i_i_glide_rotatable_bonds>  (172) 
2

>  <r_i_docking_score>  (172) 
-4.78131

>  <r_i_glide_ligand_efficiency>  (172) 
-0.531257

>  <r_i_glide_ligand_efficiency_sa>  (172) 
-1.10506

>  <r_i_glide_ligand_efficiency_ln>  (172) 
-1.49546

>  <r_i_glide_gscore>  (172) 
-4.78131

>  <r_i_glide_lipo>  (172) 
-0.480227

>  <r_i_glide_hbond>  (172) 
-0.32

>  <r_i_glide_metal>  (172) 
-0

>  <r_i_glide_rewards>  (172) 
-2.25

>  <r_i_glide_evdw>  (172) 
-12.6355

>  <r_i_glide_ecoul>  (172) 
-7.32873

>  <r_i_glide_erotb>  (172) 
0

>  <r_i_glide_esite>  (172) 
0

>  <r_i_glide_emodel>  (172) 
-26.805

>  <r_i_glide_energy>  (172) 
-19.9643

>  <r_i_glide_einternal>  (172) 
0.254691

>  <r_i_glide_intrahb_reward>  (172) 
-0

>  <i_i_glide_confnum>  (172) 
1

>  <i_i_glide_posenum>  (172) 
40

>  <r_i_glide_eff_state_penalty>  (172) 
0

>  <ligand_id>  (172) 
50

>  <original_smiles>  (172) 
CCC1C[N+]2([O-])CC1C2

>  <smiles>  (172) 
[H]O[N+]12C([H])([H])C([H])(C([H])([H])C([H])([H])[H])C([H])(C1([H])[H])C2([H])[H]

$$$$
50:1:1
     RDKit          3D

 23 24  0  0  1  0  0  0  0  0999 V2000
    3.8164    0.2631   -3.7221 C   0  0  0  0  0  0  0  0  0  0  0  0
    4.0440   -1.0131   -4.5466 C   0  0  0  0  0  0  0  0  0  0  0  0
    4.0677   -2.3758   -3.7905 C   0  0  2  0  0  0  0  0  0  0  0  0
    2.7261   -3.0601   -3.5779 C   0  0  0  0  0  0  0  0  0  0  0  0
    2.7831   -3.2247   -2.1047 N   0  0  2  0  0  0  0  0  0  0  0  0
    1.6461   -3.8544   -1.4921 O   0  0  0  0  0  0  0  0  0  0  0  0
    3.2012   -1.9692   -1.4854 C   0  0  0  0  0  0  0  0  0  0  0  0
    4.4263   -2.3352   -2.3265 C   0  0  1  0  0  0  0  0  0  0  0  0
    4.1262   -3.7134   -1.7228 C   0  0  0  0  0  0  0  0  0  0  0  0
    3.9372    1.1665   -4.3136 H   0  0  0  0  0  0  0  0  0  0  0  0
    4.5278    0.3386   -2.9014 H   0  0  0  0  0  0  0  0  0  0  0  0
    2.8124    0.2661   -3.3095 H   0  0  0  0  0  0  0  0  0  0  0  0
    3.3147   -1.0371   -5.3570 H   0  0  0  0  0  0  0  0  0  0  0  0
    5.0117   -0.9085   -5.0347 H   0  0  0  0  0  0  0  0  0  0  0  0
    4.7403   -3.0634   -4.3155 H   0  0  0  0  0  0  0  0  0  0  0  0
    1.8743   -2.4409   -3.9118 H   0  0  0  0  0  0  0  0  0  0  0  0
    2.6712   -4.0348   -4.0983 H   0  0  0  0  0  0  0  0  0  0  0  0
    2.6178   -1.1348   -1.8452 H   0  0  0  0  0  0  0  0  0  0  0  0
    3.3483   -1.9807   -0.3978 H   0  0  0  0  0  0  0  0  0  0  0  0
    5.3801   -1.8957   -2.0294 H   0  0  0  0  0  0  0  0  0  0  0  0
    4.3215   -3.8358   -0.6481 H   0  0  0  0  0  0  0  0  0  0  0  0
    4.5348   -4.5451   -2.3113 H   0  0  0  0  0  0  0  0  0  0  0  0
    1.2022   -4.1832   -2.2717 H   0  0  0  0  0  0  0  0  0  0  0  0
  1  2  1  0
  1 10  1  0
  1 11  1  0
  1 12  1  0
  2  3  1  0
  2 13  1  0
  2 14  1  0
  3  8  1  0
  3  4  1  0
  3 15  1  6
  4  5  1  0
  4 16  1  0
  4 17  1  0
  5  9  1  0
  5  6  1  1
  5  7  1  0
  6 23  1  0
  7  8  1  0
  7 18  1  0
  7 19  1  0
  8  9  1  0
  8 20  1  6
  9 21  1  0
  9 22  1  0
M  CHG  1   5   1
M  END
>  <i_m_ct_stereo_status>  (173) 
1

>  <s_m_source_file>  (173) 
/var/tmp/pbs.5076255.sched01/tmpx9mnojvb/44r91_cmns.sdf

>  <i_m_source_file_index>  (173) 
44

>  <i_lp_mmshare_version>  (173) 
48012

>  <i_f3d_flags>  (173) 
0

>  <s_epik_input>  (173) 
W0NIM11bQ0gyXVtDQEhdKFtDSDJdW05AK10xMltPLV0pW0NAQEhdKFtDSDJdMSlbQ0gyXTI=

>  <s_epik_cmdline>  (173) 
J2VwaWtfcHl0aG9uJywgJy1waHQnLCAnMi4wJywgJy1waCcsICc3LjAnLCAnLXRuJywgJzgnLCAnLW1hJywgJzIwMCcsICctaW1hZScsICc8aW5maWxlLm1hZT4nLCAnLW9tYWUnLCAnPG91dGZpbGUubWFlPic=

>  <r_epik_Ionization_Penalty>  (173) 
0.886605

>  <r_epik_Ionization_Penalty_Charging>  (173) 
0

>  <r_epik_Ionization_Penalty_Neutral>  (173) 
0.886605

>  <r_epik_State_Penalty>  (173) 
0.925293

>  <r_epik_Charging_Adjusted_Penalty>  (173) 
0.925293

>  <i_epik_Tot_Q>  (173) 
1

>  <i_epik_Tot_abs_Q>  (173) 
1

>  <s_epik_Chemistry_Notes>  (173) 
This compound has a N-S or N-O group and may undergo hydrolysis at high or low pH.

>  <s_lp_Force_Field>  (173) 
OPLS3e

>  <r_lp_Energy>  (173) 
35.6274

>  <b_lp_Chiralities_Consistent>  (173) 
1

>  <s_lp_Variant>  (173) 
50:0-2

>  <s_i_glide_gridfile>  (173) 
pfpi4k_grid

>  <i_i_glide_lignum>  (173) 
44

>  <i_i_glide_rotatable_bonds>  (173) 
2

>  <r_i_docking_score>  (173) 
-4.47647

>  <r_i_glide_ligand_efficiency>  (173) 
-0.497386

>  <r_i_glide_ligand_efficiency_sa>  (173) 
-1.0346

>  <r_i_glide_ligand_efficiency_ln>  (173) 
-1.40011

>  <r_i_glide_gscore>  (173) 
-4.47647

>  <r_i_glide_lipo>  (173) 
-0.412601

>  <r_i_glide_hbond>  (173) 
-0.264425

>  <r_i_glide_metal>  (173) 
-0

>  <r_i_glide_rewards>  (173) 
-2.25

>  <r_i_glide_evdw>  (173) 
-11.6202

>  <r_i_glide_ecoul>  (173) 
-6.45624

>  <r_i_glide_erotb>  (173) 
0

>  <r_i_glide_esite>  (173) 
0

>  <r_i_glide_emodel>  (173) 
-22.1376

>  <r_i_glide_energy>  (173) 
-18.0765

>  <r_i_glide_einternal>  (173) 
4.5996

>  <r_i_glide_intrahb_reward>  (173) 
-0

>  <i_i_glide_confnum>  (173) 
1

>  <i_i_glide_posenum>  (173) 
36

>  <r_i_glide_eff_state_penalty>  (173) 
0

>  <ligand_id>  (173) 
50

>  <original_smiles>  (173) 
CCC1C[N+]2([O-])CC1C2

>  <smiles>  (173) 
[H]O[N+]12C([H])([H])C([H])(C([H])([H])C([H])([H])[H])C([H])(C1([H])[H])C2([H])[H]

$$$$
51:0:0
     RDKit          3D

 74 80  0  0  1  0  0  0  0  0999 V2000
    4.3372   -8.8508    5.1469 C   0  0  0  0  0  0  0  0  0  0  0  0
    4.5820   -7.7059    4.4966 C   0  0  0  0  0  0  0  0  0  0  0  0
    5.0069   -7.5604    3.0573 C   0  0  0  0  0  0  0  0  0  0  0  0
    5.5215   -6.0843    2.9245 C   0  0  1  0  0  0  0  0  0  0  0  0
    6.7976   -6.0679    2.0472 C   0  0  0  0  0  0  0  0  0  0  0  0
    6.5574   -5.4325    0.6769 C   0  0  0  0  0  0  0  0  0  0  0  0
    6.1609   -3.9811    0.9430 C   0  0  1  0  0  0  0  0  0  0  0  0
    6.1219   -3.1185   -0.3211 C   0  0  2  0  0  0  0  0  0  0  0  0
    6.5126   -1.7188    0.1553 C   0  0  0  0  0  0  0  0  0  0  0  0
    5.6834   -1.2366    1.3723 C   0  0  0  0  0  0  0  0  0  0  0  0
    5.0233   -2.2856    2.3650 C   0  0  1  0  0  0  0  0  0  0  0  0
    3.9113   -1.5081    3.2274 C   0  0  1  0  0  0  0  0  0  0  0  0
    3.8563   -2.2105    4.5787 C   0  0  0  0  0  0  0  0  0  0  0  0
    4.3099   -0.0307    3.6173 C   0  0  0  0  0  0  0  0  0  0  0  0
    3.2724    0.6626    4.3435 O   0  0  0  0  0  0  0  0  0  0  0  0
    2.1232    0.8207    3.5449 C   0  0  2  0  0  0  0  0  0  0  0  0
    1.0162    1.4695    4.0908 O   0  0  0  0  0  0  0  0  0  0  0  0
   -0.1305    0.8809    3.5041 C   0  0  0  0  0  0  0  0  0  0  0  0
   -1.1843    0.5955    4.5978 C   0  0  0  0  0  0  0  0  0  0  0  0
   -0.7350    1.8509    2.4732 C   0  0  0  0  0  0  0  0  0  0  0  0
    0.2291   -0.3261    2.8730 O   0  0  0  0  0  0  0  0  0  0  0  0
    1.5398   -0.5508    3.3647 C   0  0  1  0  0  0  0  0  0  0  0  0
    2.5038   -1.4256    2.5369 C   0  0  1  0  0  0  0  0  0  0  0  0
    2.6061   -0.8406    1.2342 O   0  0  0  0  0  0  0  0  0  0  0  0
    4.7786   -3.7325    1.6624 C   0  0  1  0  0  0  0  0  0  0  0  0
    3.8806   -3.5552    0.4212 C   0  0  0  0  0  0  0  0  0  0  0  0
    2.6687   -3.8046    0.4240 O   0  0  0  0  0  0  0  0  0  0  0  0
    4.6745   -3.1753   -0.7429 C   0  0  0  0  0  0  0  0  0  0  0  0
    4.1757   -3.0424   -1.9860 C   0  0  0  0  0  0  0  0  0  0  0  0
    4.3831   -5.1305    2.4029 C   0  0  2  0  0  0  0  0  0  0  0  0
    3.0892   -5.2963    3.2780 C   0  0  0  0  0  0  0  0  0  0  0  0
    3.2813   -5.6173    4.7977 C   0  0  0  0  0  0  0  0  0  0  0  0
    4.6059   -6.3371    5.1127 C   0  0  2  0  0  0  0  0  0  0  0  0
    5.7920   -5.6928    4.3862 C   0  0  0  0  0  0  0  0  0  0  0  0
    4.0900   -8.8398    6.2008 H   0  0  0  0  0  0  0  0  0  0  0  0
    4.3879   -9.8025    4.6389 H   0  0  0  0  0  0  0  0  0  0  0  0
    5.7739   -8.3109    2.8761 H   0  0  0  0  0  0  0  0  0  0  0  0
    4.1795   -7.7944    2.3877 H   0  0  0  0  0  0  0  0  0  0  0  0
    7.5855   -5.5066    2.5557 H   0  0  0  0  0  0  0  0  0  0  0  0
    7.2220   -7.0628    1.8975 H   0  0  0  0  0  0  0  0  0  0  0  0
    7.4809   -5.4700    0.0918 H   0  0  0  0  0  0  0  0  0  0  0  0
    5.8052   -5.9727    0.0984 H   0  0  0  0  0  0  0  0  0  0  0  0
    6.9802   -3.6267    1.5618 H   0  0  0  0  0  0  0  0  0  0  0  0
    6.7871   -3.4697   -1.1201 H   0  0  0  0  0  0  0  0  0  0  0  0
    7.5770   -1.6940    0.3915 H   0  0  0  0  0  0  0  0  0  0  0  0
    6.3660   -1.0145   -0.6605 H   0  0  0  0  0  0  0  0  0  0  0  0
    6.3403   -0.5734    1.9399 H   0  0  0  0  0  0  0  0  0  0  0  0
    4.9152   -0.6167    0.9303 H   0  0  0  0  0  0  0  0  0  0  0  0
    5.8327   -2.5072    3.0604 H   0  0  0  0  0  0  0  0  0  0  0  0
    3.1449   -1.7978    5.2912 H   0  0  0  0  0  0  0  0  0  0  0  0
    4.8138   -2.2559    5.1050 H   0  0  0  0  0  0  0  0  0  0  0  0
    3.5636   -3.2014    4.3627 H   0  0  0  0  0  0  0  0  0  0  0  0
    5.2101   -0.0441    4.2487 H   0  0  0  0  0  0  0  0  0  0  0  0
    4.5653    0.5787    2.7310 H   0  0  0  0  0  0  0  0  0  0  0  0
    2.3590    1.3119    2.5863 H   0  0  0  0  0  0  0  0  0  0  0  0
   -0.8241   -0.1160    5.3466 H   0  0  0  0  0  0  0  0  0  0  0  0
   -2.0413    0.1671    4.0872 H   0  0  0  0  0  0  0  0  0  0  0  0
   -1.4856    1.5285    5.0667 H   0  0  0  0  0  0  0  0  0  0  0  0
   -0.0377    2.0795    1.6620 H   0  0  0  0  0  0  0  0  0  0  0  0
   -1.0263    2.7665    2.9751 H   0  0  0  0  0  0  0  0  0  0  0  0
   -1.6210    1.3746    2.0638 H   0  0  0  0  0  0  0  0  0  0  0  0
    1.4029   -0.9735    4.3587 H   0  0  0  0  0  0  0  0  0  0  0  0
    2.0599   -2.4243    2.4392 H   0  0  0  0  0  0  0  0  0  0  0  0
    1.8265   -1.0398    0.7218 H   0  0  0  0  0  0  0  0  0  0  0  0
    4.8044   -2.8059   -2.8280 H   0  0  0  0  0  0  0  0  0  0  0  0
    3.1199   -3.1602   -2.1876 H   0  0  0  0  0  0  0  0  0  0  0  0
    4.0599   -5.7186    1.5395 H   0  0  0  0  0  0  0  0  0  0  0  0
    2.3820   -4.4906    3.1282 H   0  0  0  0  0  0  0  0  0  0  0  0
    2.5496   -6.1560    2.8744 H   0  0  0  0  0  0  0  0  0  0  0  0
    3.2238   -4.7488    5.4417 H   0  0  0  0  0  0  0  0  0  0  0  0
    2.4473   -6.2393    5.1352 H   0  0  0  0  0  0  0  0  0  0  0  0
    4.7761   -6.3966    6.1877 H   0  0  0  0  0  0  0  0  0  0  0  0
    6.7268   -6.1424    4.7291 H   0  0  0  0  0  0  0  0  0  0  0  0
    5.8635   -4.6161    4.5298 H   0  0  0  0  0  0  0  0  0  0  0  0
  1  2  2  0
  1 35  1  0
  1 36  1  0
  2 33  1  0
  2  3  1  0
  4  3  1  1
  3 37  1  0
  3 38  1  0
  4 30  1  0
  4 34  1  0
  4  5  1  0
  5  6  1  0
  5 39  1  0
  5 40  1  0
  6  7  1  0
  6 41  1  0
  6 42  1  0
  7 25  1  0
  7  8  1  0
  7 43  1  1
  8 28  1  0
  8  9  1  0
  8 44  1  6
  9 10  1  0
  9 45  1  0
  9 46  1  0
 10 11  1  0
 10 47  1  0
 10 48  1  0
 11 12  1  0
 11 25  1  0
 11 49  1  1
 12 23  1  0
 12 13  1  1
 12 14  1  0
 13 50  1  0
 13 51  1  0
 13 52  1  0
 14 15  1  0
 14 53  1  0
 14 54  1  0
 15 16  1  0
 16 22  1  0
 16 17  1  0
 16 55  1  6
 17 18  1  0
 18 19  1  0
 18 20  1  0
 18 21  1  0
 19 56  1  0
 19 57  1  0
 19 58  1  0
 20 59  1  0
 20 60  1  0
 20 61  1  0
 21 22  1  0
 22 23  1  0
 22 62  1  1
 23 24  1  0
 23 63  1  6
 24 64  1  0
 25 26  1  6
 25 30  1  0
 26 27  2  0
 26 28  1  0
 28 29  2  0
 29 65  1  0
 29 66  1  0
 30 31  1  0
 30 67  1  6
 31 32  1  0
 31 68  1  0
 31 69  1  0
 32 33  1  0
 32 70  1  0
 32 71  1  0
 33 34  1  0
 33 72  1  1
 34 73  1  0
 34 74  1  0
M  END
>  <i_m_ct_stereo_status>  (174) 
1

>  <s_m_source_file>  (174) 
/var/tmp/pbs.5076255.sched01/tmple0dc7g8/88jbw3zpwn.sdf

>  <i_m_source_file_index>  (174) 
1

>  <i_lp_mmshare_version>  (174) 
48012

>  <i_f3d_flags>  (174) 
0

>  <s_epik_input>  (174) 
W0NIMl09QyhbQ0gyXTEpW0NAQEhdKFtDSDJdMilbQ0gyXVtDSDJdW0NASF0oW0NAXTEyMylbQ0BdNDVbQ0BASF0oW0NIMl1bQ0gyXTMpW0NAQEhdKEMoQzU9Tyk9W0NIMl0pW0NIMl1bQ0gyXVtDQEhdNFtDQEBdKFtDSDNdKShbQ0gyXU82KVtDQEhdKFtPSF0pW0NAQEhdKFtDQEhdNjcpT0MoTzcpKFtDSDNdKVtDSDNd

>  <s_epik_cmdline>  (174) 
J2VwaWtfcHl0aG9uJywgJy1waHQnLCAnMi4wJywgJy1waCcsICc3LjAnLCAnLXRuJywgJzgnLCAnLW1hJywgJzIwMCcsICctaW1hZScsICc8aW5maWxlLm1hZT4nLCAnLW9tYWUnLCAnPG91dGZpbGUubWFlPic=

>  <r_lp_tautomer_probability>  (174) 
1

>  <r_epik_Ionization_Penalty>  (174) 
2.26521e-07

>  <r_epik_Ionization_Penalty_Charging>  (174) 
0

>  <r_epik_Ionization_Penalty_Neutral>  (174) 
2.26521e-07

>  <r_epik_State_Penalty>  (174) 
-0

>  <r_epik_Charging_Adjusted_Penalty>  (174) 
0

>  <i_epik_Tot_Q>  (174) 
0

>  <i_epik_Tot_abs_Q>  (174) 
0

>  <s_epik_Chemistry_Notes>  (174) 
This compound contains an acetal/aminal-like group ( X-CH(R)-Y where X, Y are N, S, or O) that may be acid/base labile, releasing an aldehyde.

>  <s_lp_Force_Field>  (174) 
OPLS3e

>  <r_lp_Energy>  (174) 
103.619

>  <b_lp_Chiralities_Consistent>  (174) 
1

>  <s_lp_Variant>  (174) 
51:0-1

>  <s_i_glide_gridfile>  (174) 
pfpi4k_grid

>  <i_i_glide_lignum>  (174) 
1

>  <i_i_glide_rotatable_bonds>  (174) 
2

>  <r_i_docking_score>  (174) 
-2.5609

>  <r_i_glide_ligand_efficiency>  (174) 
-0.0753206

>  <r_i_glide_ligand_efficiency_sa>  (174) 
-0.24401

>  <r_i_glide_ligand_efficiency_ln>  (174) 
-0.565775

>  <r_i_glide_gscore>  (174) 
-2.5609

>  <r_i_glide_lipo>  (174) 
-0.595155

>  <r_i_glide_hbond>  (174) 
0

>  <r_i_glide_metal>  (174) 
-0

>  <r_i_glide_rewards>  (174) 
-0.225343

>  <r_i_glide_evdw>  (174) 
-30.4996

>  <r_i_glide_ecoul>  (174) 
-1.84895

>  <r_i_glide_erotb>  (174) 
0.0919422

>  <r_i_glide_esite>  (174) 
-0.0300234

>  <r_i_glide_emodel>  (174) 
-31.9887

>  <r_i_glide_energy>  (174) 
-32.3485

>  <r_i_glide_einternal>  (174) 
9.83996

>  <r_i_glide_intrahb_reward>  (174) 
-0

>  <i_i_glide_confnum>  (174) 
3

>  <i_i_glide_posenum>  (174) 
5

>  <r_i_glide_eff_state_penalty>  (174) 
0

>  <ligand_id>  (174) 
51

>  <original_smiles>  (174) 
C=C1CC23CCC4C5CCC(C6(C)COC7OC(C)(C)OC7C6O)C4(C(=O)C5=C)C2CCC1C3

>  <smiles>  (174) 
[H]OC1([H])C2([H])OC(C([H])([H])[H])(C([H])([H])[H])OC2([H])OC([H])([H])C1(C([H])([H])[H])C1([H])C([H])([H])C([H])([H])C2([H])C(=C([H])[H])C(=O)C13C2([H])C([H])([H])C([H])([H])C12C([H])([H])C(=C([H])[H])C([H])(C([H])([H])C([H])([H])C31[H])C2([H])[H]

$$$$
51:0:1
     RDKit          3D

 74 80  0  0  1  0  0  0  0  0999 V2000
    0.2369  -10.1059    3.4057 C   0  0  0  0  0  0  0  0  0  0  0  0
    1.0978   -9.0829    3.2026 C   0  0  0  0  0  0  0  0  0  0  0  0
    2.0425   -8.9478    2.0494 C   0  0  0  0  0  0  0  0  0  0  0  0
    3.0444   -7.8264    2.4929 C   0  0  1  0  0  0  0  0  0  0  0  0
    4.4715   -8.2248    2.0547 C   0  0  0  0  0  0  0  0  0  0  0  0
    4.9881   -7.3718    0.9018 C   0  0  0  0  0  0  0  0  0  0  0  0
    5.0726   -5.9460    1.4274 C   0  0  1  0  0  0  0  0  0  0  0  0
    5.8108   -4.9842    0.5007 C   0  0  2  0  0  0  0  0  0  0  0  0
    6.4608   -3.9640    1.4323 C   0  0  0  0  0  0  0  0  0  0  0  0
    5.4461   -3.3421    2.4406 C   0  0  0  0  0  0  0  0  0  0  0  0
    4.1602   -4.1476    2.8963 C   0  0  1  0  0  0  0  0  0  0  0  0
    3.1587   -3.0795    3.5770 C   0  0  1  0  0  0  0  0  0  0  0  0
    2.3438   -3.8824    4.6095 C   0  0  0  0  0  0  0  0  0  0  0  0
    3.8597   -1.9775    4.4625 C   0  0  0  0  0  0  0  0  0  0  0  0
    2.9021   -1.0614    5.0376 O   0  0  0  0  0  0  0  0  0  0  0  0
    2.3287   -0.2890    4.0138 C   0  0  2  0  0  0  0  0  0  0  0  0
    1.4017    0.6824    4.4103 O   0  0  0  0  0  0  0  0  0  0  0  0
    0.4408    0.7319    3.3644 C   0  0  0  0  0  0  0  0  0  0  0  0
   -0.9776    0.7459    3.9711 C   0  0  0  0  0  0  0  0  0  0  0  0
    0.6796    1.9921    2.5230 C   0  0  0  0  0  0  0  0  0  0  0  0
    0.5663   -0.4105    2.5107 O   0  0  0  0  0  0  0  0  0  0  0  0
    1.3992   -1.2455    3.2826 C   0  0  1  0  0  0  0  0  0  0  0  0
    2.2470   -2.3091    2.5587 C   0  0  1  0  0  0  0  0  0  0  0  0
    2.9613   -1.5694    1.5583 O   0  0  0  0  0  0  0  0  0  0  0  0
    3.7022   -5.2435    1.7715 C   0  0  1  0  0  0  0  0  0  0  0  0
    3.4688   -4.5418    0.4335 C   0  0  0  0  0  0  0  0  0  0  0  0
    2.3122   -4.2542    0.0046 O   0  0  0  0  0  0  0  0  0  0  0  0
    4.6960   -4.3569   -0.3184 C   0  0  0  0  0  0  0  0  0  0  0  0
    4.7929   -3.8436   -1.5565 C   0  0  0  0  0  0  0  0  0  0  0  0
    2.5911   -6.4258    1.9576 C   0  0  2  0  0  0  0  0  0  0  0  0
    1.0862   -6.1606    2.3351 C   0  0  0  0  0  0  0  0  0  0  0  0
    0.5801   -6.7220    3.7033 C   0  0  0  0  0  0  0  0  0  0  0  0
    1.3518   -7.9720    4.1670 C   0  0  2  0  0  0  0  0  0  0  0  0
    2.8675   -7.7907    4.0135 C   0  0  0  0  0  0  0  0  0  0  0  0
   -0.3397  -10.1246    4.3091 H   0  0  0  0  0  0  0  0  0  0  0  0
    0.1507  -10.9005    2.6934 H   0  0  0  0  0  0  0  0  0  0  0  0
    2.4997   -9.9269    1.8945 H   0  0  0  0  0  0  0  0  0  0  0  0
    1.4883   -8.7006    1.1414 H   0  0  0  0  0  0  0  0  0  0  0  0
    5.1539   -8.1468    2.9057 H   0  0  0  0  0  0  0  0  0  0  0  0
    4.5337   -9.2661    1.7386 H   0  0  0  0  0  0  0  0  0  0  0  0
    5.9917   -7.7074    0.6670 H   0  0  0  0  0  0  0  0  0  0  0  0
    4.3746   -7.4566    0.0016 H   0  0  0  0  0  0  0  0  0  0  0  0
    5.6595   -6.0544    2.3345 H   0  0  0  0  0  0  0  0  0  0  0  0
    6.5493   -5.4716   -0.1373 H   0  0  0  0  0  0  0  0  0  0  0  0
    7.2941   -4.4428    1.9595 H   0  0  0  0  0  0  0  0  0  0  0  0
    6.9055   -3.1614    0.8404 H   0  0  0  0  0  0  0  0  0  0  0  0
    6.0072   -3.1058    3.3461 H   0  0  0  0  0  0  0  0  0  0  0  0
    5.1890   -2.3858    1.9891 H   0  0  0  0  0  0  0  0  0  0  0  0
    4.5492   -4.7919    3.6920 H   0  0  0  0  0  0  0  0  0  0  0  0
    1.6133   -3.3025    5.1774 H   0  0  0  0  0  0  0  0  0  0  0  0
    2.9594   -4.4207    5.3469 H   0  0  0  0  0  0  0  0  0  0  0  0
    1.8182   -4.6111    4.0321 H   0  0  0  0  0  0  0  0  0  0  0  0
    4.3489   -2.4515    5.3054 H   0  0  0  0  0  0  0  0  0  0  0  0
    4.6348   -1.4183    3.9256 H   0  0  0  0  0  0  0  0  0  0  0  0
    3.0733    0.1964    3.3424 H   0  0  0  0  0  0  0  0  0  0  0  0
   -1.2155   -0.1420    4.5539 H   0  0  0  0  0  0  0  0  0  0  0  0
   -1.6613    0.8260    3.1421 H   0  0  0  0  0  0  0  0  0  0  0  0
   -1.0784    1.6454    4.5703 H   0  0  0  0  0  0  0  0  0  0  0  0
    1.6533    2.0342    2.0421 H   0  0  0  0  0  0  0  0  0  0  0  0
    0.5308    2.8553    3.1595 H   0  0  0  0  0  0  0  0  0  0  0  0
   -0.0953    2.0065    1.7750 H   0  0  0  0  0  0  0  0  0  0  0  0
    0.7423   -1.6828    4.0454 H   0  0  0  0  0  0  0  0  0  0  0  0
    1.5360   -2.9699    2.0818 H   0  0  0  0  0  0  0  0  0  0  0  0
    2.3652   -1.3900    0.8633 H   0  0  0  0  0  0  0  0  0  0  0  0
    5.7313   -3.7812   -2.0909 H   0  0  0  0  0  0  0  0  0  0  0  0
    3.9087   -3.4829   -2.0730 H   0  0  0  0  0  0  0  0  0  0  0  0
    2.4346   -6.6862    0.9059 H   0  0  0  0  0  0  0  0  0  0  0  0
    0.8613   -5.1043    2.2598 H   0  0  0  0  0  0  0  0  0  0  0  0
    0.4761   -6.6373    1.5551 H   0  0  0  0  0  0  0  0  0  0  0  0
    0.6193   -5.9879    4.5085 H   0  0  0  0  0  0  0  0  0  0  0  0
   -0.4774   -6.9818    3.5995 H   0  0  0  0  0  0  0  0  0  0  0  0
    1.0782   -8.2595    5.1814 H   0  0  0  0  0  0  0  0  0  0  0  0
    3.3843   -8.6373    4.4658 H   0  0  0  0  0  0  0  0  0  0  0  0
    3.2558   -6.8795    4.4630 H   0  0  0  0  0  0  0  0  0  0  0  0
  1  2  2  0
  1 35  1  0
  1 36  1  0
  2 33  1  0
  2  3  1  0
  4  3  1  6
  3 37  1  0
  3 38  1  0
  4 30  1  0
  4 34  1  0
  4  5  1  0
  5  6  1  0
  5 39  1  0
  5 40  1  0
  6  7  1  0
  6 41  1  0
  6 42  1  0
  7 25  1  0
  7  8  1  0
  7 43  1  1
  8 28  1  0
  8  9  1  0
  8 44  1  6
  9 10  1  0
  9 45  1  0
  9 46  1  0
 10 11  1  0
 10 47  1  0
 10 48  1  0
 11 12  1  0
 11 25  1  0
 11 49  1  1
 12 23  1  0
 12 13  1  1
 12 14  1  0
 13 50  1  0
 13 51  1  0
 13 52  1  0
 14 15  1  0
 14 53  1  0
 14 54  1  0
 15 16  1  0
 16 22  1  0
 16 17  1  0
 16 55  1  6
 17 18  1  0
 18 19  1  0
 18 20  1  0
 18 21  1  0
 19 56  1  0
 19 57  1  0
 19 58  1  0
 20 59  1  0
 20 60  1  0
 20 61  1  0
 21 22  1  0
 22 23  1  0
 22 62  1  1
 23 24  1  0
 23 63  1  6
 24 64  1  0
 25 26  1  6
 25 30  1  0
 26 27  2  0
 26 28  1  0
 28 29  2  0
 29 65  1  0
 29 66  1  0
 30 31  1  0
 30 67  1  6
 31 32  1  0
 31 68  1  0
 31 69  1  0
 32 33  1  0
 32 70  1  0
 32 71  1  0
 33 34  1  0
 33 72  1  1
 34 73  1  0
 34 74  1  0
M  END
>  <i_m_ct_stereo_status>  (175) 
1

>  <s_m_source_file>  (175) 
/var/tmp/pbs.5076255.sched01/tmple0dc7g8/88jbw3zpwn.sdf

>  <i_m_source_file_index>  (175) 
1

>  <i_lp_mmshare_version>  (175) 
48012

>  <i_f3d_flags>  (175) 
0

>  <s_epik_input>  (175) 
W0NIMl09QyhbQ0gyXTEpW0NAQEhdKFtDSDJdMilbQ0gyXVtDSDJdW0NASF0oW0NAXTEyMylbQ0BdNDVbQ0BASF0oW0NIMl1bQ0gyXTMpW0NAQEhdKEMoQzU9Tyk9W0NIMl0pW0NIMl1bQ0gyXVtDQEhdNFtDQEBdKFtDSDNdKShbQ0gyXU82KVtDQEhdKFtPSF0pW0NAQEhdKFtDQEhdNjcpT0MoTzcpKFtDSDNdKVtDSDNd

>  <s_epik_cmdline>  (175) 
J2VwaWtfcHl0aG9uJywgJy1waHQnLCAnMi4wJywgJy1waCcsICc3LjAnLCAnLXRuJywgJzgnLCAnLW1hJywgJzIwMCcsICctaW1hZScsICc8aW5maWxlLm1hZT4nLCAnLW9tYWUnLCAnPG91dGZpbGUubWFlPic=

>  <r_lp_tautomer_probability>  (175) 
1

>  <r_epik_Ionization_Penalty>  (175) 
2.26521e-07

>  <r_epik_Ionization_Penalty_Charging>  (175) 
0

>  <r_epik_Ionization_Penalty_Neutral>  (175) 
2.26521e-07

>  <r_epik_State_Penalty>  (175) 
-0

>  <r_epik_Charging_Adjusted_Penalty>  (175) 
0

>  <i_epik_Tot_Q>  (175) 
0

>  <i_epik_Tot_abs_Q>  (175) 
0

>  <s_epik_Chemistry_Notes>  (175) 
This compound contains an acetal/aminal-like group ( X-CH(R)-Y where X, Y are N, S, or O) that may be acid/base labile, releasing an aldehyde.

>  <s_lp_Force_Field>  (175) 
OPLS3e

>  <r_lp_Energy>  (175) 
103.619

>  <b_lp_Chiralities_Consistent>  (175) 
1

>  <s_lp_Variant>  (175) 
51:0-1

>  <s_i_glide_gridfile>  (175) 
pfpi4k_grid

>  <i_i_glide_lignum>  (175) 
1

>  <i_i_glide_rotatable_bonds>  (175) 
2

>  <r_i_docking_score>  (175) 
-2.27762

>  <r_i_glide_ligand_efficiency>  (175) 
-0.0669889

>  <r_i_glide_ligand_efficiency_sa>  (175) 
-0.217018

>  <r_i_glide_ligand_efficiency_ln>  (175) 
-0.503191

>  <r_i_glide_gscore>  (175) 
-2.27762

>  <r_i_glide_lipo>  (175) 
-0.395429

>  <r_i_glide_hbond>  (175) 
0

>  <r_i_glide_metal>  (175) 
-0

>  <r_i_glide_rewards>  (175) 
-0.213921

>  <r_i_glide_evdw>  (175) 
-29.8845

>  <r_i_glide_ecoul>  (175) 
-1.58587

>  <r_i_glide_erotb>  (175) 
0.0919422

>  <r_i_glide_esite>  (175) 
-0.0281122

>  <r_i_glide_emodel>  (175) 
-30.3003

>  <r_i_glide_energy>  (175) 
-31.4703

>  <r_i_glide_einternal>  (175) 
9.59262

>  <r_i_glide_intrahb_reward>  (175) 
-0

>  <i_i_glide_confnum>  (175) 
2

>  <i_i_glide_posenum>  (175) 
33

>  <r_i_glide_eff_state_penalty>  (175) 
0

>  <ligand_id>  (175) 
51

>  <original_smiles>  (175) 
C=C1CC23CCC4C5CCC(C6(C)COC7OC(C)(C)OC7C6O)C4(C(=O)C5=C)C2CCC1C3

>  <smiles>  (175) 
[H]OC1([H])C2([H])OC(C([H])([H])[H])(C([H])([H])[H])OC2([H])OC([H])([H])C1(C([H])([H])[H])C1([H])C([H])([H])C([H])([H])C2([H])C(=C([H])[H])C(=O)C13C2([H])C([H])([H])C([H])([H])C12C([H])([H])C(=C([H])[H])C([H])(C([H])([H])C([H])([H])C31[H])C2([H])[H]

$$$$
51:0:2
     RDKit          3D

 74 80  0  0  1  0  0  0  0  0999 V2000
    0.7210  -11.5786    3.7733 C   0  0  0  0  0  0  0  0  0  0  0  0
    1.4866  -10.4744    3.6318 C   0  0  0  0  0  0  0  0  0  0  0  0
    2.3783  -10.1550    2.4712 C   0  0  0  0  0  0  0  0  0  0  0  0
    3.3088   -9.0014    2.9786 C   0  0  1  0  0  0  0  0  0  0  0  0
    4.7497   -9.2479    2.4625 C   0  0  0  0  0  0  0  0  0  0  0  0
    5.1661   -8.2624    1.3723 C   0  0  0  0  0  0  0  0  0  0  0  0
    5.1471   -6.8862    2.0274 C   0  0  1  0  0  0  0  0  0  0  0  0
    5.7716   -5.7875    1.1784 C   0  0  2  0  0  0  0  0  0  0  0  0
    6.3641   -4.8035    2.1802 C   0  0  0  0  0  0  0  0  0  0  0  0
    5.3487   -4.3631    3.2772 C   0  0  0  0  0  0  0  0  0  0  0  0
    4.1389   -5.3044    3.6813 C   0  0  1  0  0  0  0  0  0  0  0  0
    3.0749   -4.3905    4.4842 C   0  0  1  0  0  0  0  0  0  0  0  0
    2.3792   -5.3442    5.4707 C   0  0  0  0  0  0  0  0  0  0  0  0
    3.7140   -3.2989    5.4290 C   0  0  0  0  0  0  0  0  0  0  0  0
    2.7110   -2.5086    6.1058 O   0  0  0  0  0  0  0  0  0  0  0  0
    2.0131   -1.7236    5.1730 C   0  0  2  0  0  0  0  0  0  0  0  0
    1.0163   -0.8736    5.6744 O   0  0  0  0  0  0  0  0  0  0  0  0
    0.0124   -0.8367    4.6704 C   0  0  0  0  0  0  0  0  0  0  0  0
   -1.3753   -0.9928    5.3270 C   0  0  0  0  0  0  0  0  0  0  0  0
    0.0921    0.5076    3.9215 C   0  0  0  0  0  0  0  0  0  0  0  0
    0.2072   -1.9004    3.7320 O   0  0  0  0  0  0  0  0  0  0  0  0
    1.1486   -2.7083    4.4037 C   0  0  1  0  0  0  0  0  0  0  0  0
    2.0588   -3.6297    3.5677 C   0  0  1  0  0  0  0  0  0  0  0  0
    2.6926   -2.7538    2.6269 O   0  0  0  0  0  0  0  0  0  0  0  0
    3.7334   -6.3276    2.4711 C   0  0  1  0  0  0  0  0  0  0  0  0
    3.3938   -5.5304    1.2109 C   0  0  0  0  0  0  0  0  0  0  0  0
    2.2034   -5.2936    0.8414 O   0  0  0  0  0  0  0  0  0  0  0  0
    4.5839   -5.1762    0.4518 C   0  0  0  0  0  0  0  0  0  0  0  0
    4.6104   -4.5365   -0.7166 C   0  0  0  0  0  0  0  0  0  0  0  0
    2.7252   -7.6030    2.5811 C   0  0  2  0  0  0  0  0  0  0  0  0
    1.2147   -7.4926    3.0217 C   0  0  0  0  0  0  0  0  0  0  0  0
    0.8012   -8.2142    4.3462 C   0  0  0  0  0  0  0  0  0  0  0  0
    1.6855   -9.4310    4.6809 C   0  0  2  0  0  0  0  0  0  0  0  0
    3.1787   -9.1175    4.5002 C   0  0  0  0  0  0  0  0  0  0  0  0
    0.1785  -11.7352    4.6836 H   0  0  0  0  0  0  0  0  0  0  0  0
    0.6717  -12.3099    2.9893 H   0  0  0  0  0  0  0  0  0  0  0  0
    2.9162  -11.0689    2.2180 H   0  0  0  0  0  0  0  0  0  0  0  0
    1.7863   -9.8844    1.5959 H   0  0  0  0  0  0  0  0  0  0  0  0
    5.4503   -9.1859    3.2981 H   0  0  0  0  0  0  0  0  0  0  0  0
    4.8815  -10.2529    2.0598 H   0  0  0  0  0  0  0  0  0  0  0  0
    6.1787   -8.4900    1.0395 H   0  0  0  0  0  0  0  0  0  0  0  0
    4.5220   -8.3160    0.4920 H   0  0  0  0  0  0  0  0  0  0  0  0
    5.7678   -7.0247    2.9081 H   0  0  0  0  0  0  0  0  0  0  0  0
    6.5260   -6.1467    0.4715 H   0  0  0  0  0  0  0  0  0  0  0  0
    7.2509   -5.2506    2.6417 H   0  0  0  0  0  0  0  0  0  0  0  0
    6.7197   -3.9155    1.6522 H   0  0  0  0  0  0  0  0  0  0  0  0
    5.9257   -4.1587    4.1846 H   0  0  0  0  0  0  0  0  0  0  0  0
    4.9979   -3.3978    2.9210 H   0  0  0  0  0  0  0  0  0  0  0  0
    4.6003   -5.9808    4.4077 H   0  0  0  0  0  0  0  0  0  0  0  0
    1.6215   -4.8795    6.1062 H   0  0  0  0  0  0  0  0  0  0  0  0
    3.0714   -5.8688    6.1487 H   0  0  0  0  0  0  0  0  0  0  0  0
    1.9043   -6.0801    4.8608 H   0  0  0  0  0  0  0  0  0  0  0  0
    4.2869   -3.7898    6.2110 H   0  0  0  0  0  0  0  0  0  0  0  0
    4.4173   -2.6406    4.9038 H   0  0  0  0  0  0  0  0  0  0  0  0
    2.6821   -1.1230    4.5142 H   0  0  0  0  0  0  0  0  0  0  0  0
   -1.5042   -1.9407    5.8441 H   0  0  0  0  0  0  0  0  0  0  0  0
   -2.0916   -0.9149    4.5270 H   0  0  0  0  0  0  0  0  0  0  0  0
   -1.5308   -0.1535    5.9962 H   0  0  0  0  0  0  0  0  0  0  0  0
    1.0390    0.6712    3.4143 H   0  0  0  0  0  0  0  0  0  0  0  0
   -0.0958    1.3004    4.6314 H   0  0  0  0  0  0  0  0  0  0  0  0
   -0.7116    0.5125    3.2043 H   0  0  0  0  0  0  0  0  0  0  0  0
    0.5728   -3.2638    5.1528 H   0  0  0  0  0  0  0  0  0  0  0  0
    1.3917   -4.3103    3.0516 H   0  0  0  0  0  0  0  0  0  0  0  0
    2.0532   -2.4694    2.0111 H   0  0  0  0  0  0  0  0  0  0  0  0
    5.5244   -4.3581   -1.2704 H   0  0  0  0  0  0  0  0  0  0  0  0
    3.6843   -4.2093   -1.1853 H   0  0  0  0  0  0  0  0  0  0  0  0
    2.5532   -7.7865    1.5159 H   0  0  0  0  0  0  0  0  0  0  0  0
    0.8774   -6.4648    3.0301 H   0  0  0  0  0  0  0  0  0  0  0  0
    0.6208   -7.9495    2.2217 H   0  0  0  0  0  0  0  0  0  0  0  0
    0.8003   -7.5575    5.2154 H   0  0  0  0  0  0  0  0  0  0  0  0
   -0.2345   -8.5509    4.2409 H   0  0  0  0  0  0  0  0  0  0  0  0
    1.4678   -9.8302    5.6688 H   0  0  0  0  0  0  0  0  0  0  0  0
    3.7719   -9.9584    4.8596 H   0  0  0  0  0  0  0  0  0  0  0  0
    3.5080   -8.2235    5.0230 H   0  0  0  0  0  0  0  0  0  0  0  0
  1  2  2  0
  1 35  1  0
  1 36  1  0
  2 33  1  0
  2  3  1  0
  4  3  1  6
  3 37  1  0
  3 38  1  0
  4 30  1  0
  4 34  1  0
  4  5  1  0
  5  6  1  0
  5 39  1  0
  5 40  1  0
  6  7  1  0
  6 41  1  0
  6 42  1  0
  7 25  1  0
  7  8  1  0
  7 43  1  1
  8 28  1  0
  8  9  1  0
  8 44  1  6
  9 10  1  0
  9 45  1  0
  9 46  1  0
 10 11  1  0
 10 47  1  0
 10 48  1  0
 11 12  1  0
 11 25  1  0
 11 49  1  1
 12 23  1  0
 12 13  1  1
 12 14  1  0
 13 50  1  0
 13 51  1  0
 13 52  1  0
 14 15  1  0
 14 53  1  0
 14 54  1  0
 15 16  1  0
 16 22  1  0
 16 17  1  0
 16 55  1  6
 17 18  1  0
 18 19  1  0
 18 20  1  0
 18 21  1  0
 19 56  1  0
 19 57  1  0
 19 58  1  0
 20 59  1  0
 20 60  1  0
 20 61  1  0
 21 22  1  0
 22 23  1  0
 22 62  1  1
 23 24  1  0
 23 63  1  6
 24 64  1  0
 25 26  1  6
 25 30  1  0
 26 27  2  0
 26 28  1  0
 28 29  2  0
 29 65  1  0
 29 66  1  0
 30 31  1  0
 30 67  1  6
 31 32  1  0
 31 68  1  0
 31 69  1  0
 32 33  1  0
 32 70  1  0
 32 71  1  0
 33 34  1  0
 33 72  1  1
 34 73  1  0
 34 74  1  0
M  END
>  <i_m_ct_stereo_status>  (176) 
1

>  <s_m_source_file>  (176) 
/var/tmp/pbs.5076255.sched01/tmple0dc7g8/88jbw3zpwn.sdf

>  <i_m_source_file_index>  (176) 
1

>  <i_lp_mmshare_version>  (176) 
48012

>  <i_f3d_flags>  (176) 
0

>  <s_epik_input>  (176) 
W0NIMl09QyhbQ0gyXTEpW0NAQEhdKFtDSDJdMilbQ0gyXVtDSDJdW0NASF0oW0NAXTEyMylbQ0BdNDVbQ0BASF0oW0NIMl1bQ0gyXTMpW0NAQEhdKEMoQzU9Tyk9W0NIMl0pW0NIMl1bQ0gyXVtDQEhdNFtDQEBdKFtDSDNdKShbQ0gyXU82KVtDQEhdKFtPSF0pW0NAQEhdKFtDQEhdNjcpT0MoTzcpKFtDSDNdKVtDSDNd

>  <s_epik_cmdline>  (176) 
J2VwaWtfcHl0aG9uJywgJy1waHQnLCAnMi4wJywgJy1waCcsICc3LjAnLCAnLXRuJywgJzgnLCAnLW1hJywgJzIwMCcsICctaW1hZScsICc8aW5maWxlLm1hZT4nLCAnLW9tYWUnLCAnPG91dGZpbGUubWFlPic=

>  <r_lp_tautomer_probability>  (176) 
1

>  <r_epik_Ionization_Penalty>  (176) 
2.26521e-07

>  <r_epik_Ionization_Penalty_Charging>  (176) 
0

>  <r_epik_Ionization_Penalty_Neutral>  (176) 
2.26521e-07

>  <r_epik_State_Penalty>  (176) 
-0

>  <r_epik_Charging_Adjusted_Penalty>  (176) 
0

>  <i_epik_Tot_Q>  (176) 
0

>  <i_epik_Tot_abs_Q>  (176) 
0

>  <s_epik_Chemistry_Notes>  (176) 
This compound contains an acetal/aminal-like group ( X-CH(R)-Y where X, Y are N, S, or O) that may be acid/base labile, releasing an aldehyde.

>  <s_lp_Force_Field>  (176) 
OPLS3e

>  <r_lp_Energy>  (176) 
103.619

>  <b_lp_Chiralities_Consistent>  (176) 
1

>  <s_lp_Variant>  (176) 
51:0-1

>  <s_i_glide_gridfile>  (176) 
pfpi4k_grid

>  <i_i_glide_lignum>  (176) 
1

>  <i_i_glide_rotatable_bonds>  (176) 
2

>  <r_i_docking_score>  (176) 
-2.15723

>  <r_i_glide_ligand_efficiency>  (176) 
-0.0634479

>  <r_i_glide_ligand_efficiency_sa>  (176) 
-0.205547

>  <r_i_glide_ligand_efficiency_ln>  (176) 
-0.476592

>  <r_i_glide_gscore>  (176) 
-2.15723

>  <r_i_glide_lipo>  (176) 
-0.433396

>  <r_i_glide_hbond>  (176) 
-0.015936

>  <r_i_glide_metal>  (176) 
-0

>  <r_i_glide_rewards>  (176) 
-0.223492

>  <r_i_glide_evdw>  (176) 
-29.7533

>  <r_i_glide_ecoul>  (176) 
-0.500983

>  <r_i_glide_erotb>  (176) 
0.0919422

>  <r_i_glide_esite>  (176) 
-0.0135358

>  <r_i_glide_emodel>  (176) 
-29.0315

>  <r_i_glide_energy>  (176) 
-30.2543

>  <r_i_glide_einternal>  (176) 
9.46155

>  <r_i_glide_intrahb_reward>  (176) 
-0

>  <i_i_glide_confnum>  (176) 
2

>  <i_i_glide_posenum>  (176) 
10

>  <r_i_glide_eff_state_penalty>  (176) 
0

>  <ligand_id>  (176) 
51

>  <original_smiles>  (176) 
C=C1CC23CCC4C5CCC(C6(C)COC7OC(C)(C)OC7C6O)C4(C(=O)C5=C)C2CCC1C3

>  <smiles>  (176) 
[H]OC1([H])C2([H])OC(C([H])([H])[H])(C([H])([H])[H])OC2([H])OC([H])([H])C1(C([H])([H])[H])C1([H])C([H])([H])C([H])([H])C2([H])C(=C([H])[H])C(=O)C13C2([H])C([H])([H])C([H])([H])C12C([H])([H])C(=C([H])[H])C([H])(C([H])([H])C([H])([H])C31[H])C2([H])[H]

$$$$
52:0:0
     RDKit          3D

 75 83  0  0  1  0  0  0  0  0999 V2000
    1.3308    5.1156    3.6176 C   0  0  0  0  0  0  0  0  0  0  0  0
    0.4786    4.3750    4.3439 C   0  0  0  0  0  0  0  0  0  0  0  0
   -0.9858    4.4124    4.1872 C   0  0  0  0  0  0  0  0  0  0  0  0
   -1.6239    4.9282    3.2765 O   0  0  0  0  0  0  0  0  0  0  0  0
   -1.5369    3.7690    5.2401 O   0  0  0  0  0  0  0  0  0  0  0  0
   -0.6422    3.6419    6.3437 C   0  0  2  0  0  0  0  0  0  0  0  0
    0.7654    3.4211    5.4682 C   0  0  2  0  0  0  0  0  0  0  0  0
    2.3845    3.1517    5.8031 C   0  0  1  0  0  0  0  0  0  0  0  0
    3.5417    3.9347    5.9002 O   0  0  0  0  0  0  0  0  0  0  0  0
    3.3968    3.1657    7.1443 C   0  0  2  0  0  0  0  0  0  0  0  0
    3.6411    1.6264    7.5073 C   0  0  2  0  0  0  0  0  0  0  0  0
    3.0009    0.6359    6.5051 C   0  0  0  0  0  0  0  0  0  0  0  0
    1.4927    0.7669    6.8106 C   0  0  0  0  0  0  0  0  0  0  0  0
    1.2941    1.6340    8.1144 C   0  0  1  0  0  0  0  0  0  0  0  0
    1.1675    3.1929    8.4867 C   0  0  0  0  0  0  0  0  0  0  0  0
    1.1529    4.5082    8.0048 C   0  0  0  0  0  0  0  0  0  0  0  0
    0.8073    3.0950    9.8451 C   0  0  1  0  0  0  0  0  0  0  0  0
    1.7050    4.2416   10.5006 C   0  0  0  0  0  0  0  0  0  0  0  0
    3.1494    4.5941    9.7987 C   0  0  1  0  0  0  0  0  0  0  0  0
    4.1790    3.6298    9.5980 O   0  0  0  0  0  0  0  0  0  0  0  0
    3.8103    4.2439    8.3406 C   0  0  1  0  0  0  0  0  0  0  0  0
    4.8373    5.2674    7.8770 C   0  0  0  0  0  0  0  0  0  0  0  0
   -0.6273    2.7058    9.2653 C   0  0  1  0  0  0  0  0  0  0  0  0
   -1.6037    2.6785   10.4547 C   0  0  0  0  0  0  0  0  0  0  0  0
   -1.2917    2.9126    7.7112 C   0  0  1  0  0  0  0  0  0  0  0  0
   -2.7138    3.5105    7.7781 C   0  0  0  0  0  0  0  0  0  0  0  0
   -1.3109    1.3920    7.6809 C   0  0  0  0  0  0  0  0  0  0  0  0
   -0.1352    1.3407    8.6651 C   0  0  1  0  0  0  0  0  0  0  0  0
   -0.1600    0.2125    9.5101 O   0  0  0  0  0  0  0  0  0  0  0  0
    2.7036    1.2542    8.7251 C   0  0  1  0  0  0  0  0  0  0  0  0
    2.9505   -0.1670    9.3078 C   0  0  0  0  0  0  0  0  0  0  0  0
    4.4445   -0.4550    9.6433 C   0  0  0  0  0  0  0  0  0  0  0  0
    4.9126    0.3596   10.8716 C   0  0  0  0  0  0  0  0  0  0  0  0
    4.5810   -1.9600    9.9724 C   0  0  0  0  0  0  0  0  0  0  0  0
    5.3405   -0.0767    8.4392 C   0  0  0  0  0  0  0  0  0  0  0  0
    6.2104   -0.8349    8.0124 O   0  0  0  0  0  0  0  0  0  0  0  0
    5.1310    1.2969    7.7856 C   0  0  0  0  0  0  0  0  0  0  0  0
    2.3955    5.0853    3.7815 H   0  0  0  0  0  0  0  0  0  0  0  0
    0.9638    5.7802    2.8463 H   0  0  0  0  0  0  0  0  0  0  0  0
   -0.6601    4.6970    6.6195 H   0  0  0  0  0  0  0  0  0  0  0  0
    0.5281    2.5265    4.9006 H   0  0  0  0  0  0  0  0  0  0  0  0
    2.6463    2.5408    4.9499 H   0  0  0  0  0  0  0  0  0  0  0  0
    3.2996    0.7418    5.4655 H   0  0  0  0  0  0  0  0  0  0  0  0
    3.3029   -0.3922    6.6999 H   0  0  0  0  0  0  0  0  0  0  0  0
    0.8778    0.9290    5.9471 H   0  0  0  0  0  0  0  0  0  0  0  0
    1.1673   -0.2394    7.0734 H   0  0  0  0  0  0  0  0  0  0  0  0
    1.4384    4.9062    7.0507 H   0  0  0  0  0  0  0  0  0  0  0  0
    0.8484    5.3409    8.6206 H   0  0  0  0  0  0  0  0  0  0  0  0
    1.1478    2.2367   10.4246 H   0  0  0  0  0  0  0  0  0  0  0  0
    1.1374    5.1629   10.6578 H   0  0  0  0  0  0  0  0  0  0  0  0
    1.9326    3.9165   11.5138 H   0  0  0  0  0  0  0  0  0  0  0  0
    3.5426    5.5016   10.2520 H   0  0  0  0  0  0  0  0  0  0  0  0
    4.3933    5.9592    7.1575 H   0  0  0  0  0  0  0  0  0  0  0  0
    5.6860    4.7721    7.4043 H   0  0  0  0  0  0  0  0  0  0  0  0
    5.2138    5.8541    8.7137 H   0  0  0  0  0  0  0  0  0  0  0  0
   -2.4477    2.0120   10.2868 H   0  0  0  0  0  0  0  0  0  0  0  0
   -2.0125    3.6695   10.6472 H   0  0  0  0  0  0  0  0  0  0  0  0
   -1.1290    2.3434   11.3774 H   0  0  0  0  0  0  0  0  0  0  0  0
   -3.3332    3.0347    8.5407 H   0  0  0  0  0  0  0  0  0  0  0  0
   -3.2759    3.3598    6.8565 H   0  0  0  0  0  0  0  0  0  0  0  0
   -2.6963    4.5747    8.0076 H   0  0  0  0  0  0  0  0  0  0  0  0
   -2.2206    0.9715    8.1070 H   0  0  0  0  0  0  0  0  0  0  0  0
   -1.1352    0.9737    6.6933 H   0  0  0  0  0  0  0  0  0  0  0  0
    0.0078    0.5297   10.3881 H   0  0  0  0  0  0  0  0  0  0  0  0
    2.9520    1.8383    9.5873 H   0  0  0  0  0  0  0  0  0  0  0  0
    2.3678   -0.2723   10.2239 H   0  0  0  0  0  0  0  0  0  0  0  0
    2.5677   -0.9493    8.6542 H   0  0  0  0  0  0  0  0  0  0  0  0
    4.2753    0.1843   11.7389 H   0  0  0  0  0  0  0  0  0  0  0  0
    4.9109    1.4317   10.6800 H   0  0  0  0  0  0  0  0  0  0  0  0
    5.9318    0.0957   11.1552 H   0  0  0  0  0  0  0  0  0  0  0  0
    3.9366   -2.2454   10.8059 H   0  0  0  0  0  0  0  0  0  0  0  0
    5.6035   -2.2282   10.2421 H   0  0  0  0  0  0  0  0  0  0  0  0
    4.2988   -2.5772    9.1169 H   0  0  0  0  0  0  0  0  0  0  0  0
    5.7041    1.3411    6.8579 H   0  0  0  0  0  0  0  0  0  0  0  0
    5.5749    2.0359    8.4492 H   0  0  0  0  0  0  0  0  0  0  0  0
  1  2  2  0
  1 38  1  0
  1 39  1  0
  2  7  1  0
  2  3  1  0
  3  4  2  0
  3  5  1  0
  5  6  1  0
  6 25  1  0
  6  7  1  0
  6 40  1  1
  7  8  1  0
  7 41  1  6
  8 10  1  0
  8  9  1  0
  8 42  1  6
 10  9  1  6
 10 21  1  0
 10 11  1  0
 11 30  1  0
 11 37  1  1
 11 12  1  0
 12 13  1  0
 12 43  1  0
 12 44  1  0
 14 13  1  6
 13 45  1  0
 13 46  1  0
 14 28  1  0
 14 15  1  0
 14 30  1  0
 15 16  2  0
 15 17  1  0
 16 47  1  0
 16 48  1  0
 17 18  1  0
 17 23  1  0
 17 49  1  1
 18 19  1  0
 18 50  1  0
 18 51  1  0
 19 21  1  0
 19 20  1  0
 19 52  1  1
 20 21  1  0
 21 22  1  6
 22 53  1  0
 22 54  1  0
 22 55  1  0
 23 28  1  0
 23 24  1  1
 23 25  1  0
 24 56  1  0
 24 57  1  0
 24 58  1  0
 25 26  1  1
 25 27  1  0
 26 59  1  0
 26 60  1  0
 26 61  1  0
 27 28  1  0
 27 62  1  0
 27 63  1  0
 28 29  1  1
 29 64  1  0
 30 31  1  0
 30 65  1  1
 31 32  1  0
 31 66  1  0
 31 67  1  0
 32 33  1  0
 32 34  1  0
 32 35  1  0
 33 68  1  0
 33 69  1  0
 33 70  1  0
 34 71  1  0
 34 72  1  0
 34 73  1  0
 35 36  2  0
 35 37  1  0
 37 74  1  0
 37 75  1  0
M  END
>  <i_m_ct_stereo_status>  (177) 
1

>  <s_m_source_file>  (177) 
/var/tmp/pbs.5076255.sched01/tmple0dc7g8/88jbw3zpwn.sdf

>  <i_m_source_file_index>  (177) 
2

>  <i_lp_mmshare_version>  (177) 
48012

>  <i_f3d_flags>  (177) 
0

>  <s_epik_input>  (177) 
Tz1DKE8xKUMoPVtDSDJdKVtDQEBIXShbQ0BIXTJPMylbQ0BASF0xW0NAQF0oW0NIM10pKFtDSDJdNClbQ0BdKFtDSDNdKShbQ0BASF0oQzU9W0NIMl0pW0NIMl1bQ0BASF02W0NAXTcoTzYpW0NIM10pW0NAXTQoW09IXSlbQ0BdNShbQ0gyXVtDSDJdOClbQ0BIXShbQ0BdODlDMjM3KVtDSDJdQyhbQ0gzXSkoW0NIM10pQyg9TylbQ0gyXTk=

>  <s_epik_cmdline>  (177) 
J2VwaWtfcHl0aG9uJywgJy1waHQnLCAnMi4wJywgJy1waCcsICc3LjAnLCAnLXRuJywgJzgnLCAnLW1hJywgJzIwMCcsICctaW1hZScsICc8aW5maWxlLm1hZT4nLCAnLW9tYWUnLCAnPG91dGZpbGUubWFlPic=

>  <r_lp_tautomer_probability>  (177) 
1

>  <r_epik_Ionization_Penalty>  (177) 
1.47377e-07

>  <r_epik_Ionization_Penalty_Charging>  (177) 
0

>  <r_epik_Ionization_Penalty_Neutral>  (177) 
1.47377e-07

>  <r_epik_State_Penalty>  (177) 
-0

>  <r_epik_Charging_Adjusted_Penalty>  (177) 
0

>  <i_epik_Tot_Q>  (177) 
0

>  <i_epik_Tot_abs_Q>  (177) 
0

>  <s_epik_Chemistry_Notes>  (177) 
This compound has an ester and may undergo hydrolysis at high or low pH.

>  <s_lp_Force_Field>  (177) 
OPLS3e

>  <r_lp_Energy>  (177) 
411.047

>  <b_lp_Chiralities_Consistent>  (177) 
1

>  <s_lp_Variant>  (177) 
52:0-1

>  <s_i_glide_gridfile>  (177) 
pfpi4k_grid

>  <i_i_glide_lignum>  (177) 
2

>  <i_i_glide_rotatable_bonds>  (177) 
1

>  <r_i_docking_score>  (177) 
-1.76096

>  <r_i_glide_ligand_efficiency>  (177) 
-0.0475936

>  <r_i_glide_ligand_efficiency_sa>  (177) 
-0.158593

>  <r_i_glide_ligand_efficiency_ln>  (177) 
-0.381912

>  <r_i_glide_gscore>  (177) 
-1.76096

>  <r_i_glide_lipo>  (177) 
-0.122006

>  <r_i_glide_hbond>  (177) 
-0.16

>  <r_i_glide_metal>  (177) 
-0

>  <r_i_glide_rewards>  (177) 
0

>  <r_i_glide_evdw>  (177) 
-15.5247

>  <r_i_glide_ecoul>  (177) 
-4.12324

>  <r_i_glide_erotb>  (177) 
0

>  <r_i_glide_esite>  (177) 
-0.0842391

>  <r_i_glide_emodel>  (177) 
-21.1765

>  <r_i_glide_energy>  (177) 
-19.6479

>  <r_i_glide_einternal>  (177) 
1.31305

>  <r_i_glide_intrahb_reward>  (177) 
-0

>  <i_i_glide_confnum>  (177) 
1

>  <i_i_glide_posenum>  (177) 
1

>  <r_i_glide_eff_state_penalty>  (177) 
0

>  <ligand_id>  (177) 
52

>  <original_smiles>  (177) 
C=C1C(=O)OC2C1C1OC13C14CCC5(C(=C)C(CC6OC63C)C3(C)C2(C)CC53O)C1CC(C)(C)C(=O)C4

>  <smiles>  (177) 
[H]OC12C([H])([H])C3(C([H])([H])[H])C4([H])OC(=O)C(=C([H])[H])C4([H])C4([H])OC45C4(C([H])([H])[H])OC4([H])C([H])([H])C([H])(C(=C([H])[H])C14C([H])([H])C([H])([H])C51C([H])([H])C(=O)C(C([H])([H])[H])(C([H])([H])[H])C([H])([H])C41[H])C23C([H])([H])[H]

$$$$
52:0:1
     RDKit          3D

 75 83  0  0  1  0  0  0  0  0999 V2000
    1.9529    5.6976    3.3827 C   0  0  0  0  0  0  0  0  0  0  0  0
    1.0409    4.8521    3.8858 C   0  0  0  0  0  0  0  0  0  0  0  0
   -0.4101    4.9952    3.6830 C   0  0  0  0  0  0  0  0  0  0  0  0
   -0.9847    5.7419    2.8905 O   0  0  0  0  0  0  0  0  0  0  0  0
   -1.0383    4.1693    4.5452 O   0  0  0  0  0  0  0  0  0  0  0  0
   -0.2004    3.7454    5.6188 C   0  0  2  0  0  0  0  0  0  0  0  0
    1.2408    3.6578    4.7749 C   0  0  2  0  0  0  0  0  0  0  0  0
    2.8349    3.2567    5.1044 C   0  0  1  0  0  0  0  0  0  0  0  0
    4.0093    3.9493    5.4246 O   0  0  0  0  0  0  0  0  0  0  0  0
    3.7810    2.9271    6.4538 C   0  0  2  0  0  0  0  0  0  0  0  0
    3.9554    1.3364    6.4690 C   0  0  2  0  0  0  0  0  0  0  0  0
    3.3332    0.6236    5.2429 C   0  0  0  0  0  0  0  0  0  0  0  0
    1.8166    0.7477    5.5089 C   0  0  0  0  0  0  0  0  0  0  0  0
    1.5825    1.3079    6.9662 C   0  0  1  0  0  0  0  0  0  0  0  0
    1.4915    2.7499    7.6750 C   0  0  0  0  0  0  0  0  0  0  0  0
    1.5441    4.1388    7.5023 C   0  0  0  0  0  0  0  0  0  0  0  0
    1.0623    2.3665    8.9605 C   0  0  1  0  0  0  0  0  0  0  0  0
    1.9638    3.2940    9.8957 C   0  0  0  0  0  0  0  0  0  0  0  0
    3.4525    3.7322    9.3506 C   0  0  1  0  0  0  0  0  0  0  0  0
    4.4584    2.7952    8.9786 O   0  0  0  0  0  0  0  0  0  0  0  0
    4.1708    3.6911    7.8799 C   0  0  1  0  0  0  0  0  0  0  0  0
    5.2530    4.7481    7.7009 C   0  0  0  0  0  0  0  0  0  0  0  0
   -0.3527    2.1839    8.2516 C   0  0  1  0  0  0  0  0  0  0  0  0
   -1.3842    1.9290    9.3556 C   0  0  0  0  0  0  0  0  0  0  0  0
   -0.9379    2.7552    6.7586 C   0  0  1  0  0  0  0  0  0  0  0  0
   -2.3425    3.3831    6.9042 C   0  0  0  0  0  0  0  0  0  0  0  0
   -1.0036    1.2799    6.3821 C   0  0  0  0  0  0  0  0  0  0  0  0
    0.1171    0.9635    7.3827 C   0  0  1  0  0  0  0  0  0  0  0  0
    0.0212   -0.3257    7.9480 O   0  0  0  0  0  0  0  0  0  0  0  0
    2.9475    0.7413    7.5311 C   0  0  1  0  0  0  0  0  0  0  0  0
    3.1198   -0.7839    7.7887 C   0  0  0  0  0  0  0  0  0  0  0  0
    4.5844   -1.2034    8.1103 C   0  0  0  0  0  0  0  0  0  0  0  0
    5.0186   -0.7047    9.5071 C   0  0  0  0  0  0  0  0  0  0  0  0
    4.6555   -2.7483    8.0954 C   0  0  0  0  0  0  0  0  0  0  0  0
    5.5485   -0.6032    7.0600 C   0  0  0  0  0  0  0  0  0  0  0  0
    6.4117   -1.2846    6.5106 O   0  0  0  0  0  0  0  0  0  0  0  0
    5.4191    0.8898    6.7260 C   0  0  0  0  0  0  0  0  0  0  0  0
    3.0079    5.5874    3.5723 H   0  0  0  0  0  0  0  0  0  0  0  0
    1.6271    6.5397    2.7921 H   0  0  0  0  0  0  0  0  0  0  0  0
   -0.1937    4.7102    6.1277 H   0  0  0  0  0  0  0  0  0  0  0  0
    1.0008    2.9296    4.0052 H   0  0  0  0  0  0  0  0  0  0  0  0
    3.1204    2.8447    4.1455 H   0  0  0  0  0  0  0  0  0  0  0  0
    3.6846    0.9488    4.2661 H   0  0  0  0  0  0  0  0  0  0  0  0
    3.5941   -0.4326    5.2102 H   0  0  0  0  0  0  0  0  0  0  0  0
    1.2510    1.1251    4.6786 H   0  0  0  0  0  0  0  0  0  0  0  0
    1.4459   -0.2763    5.5256 H   0  0  0  0  0  0  0  0  0  0  0  0
    1.8864    4.7283    6.6751 H   0  0  0  0  0  0  0  0  0  0  0  0
    1.2409    4.8239    8.2800 H   0  0  0  0  0  0  0  0  0  0  0  0
    1.3438    1.3880    9.3429 H   0  0  0  0  0  0  0  0  0  0  0  0
    1.4179    4.1791   10.2346 H   0  0  0  0  0  0  0  0  0  0  0  0
    2.1299    2.7393   10.8166 H   0  0  0  0  0  0  0  0  0  0  0  0
    3.8519    4.4951   10.0140 H   0  0  0  0  0  0  0  0  0  0  0  0
    4.8672    5.6022    7.1408 H   0  0  0  0  0  0  0  0  0  0  0  0
    6.1078    4.3347    7.1621 H   0  0  0  0  0  0  0  0  0  0  0  0
    5.6082    5.1148    8.6634 H   0  0  0  0  0  0  0  0  0  0  0  0
   -2.2234    1.3553    8.9745 H   0  0  0  0  0  0  0  0  0  0  0  0
   -1.7758    2.8636    9.7540 H   0  0  0  0  0  0  0  0  0  0  0  0
   -0.9699    1.3699   10.1950 H   0  0  0  0  0  0  0  0  0  0  0  0
   -3.0151    2.7754    7.5088 H   0  0  0  0  0  0  0  0  0  0  0  0
   -2.8667    3.4784    5.9519 H   0  0  0  0  0  0  0  0  0  0  0  0
   -2.2954    4.3642    7.3749 H   0  0  0  0  0  0  0  0  0  0  0  0
   -1.9491    0.8083    6.6535 H   0  0  0  0  0  0  0  0  0  0  0  0
   -0.7893    1.0895    5.3333 H   0  0  0  0  0  0  0  0  0  0  0  0
    0.7389   -0.4035    8.5614 H   0  0  0  0  0  0  0  0  0  0  0  0
    3.1744    1.1091    8.5130 H   0  0  0  0  0  0  0  0  0  0  0  0
    2.4953   -1.0699    8.6350 H   0  0  0  0  0  0  0  0  0  0  0  0
    2.7459   -1.3836    6.9585 H   0  0  0  0  0  0  0  0  0  0  0  0
    4.3335   -1.0396   10.2876 H   0  0  0  0  0  0  0  0  0  0  0  0
    5.0657    0.3815    9.5616 H   0  0  0  0  0  0  0  0  0  0  0  0
    6.0130   -1.0690    9.7676 H   0  0  0  0  0  0  0  0  0  0  0  0
    3.9621   -3.1858    8.8166 H   0  0  0  0  0  0  0  0  0  0  0  0
    5.6536   -3.1154    8.3388 H   0  0  0  0  0  0  0  0  0  0  0  0
    4.3955   -3.1471    7.1133 H   0  0  0  0  0  0  0  0  0  0  0  0
    6.0399    1.1162    5.8566 H   0  0  0  0  0  0  0  0  0  0  0  0
    5.8534    1.4404    7.5566 H   0  0  0  0  0  0  0  0  0  0  0  0
  1  2  2  0
  1 38  1  0
  1 39  1  0
  2  7  1  0
  2  3  1  0
  3  4  2  0
  3  5  1  0
  5  6  1  0
  6 25  1  0
  6  7  1  0
  6 40  1  1
  7  8  1  0
  7 41  1  6
  8 10  1  0
  8  9  1  0
  8 42  1  6
 10  9  1  6
 10 21  1  0
 10 11  1  0
 11 30  1  0
 11 37  1  1
 11 12  1  0
 12 13  1  0
 12 43  1  0
 12 44  1  0
 14 13  1  6
 13 45  1  0
 13 46  1  0
 14 28  1  0
 14 15  1  0
 14 30  1  0
 15 16  2  0
 15 17  1  0
 16 47  1  0
 16 48  1  0
 17 18  1  0
 17 23  1  0
 17 49  1  1
 18 19  1  0
 18 50  1  0
 18 51  1  0
 19 21  1  0
 19 20  1  0
 19 52  1  1
 20 21  1  0
 21 22  1  6
 22 53  1  0
 22 54  1  0
 22 55  1  0
 23 28  1  0
 23 24  1  1
 23 25  1  0
 24 56  1  0
 24 57  1  0
 24 58  1  0
 25 26  1  1
 25 27  1  0
 26 59  1  0
 26 60  1  0
 26 61  1  0
 27 28  1  0
 27 62  1  0
 27 63  1  0
 28 29  1  1
 29 64  1  0
 30 31  1  0
 30 65  1  1
 31 32  1  0
 31 66  1  0
 31 67  1  0
 32 33  1  0
 32 34  1  0
 32 35  1  0
 33 68  1  0
 33 69  1  0
 33 70  1  0
 34 71  1  0
 34 72  1  0
 34 73  1  0
 35 36  2  0
 35 37  1  0
 37 74  1  0
 37 75  1  0
M  END
>  <i_m_ct_stereo_status>  (178) 
1

>  <s_m_source_file>  (178) 
/var/tmp/pbs.5076255.sched01/tmple0dc7g8/88jbw3zpwn.sdf

>  <i_m_source_file_index>  (178) 
2

>  <i_lp_mmshare_version>  (178) 
48012

>  <i_f3d_flags>  (178) 
0

>  <s_epik_input>  (178) 
Tz1DKE8xKUMoPVtDSDJdKVtDQEBIXShbQ0BIXTJPMylbQ0BASF0xW0NAQF0oW0NIM10pKFtDSDJdNClbQ0BdKFtDSDNdKShbQ0BASF0oQzU9W0NIMl0pW0NIMl1bQ0BASF02W0NAXTcoTzYpW0NIM10pW0NAXTQoW09IXSlbQ0BdNShbQ0gyXVtDSDJdOClbQ0BIXShbQ0BdODlDMjM3KVtDSDJdQyhbQ0gzXSkoW0NIM10pQyg9TylbQ0gyXTk=

>  <s_epik_cmdline>  (178) 
J2VwaWtfcHl0aG9uJywgJy1waHQnLCAnMi4wJywgJy1waCcsICc3LjAnLCAnLXRuJywgJzgnLCAnLW1hJywgJzIwMCcsICctaW1hZScsICc8aW5maWxlLm1hZT4nLCAnLW9tYWUnLCAnPG91dGZpbGUubWFlPic=

>  <r_lp_tautomer_probability>  (178) 
1

>  <r_epik_Ionization_Penalty>  (178) 
1.47377e-07

>  <r_epik_Ionization_Penalty_Charging>  (178) 
0

>  <r_epik_Ionization_Penalty_Neutral>  (178) 
1.47377e-07

>  <r_epik_State_Penalty>  (178) 
-0

>  <r_epik_Charging_Adjusted_Penalty>  (178) 
0

>  <i_epik_Tot_Q>  (178) 
0

>  <i_epik_Tot_abs_Q>  (178) 
0

>  <s_epik_Chemistry_Notes>  (178) 
This compound has an ester and may undergo hydrolysis at high or low pH.

>  <s_lp_Force_Field>  (178) 
OPLS3e

>  <r_lp_Energy>  (178) 
411.047

>  <b_lp_Chiralities_Consistent>  (178) 
1

>  <s_lp_Variant>  (178) 
52:0-1

>  <s_i_glide_gridfile>  (178) 
pfpi4k_grid

>  <i_i_glide_lignum>  (178) 
2

>  <i_i_glide_rotatable_bonds>  (178) 
1

>  <r_i_docking_score>  (178) 
-1.68582

>  <r_i_glide_ligand_efficiency>  (178) 
-0.0455628

>  <r_i_glide_ligand_efficiency_sa>  (178) 
-0.151825

>  <r_i_glide_ligand_efficiency_ln>  (178) 
-0.365615

>  <r_i_glide_gscore>  (178) 
-1.68582

>  <r_i_glide_lipo>  (178) 
-0.115445

>  <r_i_glide_hbond>  (178) 
-0.134276

>  <r_i_glide_metal>  (178) 
-0

>  <r_i_glide_rewards>  (178) 
-0.01245

>  <r_i_glide_evdw>  (178) 
-14.917

>  <r_i_glide_ecoul>  (178) 
-3.85203

>  <r_i_glide_erotb>  (178) 
0

>  <r_i_glide_esite>  (178) 
-0.1

>  <r_i_glide_emodel>  (178) 
-20.3336

>  <r_i_glide_energy>  (178) 
-18.769

>  <r_i_glide_einternal>  (178) 
0.982478

>  <r_i_glide_intrahb_reward>  (178) 
-0

>  <i_i_glide_confnum>  (178) 
2

>  <i_i_glide_posenum>  (178) 
8

>  <r_i_glide_eff_state_penalty>  (178) 
0

>  <ligand_id>  (178) 
52

>  <original_smiles>  (178) 
C=C1C(=O)OC2C1C1OC13C14CCC5(C(=C)C(CC6OC63C)C3(C)C2(C)CC53O)C1CC(C)(C)C(=O)C4

>  <smiles>  (178) 
[H]OC12C([H])([H])C3(C([H])([H])[H])C4([H])OC(=O)C(=C([H])[H])C4([H])C4([H])OC45C4(C([H])([H])[H])OC4([H])C([H])([H])C([H])(C(=C([H])[H])C14C([H])([H])C([H])([H])C51C([H])([H])C(=O)C(C([H])([H])[H])(C([H])([H])[H])C([H])([H])C41[H])C23C([H])([H])[H]

$$$$
52:0:2
     RDKit          3D

 75 83  0  0  1  0  0  0  0  0999 V2000
    0.8759    5.6478    3.5716 C   0  0  0  0  0  0  0  0  0  0  0  0
    0.3799    4.5409    4.1482 C   0  0  0  0  0  0  0  0  0  0  0  0
   -1.0308    4.1252    4.0632 C   0  0  0  0  0  0  0  0  0  0  0  0
   -1.8893    4.5612    3.2999 O   0  0  0  0  0  0  0  0  0  0  0  0
   -1.2374    3.1524    4.9731 O   0  0  0  0  0  0  0  0  0  0  0  0
   -0.2267    3.1054    5.9772 C   0  0  2  0  0  0  0  0  0  0  0  0
    1.0732    3.5328    5.0161 C   0  0  2  0  0  0  0  0  0  0  0  0
    2.7249    3.7463    5.2143 C   0  0  1  0  0  0  0  0  0  0  0  0
    3.5875    4.8278    5.4357 O   0  0  0  0  0  0  0  0  0  0  0  0
    3.8262    3.8257    6.4823 C   0  0  2  0  0  0  0  0  0  0  0  0
    4.5744    2.4112    6.4848 C   0  0  2  0  0  0  0  0  0  0  0  0
    4.1663    1.4841    5.3139 C   0  0  0  0  0  0  0  0  0  0  0  0
    2.7355    1.0518    5.7026 C   0  0  0  0  0  0  0  0  0  0  0  0
    2.4232    1.5322    7.1749 C   0  0  1  0  0  0  0  0  0  0  0  0
    1.8623    2.8585    7.8895 C   0  0  0  0  0  0  0  0  0  0  0  0
    1.3883    4.1650    7.7118 C   0  0  0  0  0  0  0  0  0  0  0  0
    1.7026    2.3854    9.2062 C   0  0  1  0  0  0  0  0  0  0  0  0
    2.2687    3.6078   10.0626 C   0  0  0  0  0  0  0  0  0  0  0  0
    3.4456    4.5431    9.3962 C   0  0  1  0  0  0  0  0  0  0  0  0
    4.6937    4.0277    8.9433 O   0  0  0  0  0  0  0  0  0  0  0  0
    4.0160    4.7218    7.8706 C   0  0  1  0  0  0  0  0  0  0  0  0
    4.6172    6.0948    7.6041 C   0  0  0  0  0  0  0  0  0  0  0  0
    0.4052    1.6719    8.6157 C   0  0  1  0  0  0  0  0  0  0  0  0
   -0.3726    1.0908    9.8057 C   0  0  0  0  0  0  0  0  0  0  0  0
   -0.4602    1.9502    7.1752 C   0  0  1  0  0  0  0  0  0  0  0  0
   -1.9803    2.0336    7.4312 C   0  0  0  0  0  0  0  0  0  0  0  0
   -0.0069    0.5429    6.8070 C   0  0  0  0  0  0  0  0  0  0  0  0
    1.2260    0.6881    7.7075 C   0  0  1  0  0  0  0  0  0  0  0  0
    1.6554   -0.5296    8.2739 O   0  0  0  0  0  0  0  0  0  0  0  0
    3.9390    1.5209    7.6270 C   0  0  1  0  0  0  0  0  0  0  0  0
    4.6791    0.1732    7.8692 C   0  0  0  0  0  0  0  0  0  0  0  0
    6.2158    0.3291    8.0689 C   0  0  0  0  0  0  0  0  0  0  0  0
    6.5432    0.9925    9.4278 C   0  0  0  0  0  0  0  0  0  0  0  0
    6.8501   -1.0813    8.0486 C   0  0  0  0  0  0  0  0  0  0  0  0
    6.8103    1.2060    6.9375 C   0  0  0  0  0  0  0  0  0  0  0  0
    7.8065    0.8671    6.3063 O   0  0  0  0  0  0  0  0  0  0  0  0
    6.1135    2.5396    6.6247 C   0  0  0  0  0  0  0  0  0  0  0  0
    1.9108    5.9326    3.6781 H   0  0  0  0  0  0  0  0  0  0  0  0
    0.2442    6.2906    2.9750 H   0  0  0  0  0  0  0  0  0  0  0  0
   -0.5366    4.0213    6.4817 H   0  0  0  0  0  0  0  0  0  0  0  0
    1.0638    2.7405    4.2731 H   0  0  0  0  0  0  0  0  0  0  0  0
    3.0675    3.4355    4.2362 H   0  0  0  0  0  0  0  0  0  0  0  0
    4.2958    1.8826    4.3116 H   0  0  0  0  0  0  0  0  0  0  0  0
    4.7921    0.5945    5.2615 H   0  0  0  0  0  0  0  0  0  0  0  0
    2.0090    1.1716    4.9224 H   0  0  0  0  0  0  0  0  0  0  0  0
    2.7690   -0.0368    5.7487 H   0  0  0  0  0  0  0  0  0  0  0  0
    1.4271    4.8129    6.8597 H   0  0  0  0  0  0  0  0  0  0  0  0
    0.9108    4.7131    8.5097 H   0  0  0  0  0  0  0  0  0  0  0  0
    2.3537    1.5893    9.5651 H   0  0  0  0  0  0  0  0  0  0  0  0
    1.4650    4.2429   10.4435 H   0  0  0  0  0  0  0  0  0  0  0  0
    2.6973    3.1824   10.9672 H   0  0  0  0  0  0  0  0  0  0  0  0
    3.5858    5.4210   10.0226 H   0  0  0  0  0  0  0  0  0  0  0  0
    3.9032    6.7309    7.0757 H   0  0  0  0  0  0  0  0  0  0  0  0
    5.5194    6.0073    6.9981 H   0  0  0  0  0  0  0  0  0  0  0  0
    4.8828    6.5951    8.5345 H   0  0  0  0  0  0  0  0  0  0  0  0
   -0.9642    0.2241    9.5199 H   0  0  0  0  0  0  0  0  0  0  0  0
   -1.0517    1.8294   10.2307 H   0  0  0  0  0  0  0  0  0  0  0  0
    0.2865    0.7622   10.6091 H   0  0  0  0  0  0  0  0  0  0  0  0
   -2.3317    1.2492    8.0999 H   0  0  0  0  0  0  0  0  0  0  0  0
   -2.5703    1.8945    6.5249 H   0  0  0  0  0  0  0  0  0  0  0  0
   -2.2656    2.9818    7.8850 H   0  0  0  0  0  0  0  0  0  0  0  0
   -0.6760   -0.2405    7.1620 H   0  0  0  0  0  0  0  0  0  0  0  0
    0.1815    0.4081    5.7449 H   0  0  0  0  0  0  0  0  0  0  0  0
    2.2722   -0.3148    8.9576 H   0  0  0  0  0  0  0  0  0  0  0  0
    4.0887    1.9729    8.5863 H   0  0  0  0  0  0  0  0  0  0  0  0
    4.2681   -0.2968    8.7635 H   0  0  0  0  0  0  0  0  0  0  0  0
    4.4890   -0.5463    7.0738 H   0  0  0  0  0  0  0  0  0  0  0  0
    6.0921    0.4515   10.2611 H   0  0  0  0  0  0  0  0  0  0  0  0
    6.1883    2.0210    9.4797 H   0  0  0  0  0  0  0  0  0  0  0  0
    7.6193    1.0257    9.6021 H   0  0  0  0  0  0  0  0  0  0  0  0
    6.4233   -1.7211    8.8235 H   0  0  0  0  0  0  0  0  0  0  0  0
    7.9287   -1.0479    8.2089 H   0  0  0  0  0  0  0  0  0  0  0  0
    6.6800   -1.5754    7.0900 H   0  0  0  0  0  0  0  0  0  0  0  0
    6.5416    2.9518    5.7109 H   0  0  0  0  0  0  0  0  0  0  0  0
    6.3774    3.2373    7.4176 H   0  0  0  0  0  0  0  0  0  0  0  0
  1  2  2  0
  1 38  1  0
  1 39  1  0
  2  7  1  0
  2  3  1  0
  3  4  2  0
  3  5  1  0
  5  6  1  0
  6 25  1  0
  6  7  1  0
  6 40  1  1
  7  8  1  0
  7 41  1  6
  8 10  1  0
  8  9  1  0
  8 42  1  6
 10  9  1  6
 10 21  1  0
 10 11  1  0
 11 30  1  0
 11 37  1  1
 11 12  1  0
 12 13  1  0
 12 43  1  0
 12 44  1  0
 14 13  1  6
 13 45  1  0
 13 46  1  0
 14 28  1  0
 14 15  1  0
 14 30  1  0
 15 16  2  0
 15 17  1  0
 16 47  1  0
 16 48  1  0
 17 18  1  0
 17 23  1  0
 17 49  1  6
 18 19  1  0
 18 50  1  0
 18 51  1  0
 19 21  1  0
 19 20  1  0
 19 52  1  1
 20 21  1  0
 21 22  1  6
 22 53  1  0
 22 54  1  0
 22 55  1  0
 23 28  1  0
 23 24  1  1
 23 25  1  0
 24 56  1  0
 24 57  1  0
 24 58  1  0
 25 26  1  1
 25 27  1  0
 26 59  1  0
 26 60  1  0
 26 61  1  0
 27 28  1  0
 27 62  1  0
 27 63  1  0
 28 29  1  1
 29 64  1  0
 30 31  1  0
 30 65  1  1
 31 32  1  0
 31 66  1  0
 31 67  1  0
 32 33  1  0
 32 34  1  0
 32 35  1  0
 33 68  1  0
 33 69  1  0
 33 70  1  0
 34 71  1  0
 34 72  1  0
 34 73  1  0
 35 36  2  0
 35 37  1  0
 37 74  1  0
 37 75  1  0
M  END
>  <i_m_ct_stereo_status>  (179) 
1

>  <s_m_source_file>  (179) 
/var/tmp/pbs.5076255.sched01/tmple0dc7g8/88jbw3zpwn.sdf

>  <i_m_source_file_index>  (179) 
2

>  <i_lp_mmshare_version>  (179) 
48012

>  <i_f3d_flags>  (179) 
0

>  <s_epik_input>  (179) 
Tz1DKE8xKUMoPVtDSDJdKVtDQEBIXShbQ0BIXTJPMylbQ0BASF0xW0NAQF0oW0NIM10pKFtDSDJdNClbQ0BdKFtDSDNdKShbQ0BASF0oQzU9W0NIMl0pW0NIMl1bQ0BASF02W0NAXTcoTzYpW0NIM10pW0NAXTQoW09IXSlbQ0BdNShbQ0gyXVtDSDJdOClbQ0BIXShbQ0BdODlDMjM3KVtDSDJdQyhbQ0gzXSkoW0NIM10pQyg9TylbQ0gyXTk=

>  <s_epik_cmdline>  (179) 
J2VwaWtfcHl0aG9uJywgJy1waHQnLCAnMi4wJywgJy1waCcsICc3LjAnLCAnLXRuJywgJzgnLCAnLW1hJywgJzIwMCcsICctaW1hZScsICc8aW5maWxlLm1hZT4nLCAnLW9tYWUnLCAnPG91dGZpbGUubWFlPic=

>  <r_lp_tautomer_probability>  (179) 
1

>  <r_epik_Ionization_Penalty>  (179) 
1.47377e-07

>  <r_epik_Ionization_Penalty_Charging>  (179) 
0

>  <r_epik_Ionization_Penalty_Neutral>  (179) 
1.47377e-07

>  <r_epik_State_Penalty>  (179) 
-0

>  <r_epik_Charging_Adjusted_Penalty>  (179) 
0

>  <i_epik_Tot_Q>  (179) 
0

>  <i_epik_Tot_abs_Q>  (179) 
0

>  <s_epik_Chemistry_Notes>  (179) 
This compound has an ester and may undergo hydrolysis at high or low pH.

>  <s_lp_Force_Field>  (179) 
OPLS3e

>  <r_lp_Energy>  (179) 
411.047

>  <b_lp_Chiralities_Consistent>  (179) 
1

>  <s_lp_Variant>  (179) 
52:0-1

>  <s_i_glide_gridfile>  (179) 
pfpi4k_grid

>  <i_i_glide_lignum>  (179) 
2

>  <i_i_glide_rotatable_bonds>  (179) 
1

>  <r_i_docking_score>  (179) 
-1.61092

>  <r_i_glide_ligand_efficiency>  (179) 
-0.0435383

>  <r_i_glide_ligand_efficiency_sa>  (179) 
-0.145079

>  <r_i_glide_ligand_efficiency_ln>  (179) 
-0.34937

>  <r_i_glide_gscore>  (179) 
-1.61092

>  <r_i_glide_lipo>  (179) 
-0.0624004

>  <r_i_glide_hbond>  (179) 
-0.16

>  <r_i_glide_metal>  (179) 
-0

>  <r_i_glide_rewards>  (179) 
-0.0870483

>  <r_i_glide_evdw>  (179) 
-18.2444

>  <r_i_glide_ecoul>  (179) 
-2.0562

>  <r_i_glide_erotb>  (179) 
0

>  <r_i_glide_esite>  (179) 
-0.0808177

>  <r_i_glide_emodel>  (179) 
-21.8262

>  <r_i_glide_energy>  (179) 
-20.3006

>  <r_i_glide_einternal>  (179) 
0.95484

>  <r_i_glide_intrahb_reward>  (179) 
-0

>  <i_i_glide_confnum>  (179) 
1

>  <i_i_glide_posenum>  (179) 
22

>  <r_i_glide_eff_state_penalty>  (179) 
0

>  <ligand_id>  (179) 
52

>  <original_smiles>  (179) 
C=C1C(=O)OC2C1C1OC13C14CCC5(C(=C)C(CC6OC63C)C3(C)C2(C)CC53O)C1CC(C)(C)C(=O)C4

>  <smiles>  (179) 
[H]OC12C([H])([H])C3(C([H])([H])[H])C4([H])OC(=O)C(=C([H])[H])C4([H])C4([H])OC45C4(C([H])([H])[H])OC4([H])C([H])([H])C([H])(C(=C([H])[H])C14C([H])([H])C([H])([H])C51C([H])([H])C(=O)C(C([H])([H])[H])(C([H])([H])[H])C([H])([H])C41[H])C23C([H])([H])[H]

$$$$
52:1:0
     RDKit          3D

 75 83  0  0  1  0  0  0  0  0999 V2000
    0.0431   -4.2406    7.5108 C   0  0  0  0  0  0  0  0  0  0  0  0
    0.6692   -3.8319    6.3929 C   0  0  0  0  0  0  0  0  0  0  0  0
    0.6468   -4.6104    5.1601 C   0  0  0  0  0  0  0  0  0  0  0  0
   -0.0199   -5.6239    4.9517 O   0  0  0  0  0  0  0  0  0  0  0  0
    1.4486   -4.0489    4.2679 O   0  0  0  0  0  0  0  0  0  0  0  0
    2.1996   -2.9262    4.7187 C   0  0  2  0  0  0  0  0  0  0  0  0
    1.5147   -2.5895    6.2256 C   0  0  1  0  0  0  0  0  0  0  0  0
    0.6651   -1.2815    6.7242 C   0  0  1  0  0  0  0  0  0  0  0  0
    0.6555   -0.5583    7.9361 O   0  0  0  0  0  0  0  0  0  0  0  0
    0.8846    0.3522    6.8064 C   0  0  2  0  0  0  0  0  0  0  0  0
   -0.2173    1.0153    5.8540 C   0  0  2  0  0  0  0  0  0  0  0  0
   -1.2051   -0.0153    5.2474 C   0  0  0  0  0  0  0  0  0  0  0  0
   -0.3089   -0.7973    4.2568 C   0  0  0  0  0  0  0  0  0  0  0  0
    1.0290    0.0092    4.0668 C   0  0  1  0  0  0  0  0  0  0  0  0
    2.4802   -0.0179    4.7403 C   0  0  0  0  0  0  0  0  0  0  0  0
    3.3120   -0.6148    5.6930 C   0  0  0  0  0  0  0  0  0  0  0  0
    3.1845    0.8214    3.8529 C   0  0  1  0  0  0  0  0  0  0  0  0
    4.0100    1.7186    4.8853 C   0  0  0  0  0  0  0  0  0  0  0  0
    3.3764    2.0012    6.3753 C   0  0  1  0  0  0  0  0  0  0  0  0
    2.1137    2.6245    6.5895 O   0  0  0  0  0  0  0  0  0  0  0  0
    2.1537    1.3265    7.2276 C   0  0  1  0  0  0  0  0  0  0  0  0
    2.3472    1.4270    8.7346 C   0  0  0  0  0  0  0  0  0  0  0  0
    3.1676   -0.4915    2.9553 C   0  0  1  0  0  0  0  0  0  0  0  0
    4.1408   -0.2589    1.7877 C   0  0  0  0  0  0  0  0  0  0  0  0
    2.7759   -2.1150    3.3349 C   0  0  1  0  0  0  0  0  0  0  0  0
    3.8503   -3.0980    2.8197 C   0  0  0  0  0  0  0  0  0  0  0  0
    1.6608   -1.8785    2.3103 C   0  0  0  0  0  0  0  0  0  0  0  0
    1.6311   -0.4028    2.6880 C   0  0  1  0  0  0  0  0  0  0  0  0
    1.1628    0.4344    1.6599 O   0  0  0  0  0  0  0  0  0  0  0  0
    0.4574    1.4124    4.4933 C   0  0  1  0  0  0  0  0  0  0  0  0
   -0.4619    2.2101    3.5242 C   0  0  0  0  0  0  0  0  0  0  0  0
   -1.1449    3.4401    4.1869 C   0  0  0  0  0  0  0  0  0  0  0  0
   -0.1202    4.5620    4.4783 C   0  0  0  0  0  0  0  0  0  0  0  0
   -2.2083    3.9825    3.2061 C   0  0  0  0  0  0  0  0  0  0  0  0
   -1.7992    3.0215    5.5257 C   0  0  0  0  0  0  0  0  0  0  0  0
   -2.9532    3.3352    5.8116 O   0  0  0  0  0  0  0  0  0  0  0  0
   -0.9521    2.2075    6.5170 C   0  0  0  0  0  0  0  0  0  0  0  0
    0.0936   -3.6665    8.4222 H   0  0  0  0  0  0  0  0  0  0  0  0
   -0.5156   -5.1652    7.5334 H   0  0  0  0  0  0  0  0  0  0  0  0
    3.1117   -3.4116    5.0764 H   0  0  0  0  0  0  0  0  0  0  0  0
    2.2558   -2.8033    6.9977 H   0  0  0  0  0  0  0  0  0  0  0  0
   -0.3335   -1.6811    6.7274 H   0  0  0  0  0  0  0  0  0  0  0  0
   -1.7860   -0.5990    5.9581 H   0  0  0  0  0  0  0  0  0  0  0  0
   -2.0060    0.4621    4.6867 H   0  0  0  0  0  0  0  0  0  0  0  0
   -0.2371   -1.8606    4.4509 H   0  0  0  0  0  0  0  0  0  0  0  0
   -0.8291   -0.7376    3.3049 H   0  0  0  0  0  0  0  0  0  0  0  0
    3.0987   -1.1193    6.5932 H   0  0  0  0  0  0  0  0  0  0  0  0
    4.3776   -0.4554    5.6688 H   0  0  0  0  0  0  0  0  0  0  0  0
    2.6543    1.5966    3.2982 H   0  0  0  0  0  0  0  0  0  0  0  0
    5.0426    1.3767    4.9839 H   0  0  0  0  0  0  0  0  0  0  0  0
    4.1198    2.6948    4.4186 H   0  0  0  0  0  0  0  0  0  0  0  0
    4.1452    2.4602    6.9915 H   0  0  0  0  0  0  0  0  0  0  0  0
    2.6942    0.4741    9.1412 H   0  0  0  0  0  0  0  0  0  0  0  0
    1.4104    1.6991    9.2235 H   0  0  0  0  0  0  0  0  0  0  0  0
    3.0862    2.1872    8.9866 H   0  0  0  0  0  0  0  0  0  0  0  0
    3.8953   -0.8551    0.9107 H   0  0  0  0  0  0  0  0  0  0  0  0
    5.1600   -0.5102    2.0787 H   0  0  0  0  0  0  0  0  0  0  0  0
    4.1375    0.7776    1.4581 H   0  0  0  0  0  0  0  0  0  0  0  0
    4.1304   -2.8937    1.7839 H   0  0  0  0  0  0  0  0  0  0  0  0
    3.5004   -4.1321    2.8132 H   0  0  0  0  0  0  0  0  0  0  0  0
    4.7649   -3.0530    3.4150 H   0  0  0  0  0  0  0  0  0  0  0  0
    1.9741   -2.0504    1.2777 H   0  0  0  0  0  0  0  0  0  0  0  0
    0.7381   -2.4187    2.5007 H   0  0  0  0  0  0  0  0  0  0  0  0
    1.1844   -0.0555    0.8382 H   0  0  0  0  0  0  0  0  0  0  0  0
    1.2272    2.1418    4.6525 H   0  0  0  0  0  0  0  0  0  0  0  0
    0.1387    2.5710    2.6876 H   0  0  0  0  0  0  0  0  0  0  0  0
   -1.2112    1.5721    3.0545 H   0  0  0  0  0  0  0  0  0  0  0  0
    0.4231    4.8524    3.5772 H   0  0  0  0  0  0  0  0  0  0  0  0
    0.6187    4.2634    5.2208 H   0  0  0  0  0  0  0  0  0  0  0  0
   -0.6013    5.4568    4.8715 H   0  0  0  0  0  0  0  0  0  0  0  0
   -1.7730    4.2560    2.2448 H   0  0  0  0  0  0  0  0  0  0  0  0
   -2.6932    4.8746    3.5904 H   0  0  0  0  0  0  0  0  0  0  0  0
   -2.9825    3.2382    3.0067 H   0  0  0  0  0  0  0  0  0  0  0  0
   -1.5941    1.8546    7.3248 H   0  0  0  0  0  0  0  0  0  0  0  0
   -0.2441    2.8958    6.9770 H   0  0  0  0  0  0  0  0  0  0  0  0
  1  2  2  0
  1 38  1  0
  1 39  1  0
  2  7  1  0
  2  3  1  0
  3  4  2  0
  3  5  1  0
  5  6  1  0
  6 25  1  0
  6  7  1  0
  6 40  1  1
  7  8  1  0
  7 41  1  1
  8 10  1  0
  8  9  1  0
  8 42  1  6
 10  9  1  1
 10 21  1  0
 10 11  1  0
 11 30  1  0
 11 37  1  1
 11 12  1  0
 12 13  1  0
 12 43  1  0
 12 44  1  0
 14 13  1  1
 13 45  1  0
 13 46  1  0
 14 28  1  0
 14 15  1  0
 14 30  1  0
 15 16  2  0
 15 17  1  0
 16 47  1  0
 16 48  1  0
 17 18  1  0
 17 23  1  0
 17 49  1  6
 18 19  1  0
 18 50  1  0
 18 51  1  0
 19 21  1  0
 19 20  1  0
 19 52  1  1
 20 21  1  0
 21 22  1  1
 22 53  1  0
 22 54  1  0
 22 55  1  0
 23 28  1  0
 23 24  1  6
 23 25  1  0
 24 56  1  0
 24 57  1  0
 24 58  1  0
 25 26  1  6
 25 27  1  0
 26 59  1  0
 26 60  1  0
 26 61  1  0
 27 28  1  0
 27 62  1  0
 27 63  1  0
 28 29  1  6
 29 64  1  0
 30 31  1  0
 30 65  1  1
 31 32  1  0
 31 66  1  0
 31 67  1  0
 32 33  1  0
 32 34  1  0
 32 35  1  0
 33 68  1  0
 33 69  1  0
 33 70  1  0
 34 71  1  0
 34 72  1  0
 34 73  1  0
 35 36  2  0
 35 37  1  0
 37 74  1  0
 37 75  1  0
M  END
>  <i_m_ct_stereo_status>  (180) 
1

>  <s_m_source_file>  (180) 
/var/tmp/pbs.5076255.sched01/tmple0dc7g8/88jbw3zpwn.sdf

>  <i_m_source_file_index>  (180) 
3

>  <i_lp_mmshare_version>  (180) 
48012

>  <i_f3d_flags>  (180) 
0

>  <s_epik_input>  (180) 
Tz1DKE8xKUMoPVtDSDJdKVtDQEBIXShbQ0BIXTJPMylbQ0BASF0xW0NAQF0oW0NIM10pKFtDSDJdNClbQ0BdKFtDSDNdKShbQ0BASF0oQzU9W0NIMl0pW0NIMl1bQ0BASF02W0NAXTcoTzYpW0NIM10pW0NAXTQoW09IXSlbQ0BdNShbQ0gyXVtDSDJdOClbQ0BIXShbQ0BdODlDMjM3KVtDSDJdQyhbQ0gzXSkoW0NIM10pQyg9TylbQ0gyXTk=

>  <s_epik_cmdline>  (180) 
J2VwaWtfcHl0aG9uJywgJy1waHQnLCAnMi4wJywgJy1waCcsICc3LjAnLCAnLXRuJywgJzgnLCAnLW1hJywgJzIwMCcsICctaW1hZScsICc8aW5maWxlLm1hZT4nLCAnLW9tYWUnLCAnPG91dGZpbGUubWFlPic=

>  <r_lp_tautomer_probability>  (180) 
1

>  <r_epik_Ionization_Penalty>  (180) 
1.47377e-07

>  <r_epik_Ionization_Penalty_Charging>  (180) 
0

>  <r_epik_Ionization_Penalty_Neutral>  (180) 
1.47377e-07

>  <r_epik_State_Penalty>  (180) 
-0

>  <r_epik_Charging_Adjusted_Penalty>  (180) 
0

>  <i_epik_Tot_Q>  (180) 
0

>  <i_epik_Tot_abs_Q>  (180) 
0

>  <s_epik_Chemistry_Notes>  (180) 
This compound has an ester and may undergo hydrolysis at high or low pH.

>  <s_lp_Force_Field>  (180) 
OPLS3e

>  <r_lp_Energy>  (180) 
398.882

>  <b_lp_Chiralities_Consistent>  (180) 
1

>  <s_lp_Variant>  (180) 
52:0-2

>  <s_i_glide_gridfile>  (180) 
pfpi4k_grid

>  <i_i_glide_lignum>  (180) 
3

>  <i_i_glide_rotatable_bonds>  (180) 
1

>  <r_i_docking_score>  (180) 
-1.93908

>  <r_i_glide_ligand_efficiency>  (180) 
-0.0524076

>  <r_i_glide_ligand_efficiency_sa>  (180) 
-0.174634

>  <r_i_glide_ligand_efficiency_ln>  (180) 
-0.420541

>  <r_i_glide_gscore>  (180) 
-1.93908

>  <r_i_glide_lipo>  (180) 
-0.0782622

>  <r_i_glide_hbond>  (180) 
-0.16

>  <r_i_glide_metal>  (180) 
-0

>  <r_i_glide_rewards>  (180) 
-0.0199091

>  <r_i_glide_evdw>  (180) 
-23.3853

>  <r_i_glide_ecoul>  (180) 
-3.38926

>  <r_i_glide_erotb>  (180) 
0

>  <r_i_glide_esite>  (180) 
-0.00325513

>  <r_i_glide_emodel>  (180) 
-29.3859

>  <r_i_glide_energy>  (180) 
-26.7746

>  <r_i_glide_einternal>  (180) 
0.83706

>  <r_i_glide_intrahb_reward>  (180) 
-0

>  <i_i_glide_confnum>  (180) 
2

>  <i_i_glide_posenum>  (180) 
23

>  <r_i_glide_eff_state_penalty>  (180) 
0

>  <ligand_id>  (180) 
52

>  <original_smiles>  (180) 
C=C1C(=O)OC2C1C1OC13C14CCC5(C(=C)C(CC6OC63C)C3(C)C2(C)CC53O)C1CC(C)(C)C(=O)C4

>  <smiles>  (180) 
[H]OC12C([H])([H])C3(C([H])([H])[H])C4([H])OC(=O)C(=C([H])[H])C4([H])C4([H])OC45C4(C([H])([H])[H])OC4([H])C([H])([H])C([H])(C(=C([H])[H])C14C([H])([H])C([H])([H])C51C([H])([H])C(=O)C(C([H])([H])[H])(C([H])([H])[H])C([H])([H])C41[H])C23C([H])([H])[H]

$$$$
52:1:1
     RDKit          3D

 75 83  0  0  1  0  0  0  0  0999 V2000
    1.4555   -4.9428    7.3374 C   0  0  0  0  0  0  0  0  0  0  0  0
    1.8162   -4.4038    6.1574 C   0  0  0  0  0  0  0  0  0  0  0  0
    1.6388   -5.1087    4.8932 C   0  0  0  0  0  0  0  0  0  0  0  0
    1.0469   -6.1749    4.7303 O   0  0  0  0  0  0  0  0  0  0  0  0
    2.2013   -4.4120    3.9171 O   0  0  0  0  0  0  0  0  0  0  0  0
    2.9066   -3.2386    4.3090 C   0  0  2  0  0  0  0  0  0  0  0  0
    2.4842   -3.0668    5.9351 C   0  0  1  0  0  0  0  0  0  0  0  0
    1.6169   -1.8909    6.6776 C   0  0  1  0  0  0  0  0  0  0  0  0
    1.7696   -1.2394    7.9195 O   0  0  0  0  0  0  0  0  0  0  0  0
    1.6832   -0.2512    6.8389 C   0  0  2  0  0  0  0  0  0  0  0  0
    0.3587    0.3357    6.1560 C   0  0  2  0  0  0  0  0  0  0  0  0
   -0.6152   -0.7662    5.6636 C   0  0  0  0  0  0  0  0  0  0  0  0
    0.1497   -1.3920    4.4722 C   0  0  0  0  0  0  0  0  0  0  0  0
    1.3346   -0.4244    4.0920 C   0  0  1  0  0  0  0  0  0  0  0  0
    2.8846   -0.3247    4.4950 C   0  0  0  0  0  0  0  0  0  0  0  0
    3.9367   -0.8747    5.2350 C   0  0  0  0  0  0  0  0  0  0  0  0
    3.3215    0.6357    3.5627 C   0  0  1  0  0  0  0  0  0  0  0  0
    4.2315    1.5609    4.4963 C   0  0  0  0  0  0  0  0  0  0  0  0
    3.8663    1.6885    6.0923 C   0  0  1  0  0  0  0  0  0  0  0  0
    2.6124    2.1556    6.5793 O   0  0  0  0  0  0  0  0  0  0  0  0
    2.9026    0.8365    7.0978 C   0  0  1  0  0  0  0  0  0  0  0  0
    3.3649    0.8729    8.5490 C   0  0  0  0  0  0  0  0  0  0  0  0
    3.2693   -0.6155    2.5835 C   0  0  1  0  0  0  0  0  0  0  0  0
    3.9846   -0.2089    1.2844 C   0  0  0  0  0  0  0  0  0  0  0  0
    3.1271   -2.2908    2.9078 C   0  0  1  0  0  0  0  0  0  0  0  0
    4.1785   -3.1184    2.1350 C   0  0  0  0  0  0  0  0  0  0  0  0
    1.8190   -2.1316    2.1286 C   0  0  0  0  0  0  0  0  0  0  0  0
    1.7064   -0.6853    2.5916 C   0  0  1  0  0  0  0  0  0  0  0  0
    0.9784    0.1320    1.6908 O   0  0  0  0  0  0  0  0  0  0  0  0
    0.7210    0.8797    4.7275 C   0  0  1  0  0  0  0  0  0  0  0  0
   -0.4388    1.6212    4.0065 C   0  0  0  0  0  0  0  0  0  0  0  0
   -1.1029    2.7284    4.8737 C   0  0  0  0  0  0  0  0  0  0  0  0
   -0.1605    3.9404    5.0589 C   0  0  0  0  0  0  0  0  0  0  0  0
   -2.3763    3.2053    4.1457 C   0  0  0  0  0  0  0  0  0  0  0  0
   -1.4524    2.1671    6.2760 C   0  0  0  0  0  0  0  0  0  0  0  0
   -2.5573    2.3224    6.7869 O   0  0  0  0  0  0  0  0  0  0  0  0
   -0.3551    1.3996    7.0298 C   0  0  0  0  0  0  0  0  0  0  0  0
    1.6134   -4.4158    8.2650 H   0  0  0  0  0  0  0  0  0  0  0  0
    1.0075   -5.9239    7.3910 H   0  0  0  0  0  0  0  0  0  0  0  0
    3.9125   -3.6397    4.4590 H   0  0  0  0  0  0  0  0  0  0  0  0
    3.3743   -3.2391    6.5433 H   0  0  0  0  0  0  0  0  0  0  0  0
    0.6836   -2.4021    6.8401 H   0  0  0  0  0  0  0  0  0  0  0  0
   -0.9863   -1.4504    6.4234 H   0  0  0  0  0  0  0  0  0  0  0  0
   -1.5509   -0.3507    5.2945 H   0  0  0  0  0  0  0  0  0  0  0  0
    0.3734   -2.4458    4.5823 H   0  0  0  0  0  0  0  0  0  0  0  0
   -0.5622   -1.3810    3.6537 H   0  0  0  0  0  0  0  0  0  0  0  0
    3.9528   -1.4498    6.1204 H   0  0  0  0  0  0  0  0  0  0  0  0
    4.9605   -0.5968    5.0344 H   0  0  0  0  0  0  0  0  0  0  0  0
    2.6219    1.3744    3.1730 H   0  0  0  0  0  0  0  0  0  0  0  0
    5.2923    1.3299    4.3857 H   0  0  0  0  0  0  0  0  0  0  0  0
    4.1540    2.5671    4.0915 H   0  0  0  0  0  0  0  0  0  0  0  0
    4.6900    2.1959    6.5904 H   0  0  0  0  0  0  0  0  0  0  0  0
    3.8759   -0.0557    8.8121 H   0  0  0  0  0  0  0  0  0  0  0  0
    2.5143    1.0097    9.2180 H   0  0  0  0  0  0  0  0  0  0  0  0
    4.0583    1.6962    8.7198 H   0  0  0  0  0  0  0  0  0  0  0  0
    3.6368   -0.7774    0.4239 H   0  0  0  0  0  0  0  0  0  0  0  0
    5.0594   -0.3652    1.3664 H   0  0  0  0  0  0  0  0  0  0  0  0
    3.8230    0.8408    1.0464 H   0  0  0  0  0  0  0  0  0  0  0  0
    4.2367   -2.8281    1.0829 H   0  0  0  0  0  0  0  0  0  0  0  0
    3.9381   -4.1835    2.1136 H   0  0  0  0  0  0  0  0  0  0  0  0
    5.1813   -3.0066    2.5555 H   0  0  0  0  0  0  0  0  0  0  0  0
    1.9449   -2.2207    1.0481 H   0  0  0  0  0  0  0  0  0  0  0  0
    1.0168   -2.7803    2.4680 H   0  0  0  0  0  0  0  0  0  0  0  0
    1.0367   -0.2432    0.8092 H   0  0  0  0  0  0  0  0  0  0  0  0
    1.4312    1.6804    4.8021 H   0  0  0  0  0  0  0  0  0  0  0  0
   -0.0424    2.0923    3.1055 H   0  0  0  0  0  0  0  0  0  0  0  0
   -1.1944    0.9295    3.6333 H   0  0  0  0  0  0  0  0  0  0  0  0
    0.1769    4.3389    4.1003 H   0  0  0  0  0  0  0  0  0  0  0  0
    0.7298    3.6862    5.6324 H   0  0  0  0  0  0  0  0  0  0  0  0
   -0.6508    4.7524    5.5970 H   0  0  0  0  0  0  0  0  0  0  0  0
   -2.1469    3.5876    3.1482 H   0  0  0  0  0  0  0  0  0  0  0  0
   -2.8736    3.9955    4.7037 H   0  0  0  0  0  0  0  0  0  0  0  0
   -3.0930    2.3925    4.0217 H   0  0  0  0  0  0  0  0  0  0  0  0
   -0.7931    0.9332    7.9140 H   0  0  0  0  0  0  0  0  0  0  0  0
    0.3534    2.1366    7.4038 H   0  0  0  0  0  0  0  0  0  0  0  0
  1  2  2  0
  1 38  1  0
  1 39  1  0
  2  7  1  0
  2  3  1  0
  3  4  2  0
  3  5  1  0
  5  6  1  0
  6 25  1  0
  6  7  1  0
  6 40  1  1
  7  8  1  0
  7 41  1  1
  8 10  1  0
  8  9  1  0
  8 42  1  1
 10  9  1  1
 10 21  1  0
 10 11  1  0
 11 30  1  0
 11 37  1  1
 11 12  1  0
 12 13  1  0
 12 43  1  0
 12 44  1  0
 14 13  1  1
 13 45  1  0
 13 46  1  0
 14 28  1  0
 14 15  1  0
 14 30  1  0
 15 16  2  0
 15 17  1  0
 16 47  1  0
 16 48  1  0
 17 18  1  0
 17 23  1  0
 17 49  1  6
 18 19  1  0
 18 50  1  0
 18 51  1  0
 19 21  1  0
 19 20  1  0
 19 52  1  1
 20 21  1  0
 21 22  1  1
 22 53  1  0
 22 54  1  0
 22 55  1  0
 23 28  1  0
 23 24  1  6
 23 25  1  0
 24 56  1  0
 24 57  1  0
 24 58  1  0
 25 26  1  6
 25 27  1  0
 26 59  1  0
 26 60  1  0
 26 61  1  0
 27 28  1  0
 27 62  1  0
 27 63  1  0
 28 29  1  6
 29 64  1  0
 30 31  1  0
 30 65  1  1
 31 32  1  0
 31 66  1  0
 31 67  1  0
 32 33  1  0
 32 34  1  0
 32 35  1  0
 33 68  1  0
 33 69  1  0
 33 70  1  0
 34 71  1  0
 34 72  1  0
 34 73  1  0
 35 36  2  0
 35 37  1  0
 37 74  1  0
 37 75  1  0
M  END
>  <i_m_ct_stereo_status>  (181) 
1

>  <s_m_source_file>  (181) 
/var/tmp/pbs.5076255.sched01/tmple0dc7g8/88jbw3zpwn.sdf

>  <i_m_source_file_index>  (181) 
3

>  <i_lp_mmshare_version>  (181) 
48012

>  <i_f3d_flags>  (181) 
0

>  <s_epik_input>  (181) 
Tz1DKE8xKUMoPVtDSDJdKVtDQEBIXShbQ0BIXTJPMylbQ0BASF0xW0NAQF0oW0NIM10pKFtDSDJdNClbQ0BdKFtDSDNdKShbQ0BASF0oQzU9W0NIMl0pW0NIMl1bQ0BASF02W0NAXTcoTzYpW0NIM10pW0NAXTQoW09IXSlbQ0BdNShbQ0gyXVtDSDJdOClbQ0BIXShbQ0BdODlDMjM3KVtDSDJdQyhbQ0gzXSkoW0NIM10pQyg9TylbQ0gyXTk=

>  <s_epik_cmdline>  (181) 
J2VwaWtfcHl0aG9uJywgJy1waHQnLCAnMi4wJywgJy1waCcsICc3LjAnLCAnLXRuJywgJzgnLCAnLW1hJywgJzIwMCcsICctaW1hZScsICc8aW5maWxlLm1hZT4nLCAnLW9tYWUnLCAnPG91dGZpbGUubWFlPic=

>  <r_lp_tautomer_probability>  (181) 
1

>  <r_epik_Ionization_Penalty>  (181) 
1.47377e-07

>  <r_epik_Ionization_Penalty_Charging>  (181) 
0

>  <r_epik_Ionization_Penalty_Neutral>  (181) 
1.47377e-07

>  <r_epik_State_Penalty>  (181) 
-0

>  <r_epik_Charging_Adjusted_Penalty>  (181) 
0

>  <i_epik_Tot_Q>  (181) 
0

>  <i_epik_Tot_abs_Q>  (181) 
0

>  <s_epik_Chemistry_Notes>  (181) 
This compound has an ester and may undergo hydrolysis at high or low pH.

>  <s_lp_Force_Field>  (181) 
OPLS3e

>  <r_lp_Energy>  (181) 
398.882

>  <b_lp_Chiralities_Consistent>  (181) 
1

>  <s_lp_Variant>  (181) 
52:0-2

>  <s_i_glide_gridfile>  (181) 
pfpi4k_grid

>  <i_i_glide_lignum>  (181) 
3

>  <i_i_glide_rotatable_bonds>  (181) 
1

>  <r_i_docking_score>  (181) 
-1.89726

>  <r_i_glide_ligand_efficiency>  (181) 
-0.0512774

>  <r_i_glide_ligand_efficiency_sa>  (181) 
-0.170868

>  <r_i_glide_ligand_efficiency_ln>  (181) 
-0.411472

>  <r_i_glide_gscore>  (181) 
-1.89726

>  <r_i_glide_lipo>  (181) 
-0.0719743

>  <r_i_glide_hbond>  (181) 
-0.16

>  <r_i_glide_metal>  (181) 
-0

>  <r_i_glide_rewards>  (181) 
0

>  <r_i_glide_evdw>  (181) 
-20.5512

>  <r_i_glide_ecoul>  (181) 
-4.22187

>  <r_i_glide_erotb>  (181) 
0

>  <r_i_glide_esite>  (181) 
-0.00444754

>  <r_i_glide_emodel>  (181) 
-27.5411

>  <r_i_glide_energy>  (181) 
-24.7731

>  <r_i_glide_einternal>  (181) 
0.464573

>  <r_i_glide_intrahb_reward>  (181) 
-0

>  <i_i_glide_confnum>  (181) 
2

>  <i_i_glide_posenum>  (181) 
20

>  <r_i_glide_eff_state_penalty>  (181) 
0

>  <ligand_id>  (181) 
52

>  <original_smiles>  (181) 
C=C1C(=O)OC2C1C1OC13C14CCC5(C(=C)C(CC6OC63C)C3(C)C2(C)CC53O)C1CC(C)(C)C(=O)C4

>  <smiles>  (181) 
[H]OC12C([H])([H])C3(C([H])([H])[H])C4([H])OC(=O)C(=C([H])[H])C4([H])C4([H])OC45C4(C([H])([H])[H])OC4([H])C([H])([H])C([H])(C(=C([H])[H])C14C([H])([H])C([H])([H])C51C([H])([H])C(=O)C(C([H])([H])[H])(C([H])([H])[H])C([H])([H])C41[H])C23C([H])([H])[H]

$$$$
52:1:2
     RDKit          3D

 75 83  0  0  1  0  0  0  0  0999 V2000
   -1.3437   -6.6548    4.8669 C   0  0  0  0  0  0  0  0  0  0  0  0
   -0.4113   -7.4626    4.3450 C   0  0  0  0  0  0  0  0  0  0  0  0
   -0.7516   -8.5693    3.4541 C   0  0  0  0  0  0  0  0  0  0  0  0
   -1.8594   -8.7936    2.9776 O   0  0  0  0  0  0  0  0  0  0  0  0
    0.3382   -9.2820    3.2130 O   0  0  0  0  0  0  0  0  0  0  0  0
    1.5200   -8.8743    3.8968 C   0  0  2  0  0  0  0  0  0  0  0  0
    1.0748   -7.4041    4.5933 C   0  0  1  0  0  0  0  0  0  0  0  0
    1.6209   -5.8841    4.2960 C   0  0  1  0  0  0  0  0  0  0  0  0
    1.9033   -4.7956    5.1474 O   0  0  0  0  0  0  0  0  0  0  0  0
    3.0653   -5.0893    4.3039 C   0  0  2  0  0  0  0  0  0  0  0  0
    3.3367   -4.6023    2.8011 C   0  0  2  0  0  0  0  0  0  0  0  0
    2.1611   -4.9073    1.8430 C   0  0  0  0  0  0  0  0  0  0  0  0
    2.1888   -6.4496    1.7167 C   0  0  0  0  0  0  0  0  0  0  0  0
    3.5621   -6.9403    2.3056 C   0  0  1  0  0  0  0  0  0  0  0  0
    4.0677   -7.4531    3.7392 C   0  0  0  0  0  0  0  0  0  0  0  0
    3.7305   -7.7374    5.0617 C   0  0  0  0  0  0  0  0  0  0  0  0
    5.3429   -7.9396    3.3911 C   0  0  1  0  0  0  0  0  0  0  0  0
    6.2251   -7.3707    4.5984 C   0  0  0  0  0  0  0  0  0  0  0  0
    5.7611   -5.9712    5.3230 C   0  0  1  0  0  0  0  0  0  0  0  0
    5.6130   -4.7351    4.6291 O   0  0  0  0  0  0  0  0  0  0  0  0
    4.3843   -5.0946    5.3030 C   0  0  1  0  0  0  0  0  0  0  0  0
    4.1642   -4.2909    6.5777 C   0  0  0  0  0  0  0  0  0  0  0  0
    4.4795   -9.1590    2.8478 C   0  0  1  0  0  0  0  0  0  0  0  0
    5.4655  -10.2959    2.5330 C   0  0  0  0  0  0  0  0  0  0  0  0
    2.8353   -9.5798    3.0882 C   0  0  1  0  0  0  0  0  0  0  0  0
    2.6775  -11.0687    3.4708 C   0  0  0  0  0  0  0  0  0  0  0  0
    2.7548   -9.3612    1.5746 C   0  0  0  0  0  0  0  0  0  0  0  0
    3.8697   -8.3308    1.6744 C   0  0  1  0  0  0  0  0  0  0  0  0
    4.6105   -8.2270    0.4849 O   0  0  0  0  0  0  0  0  0  0  0  0
    4.3475   -5.5862    2.1180 C   0  0  1  0  0  0  0  0  0  0  0  0
    4.8143   -5.1486    0.6985 C   0  0  0  0  0  0  0  0  0  0  0  0
    5.3327   -3.6814    0.6377 C   0  0  0  0  0  0  0  0  0  0  0  0
    6.6872   -3.5392    1.3622 C   0  0  0  0  0  0  0  0  0  0  0  0
    5.5274   -3.2918   -0.8439 C   0  0  0  0  0  0  0  0  0  0  0  0
    4.3229   -2.7329    1.3236 C   0  0  0  0  0  0  0  0  0  0  0  0
    3.9662   -1.6792    0.7988 O   0  0  0  0  0  0  0  0  0  0  0  0
    3.7921   -3.1219    2.7106 C   0  0  0  0  0  0  0  0  0  0  0  0
   -1.0773   -5.8572    5.5419 H   0  0  0  0  0  0  0  0  0  0  0  0
   -2.3915   -6.7941    4.6427 H   0  0  0  0  0  0  0  0  0  0  0  0
    1.4632   -9.4874    4.8000 H   0  0  0  0  0  0  0  0  0  0  0  0
    1.0491   -7.5254    5.6791 H   0  0  0  0  0  0  0  0  0  0  0  0
    0.7923   -5.4810    3.7406 H   0  0  0  0  0  0  0  0  0  0  0  0
    1.2219   -4.4534    2.1350 H   0  0  0  0  0  0  0  0  0  0  0  0
    2.3065   -4.4717    0.8567 H   0  0  0  0  0  0  0  0  0  0  0  0
    1.2915   -6.9492    2.0585 H   0  0  0  0  0  0  0  0  0  0  0  0
    2.1883   -6.6538    0.6457 H   0  0  0  0  0  0  0  0  0  0  0  0
    2.9690   -7.3635    5.6918 H   0  0  0  0  0  0  0  0  0  0  0  0
    4.3878   -8.3164    5.6919 H   0  0  0  0  0  0  0  0  0  0  0  0
    5.8767   -7.5173    2.5399 H   0  0  0  0  0  0  0  0  0  0  0  0
    6.4187   -8.1333    5.3590 H   0  0  0  0  0  0  0  0  0  0  0  0
    7.2146   -7.1797    4.1876 H   0  0  0  0  0  0  0  0  0  0  0  0
    6.3572   -5.8429    6.2241 H   0  0  0  0  0  0  0  0  0  0  0  0
    3.4324   -4.7843    7.2195 H   0  0  0  0  0  0  0  0  0  0  0  0
    3.8068   -3.2874    6.3423 H   0  0  0  0  0  0  0  0  0  0  0  0
    5.0905   -4.1893    7.1428 H   0  0  0  0  0  0  0  0  0  0  0  0
    5.0853  -10.9686    1.7733 H   0  0  0  0  0  0  0  0  0  0  0  0
    5.6621  -10.8977    3.4191 H   0  0  0  0  0  0  0  0  0  0  0  0
    6.4213   -9.9271    2.1615 H   0  0  0  0  0  0  0  0  0  0  0  0
    3.2535  -11.7264    2.8185 H   0  0  0  0  0  0  0  0  0  0  0  0
    1.6471  -11.4176    3.3729 H   0  0  0  0  0  0  0  0  0  0  0  0
    3.0004  -11.2665    4.4958 H   0  0  0  0  0  0  0  0  0  0  0  0
    3.0344  -10.2411    0.9923 H   0  0  0  0  0  0  0  0  0  0  0  0
    1.8080   -8.9776    1.2072 H   0  0  0  0  0  0  0  0  0  0  0  0
    4.8107   -9.1176    0.2425 H   0  0  0  0  0  0  0  0  0  0  0  0
    5.2881   -5.5723    2.6375 H   0  0  0  0  0  0  0  0  0  0  0  0
    5.6250   -5.8062    0.3850 H   0  0  0  0  0  0  0  0  0  0  0  0
    4.0379   -5.3039   -0.0524 H   0  0  0  0  0  0  0  0  0  0  0  0
    7.4355   -4.2344    0.9797 H   0  0  0  0  0  0  0  0  0  0  0  0
    6.5881   -3.7320    2.4276 H   0  0  0  0  0  0  0  0  0  0  0  0
    7.0892   -2.5303    1.2592 H   0  0  0  0  0  0  0  0  0  0  0  0
    6.2220   -3.9680   -1.3418 H   0  0  0  0  0  0  0  0  0  0  0  0
    5.9185   -2.2792   -0.9532 H   0  0  0  0  0  0  0  0  0  0  0  0
    4.5836   -3.3403   -1.3878 H   0  0  0  0  0  0  0  0  0  0  0  0
    2.9698   -2.4559    2.9768 H   0  0  0  0  0  0  0  0  0  0  0  0
    4.5851   -2.9172    3.4254 H   0  0  0  0  0  0  0  0  0  0  0  0
  1  2  2  0
  1 38  1  0
  1 39  1  0
  2  7  1  0
  2  3  1  0
  3  4  2  0
  3  5  1  0
  5  6  1  0
  6 25  1  0
  6  7  1  0
  6 40  1  1
  7  8  1  0
  7 41  1  1
  8 10  1  0
  8  9  1  0
  8 42  1  6
 10  9  1  1
 10 21  1  0
 10 11  1  0
 11 30  1  0
 11 37  1  1
 11 12  1  0
 12 13  1  0
 12 43  1  0
 12 44  1  0
 14 13  1  1
 13 45  1  0
 13 46  1  0
 14 28  1  0
 14 15  1  0
 14 30  1  0
 15 16  2  0
 15 17  1  0
 16 47  1  0
 16 48  1  0
 17 18  1  0
 17 23  1  0
 17 49  1  6
 18 19  1  0
 18 50  1  0
 18 51  1  0
 19 21  1  0
 19 20  1  0
 19 52  1  1
 20 21  1  0
 21 22  1  1
 22 53  1  0
 22 54  1  0
 22 55  1  0
 23 28  1  0
 23 24  1  6
 23 25  1  0
 24 56  1  0
 24 57  1  0
 24 58  1  0
 25 26  1  6
 25 27  1  0
 26 59  1  0
 26 60  1  0
 26 61  1  0
 27 28  1  0
 27 62  1  0
 27 63  1  0
 28 29  1  6
 29 64  1  0
 30 31  1  0
 30 65  1  1
 31 32  1  0
 31 66  1  0
 31 67  1  0
 32 33  1  0
 32 34  1  0
 32 35  1  0
 33 68  1  0
 33 69  1  0
 33 70  1  0
 34 71  1  0
 34 72  1  0
 34 73  1  0
 35 36  2  0
 35 37  1  0
 37 74  1  0
 37 75  1  0
M  END
>  <i_m_ct_stereo_status>  (182) 
1

>  <s_m_source_file>  (182) 
/var/tmp/pbs.5076255.sched01/tmple0dc7g8/88jbw3zpwn.sdf

>  <i_m_source_file_index>  (182) 
3

>  <i_lp_mmshare_version>  (182) 
48012

>  <i_f3d_flags>  (182) 
0

>  <s_epik_input>  (182) 
Tz1DKE8xKUMoPVtDSDJdKVtDQEBIXShbQ0BIXTJPMylbQ0BASF0xW0NAQF0oW0NIM10pKFtDSDJdNClbQ0BdKFtDSDNdKShbQ0BASF0oQzU9W0NIMl0pW0NIMl1bQ0BASF02W0NAXTcoTzYpW0NIM10pW0NAXTQoW09IXSlbQ0BdNShbQ0gyXVtDSDJdOClbQ0BIXShbQ0BdODlDMjM3KVtDSDJdQyhbQ0gzXSkoW0NIM10pQyg9TylbQ0gyXTk=

>  <s_epik_cmdline>  (182) 
J2VwaWtfcHl0aG9uJywgJy1waHQnLCAnMi4wJywgJy1waCcsICc3LjAnLCAnLXRuJywgJzgnLCAnLW1hJywgJzIwMCcsICctaW1hZScsICc8aW5maWxlLm1hZT4nLCAnLW9tYWUnLCAnPG91dGZpbGUubWFlPic=

>  <r_lp_tautomer_probability>  (182) 
1

>  <r_epik_Ionization_Penalty>  (182) 
1.47377e-07

>  <r_epik_Ionization_Penalty_Charging>  (182) 
0

>  <r_epik_Ionization_Penalty_Neutral>  (182) 
1.47377e-07

>  <r_epik_State_Penalty>  (182) 
-0

>  <r_epik_Charging_Adjusted_Penalty>  (182) 
0

>  <i_epik_Tot_Q>  (182) 
0

>  <i_epik_Tot_abs_Q>  (182) 
0

>  <s_epik_Chemistry_Notes>  (182) 
This compound has an ester and may undergo hydrolysis at high or low pH.

>  <s_lp_Force_Field>  (182) 
OPLS3e

>  <r_lp_Energy>  (182) 
398.882

>  <b_lp_Chiralities_Consistent>  (182) 
1

>  <s_lp_Variant>  (182) 
52:0-2

>  <s_i_glide_gridfile>  (182) 
pfpi4k_grid

>  <i_i_glide_lignum>  (182) 
3

>  <i_i_glide_rotatable_bonds>  (182) 
1

>  <r_i_docking_score>  (182) 
-1.55847

>  <r_i_glide_ligand_efficiency>  (182) 
-0.0421207

>  <r_i_glide_ligand_efficiency_sa>  (182) 
-0.140355

>  <r_i_glide_ligand_efficiency_ln>  (182) 
-0.337995

>  <r_i_glide_gscore>  (182) 
-1.55847

>  <r_i_glide_lipo>  (182) 
-0.263498

>  <r_i_glide_hbond>  (182) 
0

>  <r_i_glide_metal>  (182) 
-0

>  <r_i_glide_rewards>  (182) 
-0.0135056

>  <r_i_glide_evdw>  (182) 
-24.3422

>  <r_i_glide_ecoul>  (182) 
-0.0298125

>  <r_i_glide_erotb>  (182) 
0

>  <r_i_glide_esite>  (182) 
-0.0598813

>  <r_i_glide_emodel>  (182) 
-26.8539

>  <r_i_glide_energy>  (182) 
-24.372

>  <r_i_glide_einternal>  (182) 
0.00482284

>  <r_i_glide_intrahb_reward>  (182) 
-0

>  <i_i_glide_confnum>  (182) 
1

>  <i_i_glide_posenum>  (182) 
22

>  <r_i_glide_eff_state_penalty>  (182) 
0

>  <ligand_id>  (182) 
52

>  <original_smiles>  (182) 
C=C1C(=O)OC2C1C1OC13C14CCC5(C(=C)C(CC6OC63C)C3(C)C2(C)CC53O)C1CC(C)(C)C(=O)C4

>  <smiles>  (182) 
[H]OC12C([H])([H])C3(C([H])([H])[H])C4([H])OC(=O)C(=C([H])[H])C4([H])C4([H])OC45C4(C([H])([H])[H])OC4([H])C([H])([H])C([H])(C(=C([H])[H])C14C([H])([H])C([H])([H])C51C([H])([H])C(=O)C(C([H])([H])[H])(C([H])([H])[H])C([H])([H])C41[H])C23C([H])([H])[H]

$$$$
52:3:0
     RDKit          3D

 75 83  0  0  1  0  0  0  0  0999 V2000
    1.3443   -3.3545    7.5162 C   0  0  0  0  0  0  0  0  0  0  0  0
    1.0576   -4.5777    7.0463 C   0  0  0  0  0  0  0  0  0  0  0  0
   -0.2728   -5.1540    7.0150 C   0  0  0  0  0  0  0  0  0  0  0  0
   -1.3130   -4.6023    7.3809 O   0  0  0  0  0  0  0  0  0  0  0  0
   -0.1721   -6.4162    6.5565 O   0  0  0  0  0  0  0  0  0  0  0  0
    1.0815   -6.8450    5.9833 C   0  0  2  0  0  0  0  0  0  0  0  0
    1.9726   -5.6602    6.5712 C   0  0  1  0  0  0  0  0  0  0  0  0
    3.3707   -5.3402    6.0727 C   0  0  1  0  0  0  0  0  0  0  0  0
    3.1608   -5.7917    4.7894 O   0  0  0  0  0  0  0  0  0  0  0  0
    4.1205   -4.8226    4.7720 C   0  0  1  0  0  0  0  0  0  0  0  0
    3.7247   -3.6132    3.8747 C   0  0  2  0  0  0  0  0  0  0  0  0
    2.3755   -3.0490    4.1558 C   0  0  0  0  0  0  0  0  0  0  0  0
    1.4743   -4.0777    3.4838 C   0  0  0  0  0  0  0  0  0  0  0  0
    2.0072   -4.9386    2.2250 C   0  0  1  0  0  0  0  0  0  0  0  0
    3.0186   -6.1406    1.9259 C   0  0  0  0  0  0  0  0  0  0  0  0
    3.5883   -6.2391    0.6996 C   0  0  0  0  0  0  0  0  0  0  0  0
    3.0165   -7.4229    2.7738 C   0  0  1  0  0  0  0  0  0  0  0  0
    4.1871   -7.8618    3.7517 C   0  0  0  0  0  0  0  0  0  0  0  0
    5.4379   -6.9733    4.0208 C   0  0  1  0  0  0  0  0  0  0  0  0
    5.7494   -5.8798    3.1525 O   0  0  0  0  0  0  0  0  0  0  0  0
    5.4552   -5.5250    4.5205 C   0  0  1  0  0  0  0  0  0  0  0  0
    6.6624   -5.0724    5.3294 C   0  0  0  0  0  0  0  0  0  0  0  0
    1.5214   -7.5389    3.1015 C   0  0  1  0  0  0  0  0  0  0  0  0
    1.0552   -8.7911    2.2917 C   0  0  0  0  0  0  0  0  0  0  0  0
    0.6749   -7.3145    4.4773 C   0  0  1  0  0  0  0  0  0  0  0  0
   -0.1417   -8.5966    4.8362 C   0  0  0  0  0  0  0  0  0  0  0  0
   -0.1529   -6.3336    3.6161 C   0  0  0  0  0  0  0  0  0  0  0  0
    0.9809   -6.1810    2.5503 C   0  0  1  0  0  0  0  0  0  0  0  0
    0.3671   -6.2682    1.2717 O   0  0  0  0  0  0  0  0  0  0  0  0
    3.3905   -4.0703    2.4345 C   0  0  1  0  0  0  0  0  0  0  0  0
    3.2838   -2.8729    1.4238 C   0  0  0  0  0  0  0  0  0  0  0  0
    4.4249   -1.8208    1.4541 C   0  0  0  0  0  0  0  0  0  0  0  0
    5.7449   -2.3941    0.8869 C   0  0  0  0  0  0  0  0  0  0  0  0
    3.9986   -0.6033    0.5999 C   0  0  0  0  0  0  0  0  0  0  0  0
    4.6655   -1.3986    2.9122 C   0  0  0  0  0  0  0  0  0  0  0  0
    4.7486   -0.2236    3.2600 O   0  0  0  0  0  0  0  0  0  0  0  0
    4.8335   -2.5259    3.9288 C   0  0  0  0  0  0  0  0  0  0  0  0
    2.3605   -2.9923    7.5625 H   0  0  0  0  0  0  0  0  0  0  0  0
    0.5669   -2.6889    7.8619 H   0  0  0  0  0  0  0  0  0  0  0  0
    1.4046   -7.7434    6.5137 H   0  0  0  0  0  0  0  0  0  0  0  0
    2.2175   -6.0693    7.5529 H   0  0  0  0  0  0  0  0  0  0  0  0
    4.0930   -5.8965    6.6671 H   0  0  0  0  0  0  0  0  0  0  0  0
    2.2082   -2.9158    5.2130 H   0  0  0  0  0  0  0  0  0  0  0  0
    2.2005   -2.0689    3.7146 H   0  0  0  0  0  0  0  0  0  0  0  0
    1.2642   -4.6576    4.3574 H   0  0  0  0  0  0  0  0  0  0  0  0
    0.5386   -3.5786    3.2317 H   0  0  0  0  0  0  0  0  0  0  0  0
    3.4847   -5.4495   -0.0339 H   0  0  0  0  0  0  0  0  0  0  0  0
    4.1727   -7.1058    0.4156 H   0  0  0  0  0  0  0  0  0  0  0  0
    3.2473   -8.1677    2.0128 H   0  0  0  0  0  0  0  0  0  0  0  0
    3.7658   -8.1259    4.7213 H   0  0  0  0  0  0  0  0  0  0  0  0
    4.5792   -8.8153    3.3980 H   0  0  0  0  0  0  0  0  0  0  0  0
    6.3024   -7.5607    4.3220 H   0  0  0  0  0  0  0  0  0  0  0  0
    6.5445   -5.3616    6.3738 H   0  0  0  0  0  0  0  0  0  0  0  0
    6.7691   -3.9925    5.3008 H   0  0  0  0  0  0  0  0  0  0  0  0
    7.5824   -5.5212    4.9517 H   0  0  0  0  0  0  0  0  0  0  0  0
   -0.0223   -8.8382    2.1439 H   0  0  0  0  0  0  0  0  0  0  0  0
    1.3633   -9.7194    2.7751 H   0  0  0  0  0  0  0  0  0  0  0  0
    1.4494   -8.8228    1.2755 H   0  0  0  0  0  0  0  0  0  0  0  0
   -0.8511   -8.8931    4.0637 H   0  0  0  0  0  0  0  0  0  0  0  0
   -0.7895   -8.5077    5.7048 H   0  0  0  0  0  0  0  0  0  0  0  0
    0.5072   -9.4525    5.0210 H   0  0  0  0  0  0  0  0  0  0  0  0
   -1.0174   -6.8422    3.1833 H   0  0  0  0  0  0  0  0  0  0  0  0
   -0.5658   -5.4625    4.1182 H   0  0  0  0  0  0  0  0  0  0  0  0
    0.2126   -7.1913    1.1230 H   0  0  0  0  0  0  0  0  0  0  0  0
    4.3568   -4.4397    2.0988 H   0  0  0  0  0  0  0  0  0  0  0  0
    3.2318   -3.2737    0.4109 H   0  0  0  0  0  0  0  0  0  0  0  0
    2.3280   -2.3589    1.5446 H   0  0  0  0  0  0  0  0  0  0  0  0
    5.6180   -2.7470   -0.1363 H   0  0  0  0  0  0  0  0  0  0  0  0
    6.1194   -3.2341    1.4725 H   0  0  0  0  0  0  0  0  0  0  0  0
    6.5343   -1.6406    0.8811 H   0  0  0  0  0  0  0  0  0  0  0  0
    3.7796   -0.8946   -0.4288 H   0  0  0  0  0  0  0  0  0  0  0  0
    4.7695    0.1681    0.5667 H   0  0  0  0  0  0  0  0  0  0  0  0
    3.0936   -0.1376    0.9969 H   0  0  0  0  0  0  0  0  0  0  0  0
    4.8991   -2.0972    4.9281 H   0  0  0  0  0  0  0  0  0  0  0  0
    5.8023   -2.9653    3.7115 H   0  0  0  0  0  0  0  0  0  0  0  0
  1  2  2  0
  1 38  1  0
  1 39  1  0
  2  7  1  0
  2  3  1  0
  3  4  2  0
  3  5  1  0
  5  6  1  0
  6 25  1  0
  6  7  1  0
  6 40  1  1
  7  8  1  0
  7 41  1  1
  8 10  1  0
  8  9  1  0
  8 42  1  1
 10  9  1  6
 10 21  1  0
 10 11  1  0
 11 30  1  0
 11 37  1  6
 11 12  1  0
 12 13  1  0
 12 43  1  0
 12 44  1  0
 14 13  1  1
 13 45  1  0
 13 46  1  0
 14 28  1  0
 14 15  1  0
 14 30  1  0
 15 16  2  0
 15 17  1  0
 16 47  1  0
 16 48  1  0
 17 18  1  0
 17 23  1  0
 17 49  1  6
 18 19  1  0
 18 50  1  0
 18 51  1  0
 19 21  1  0
 19 20  1  0
 19 52  1  1
 20 21  1  0
 21 22  1  1
 22 53  1  0
 22 54  1  0
 22 55  1  0
 23 28  1  0
 23 24  1  6
 23 25  1  0
 24 56  1  0
 24 57  1  0
 24 58  1  0
 25 26  1  1
 25 27  1  0
 26 59  1  0
 26 60  1  0
 26 61  1  0
 27 28  1  0
 27 62  1  0
 27 63  1  0
 28 29  1  6
 29 64  1  0
 30 31  1  0
 30 65  1  6
 31 32  1  0
 31 66  1  0
 31 67  1  0
 32 33  1  0
 32 34  1  0
 32 35  1  0
 33 68  1  0
 33 69  1  0
 33 70  1  0
 34 71  1  0
 34 72  1  0
 34 73  1  0
 35 36  2  0
 35 37  1  0
 37 74  1  0
 37 75  1  0
M  END
>  <i_m_ct_stereo_status>  (183) 
1

>  <s_m_source_file>  (183) 
/var/tmp/pbs.5076255.sched01/tmple0dc7g8/88jbw3zpwn.sdf

>  <i_m_source_file_index>  (183) 
5

>  <i_lp_mmshare_version>  (183) 
48012

>  <i_f3d_flags>  (183) 
0

>  <s_epik_input>  (183) 
Tz1DKE8xKUMoPVtDSDJdKVtDQEBIXShbQ0BIXTJPMylbQ0BASF0xW0NAQF0oW0NIM10pKFtDSDJdNClbQ0BdKFtDSDNdKShbQ0BASF0oQzU9W0NIMl0pW0NIMl1bQ0BASF02W0NAXTcoTzYpW0NIM10pW0NAXTQoW09IXSlbQ0BdNShbQ0gyXVtDSDJdOClbQ0BIXShbQ0BdODlDMjM3KVtDSDJdQyhbQ0gzXSkoW0NIM10pQyg9TylbQ0gyXTk=

>  <s_epik_cmdline>  (183) 
J2VwaWtfcHl0aG9uJywgJy1waHQnLCAnMi4wJywgJy1waCcsICc3LjAnLCAnLXRuJywgJzgnLCAnLW1hJywgJzIwMCcsICctaW1hZScsICc8aW5maWxlLm1hZT4nLCAnLW9tYWUnLCAnPG91dGZpbGUubWFlPic=

>  <r_lp_tautomer_probability>  (183) 
1

>  <r_epik_Ionization_Penalty>  (183) 
1.47377e-07

>  <r_epik_Ionization_Penalty_Charging>  (183) 
0

>  <r_epik_Ionization_Penalty_Neutral>  (183) 
1.47377e-07

>  <r_epik_State_Penalty>  (183) 
-0

>  <r_epik_Charging_Adjusted_Penalty>  (183) 
0

>  <i_epik_Tot_Q>  (183) 
0

>  <i_epik_Tot_abs_Q>  (183) 
0

>  <s_epik_Chemistry_Notes>  (183) 
This compound has an ester and may undergo hydrolysis at high or low pH.

>  <s_lp_Force_Field>  (183) 
OPLS3e

>  <r_lp_Energy>  (183) 
333.621

>  <b_lp_Chiralities_Consistent>  (183) 
1

>  <s_lp_Variant>  (183) 
52:0-4

>  <s_i_glide_gridfile>  (183) 
pfpi4k_grid

>  <i_i_glide_lignum>  (183) 
5

>  <i_i_glide_rotatable_bonds>  (183) 
1

>  <r_i_docking_score>  (183) 
-2.68623

>  <r_i_glide_ligand_efficiency>  (183) 
-0.0726007

>  <r_i_glide_ligand_efficiency_sa>  (183) 
-0.241922

>  <r_i_glide_ligand_efficiency_ln>  (183) 
-0.58258

>  <r_i_glide_gscore>  (183) 
-2.68623

>  <r_i_glide_lipo>  (183) 
-0.227561

>  <r_i_glide_hbond>  (183) 
-0.171877

>  <r_i_glide_metal>  (183) 
-0

>  <r_i_glide_rewards>  (183) 
-0.111092

>  <r_i_glide_evdw>  (183) 
-23.0822

>  <r_i_glide_ecoul>  (183) 
-6.81058

>  <r_i_glide_erotb>  (183) 
0

>  <r_i_glide_esite>  (183) 
0

>  <r_i_glide_emodel>  (183) 
-34.9953

>  <r_i_glide_energy>  (183) 
-29.8928

>  <r_i_glide_einternal>  (183) 
0.502559

>  <r_i_glide_intrahb_reward>  (183) 
-0

>  <i_i_glide_confnum>  (183) 
1

>  <i_i_glide_posenum>  (183) 
1

>  <r_i_glide_eff_state_penalty>  (183) 
0

>  <ligand_id>  (183) 
52

>  <original_smiles>  (183) 
C=C1C(=O)OC2C1C1OC13C14CCC5(C(=C)C(CC6OC63C)C3(C)C2(C)CC53O)C1CC(C)(C)C(=O)C4

>  <smiles>  (183) 
[H]OC12C([H])([H])C3(C([H])([H])[H])C4([H])OC(=O)C(=C([H])[H])C4([H])C4([H])OC45C4(C([H])([H])[H])OC4([H])C([H])([H])C([H])(C(=C([H])[H])C14C([H])([H])C([H])([H])C51C([H])([H])C(=O)C(C([H])([H])[H])(C([H])([H])[H])C([H])([H])C41[H])C23C([H])([H])[H]

$$$$
52:3:1
     RDKit          3D

 75 83  0  0  1  0  0  0  0  0999 V2000
    3.3603    0.9494    2.8394 C   0  0  0  0  0  0  0  0  0  0  0  0
    3.3941   -0.1366    3.6254 C   0  0  0  0  0  0  0  0  0  0  0  0
    2.4167   -0.4141    4.6389 C   0  0  0  0  0  0  0  0  0  0  0  0
    1.4358    0.2676    4.9209 O   0  0  0  0  0  0  0  0  0  0  0  0
    2.7889   -1.5544    5.2535 O   0  0  0  0  0  0  0  0  0  0  0  0
    3.8512   -2.3345    4.6571 C   0  0  2  0  0  0  0  0  0  0  0  0
    4.4305   -1.1990    3.7066 C   0  0  1  0  0  0  0  0  0  0  0  0
    5.4066   -1.4548    2.5652 C   0  0  1  0  0  0  0  0  0  0  0  0
    4.9808   -2.7422    2.3228 O   0  0  0  0  0  0  0  0  0  0  0  0
    5.5000   -2.2081    1.1791 C   0  0  1  0  0  0  0  0  0  0  0  0
    4.4669   -2.1259    0.0273 C   0  0  2  0  0  0  0  0  0  0  0  0
    3.1906   -1.4936    0.4008 C   0  0  0  0  0  0  0  0  0  0  0  0
    2.4972   -2.5916    1.1779 C   0  0  0  0  0  0  0  0  0  0  0  0
    2.8456   -4.1429    0.8984 C   0  0  1  0  0  0  0  0  0  0  0  0
    4.0294   -5.1993    1.1341 C   0  0  0  0  0  0  0  0  0  0  0  0
    4.1848   -6.2529    0.3000 C   0  0  0  0  0  0  0  0  0  0  0  0
    4.7128   -5.3313    2.4976 C   0  0  1  0  0  0  0  0  0  0  0  0
    6.2034   -4.9002    2.7733 C   0  0  0  0  0  0  0  0  0  0  0  0
    7.1118   -4.2283    1.6874 C   0  0  1  0  0  0  0  0  0  0  0  0
    6.7560   -4.2250    0.3057 O   0  0  0  0  0  0  0  0  0  0  0  0
    6.8291   -2.9248    0.9371 C   0  0  1  0  0  0  0  0  0  0  0  0
    8.0092   -2.0883    0.4569 C   0  0  0  0  0  0  0  0  0  0  0  0
    3.5304   -5.0496    3.4318 C   0  0  1  0  0  0  0  0  0  0  0  0
    3.2678   -6.4291    4.1156 C   0  0  0  0  0  0  0  0  0  0  0  0
    3.1519   -3.7771    4.3809 C   0  0  1  0  0  0  0  0  0  0  0  0
    2.9658   -4.2285    5.8632 C   0  0  0  0  0  0  0  0  0  0  0  0
    1.8115   -3.8009    3.6030 C   0  0  0  0  0  0  0  0  0  0  0  0
    2.4220   -4.6126    2.4118 C   0  0  1  0  0  0  0  0  0  0  0  0
    1.5045   -5.6404    2.0691 O   0  0  0  0  0  0  0  0  0  0  0  0
    3.8573   -3.5084   -0.2263 C   0  0  1  0  0  0  0  0  0  0  0  0
    2.9959   -3.5119   -1.5168 C   0  0  0  0  0  0  0  0  0  0  0  0
    3.6940   -3.0003   -2.8311 C   0  0  0  0  0  0  0  0  0  0  0  0
    4.8853   -3.8673   -3.3337 C   0  0  0  0  0  0  0  0  0  0  0  0
    2.6479   -2.9098   -3.9616 C   0  0  0  0  0  0  0  0  0  0  0  0
    4.2544   -1.6037   -2.5063 C   0  0  0  0  0  0  0  0  0  0  0  0
    4.0594   -0.6157   -3.2260 O   0  0  0  0  0  0  0  0  0  0  0  0
    5.1080   -1.4941   -1.2445 C   0  0  0  0  0  0  0  0  0  0  0  0
    4.1405    1.0675    2.1166 H   0  0  0  0  0  0  0  0  0  0  0  0
    2.5865    1.7006    2.8994 H   0  0  0  0  0  0  0  0  0  0  0  0
    4.6100   -2.4869    5.4294 H   0  0  0  0  0  0  0  0  0  0  0  0
    5.1032   -0.6841    4.3955 H   0  0  0  0  0  0  0  0  0  0  0  0
    6.4299   -1.3239    2.8960 H   0  0  0  0  0  0  0  0  0  0  0  0
    3.3336   -0.5785    0.9235 H   0  0  0  0  0  0  0  0  0  0  0  0
    2.6173   -1.2238   -0.4574 H   0  0  0  0  0  0  0  0  0  0  0  0
    2.7751   -2.2732    2.1556 H   0  0  0  0  0  0  0  0  0  0  0  0
    1.4272   -2.4153    1.1188 H   0  0  0  0  0  0  0  0  0  0  0  0
    3.6084   -6.3230   -0.6080 H   0  0  0  0  0  0  0  0  0  0  0  0
    4.8930   -7.0496    0.5126 H   0  0  0  0  0  0  0  0  0  0  0  0
    4.9120   -6.4038    2.5204 H   0  0  0  0  0  0  0  0  0  0  0  0
    6.2263   -4.2695    3.6572 H   0  0  0  0  0  0  0  0  0  0  0  0
    6.7503   -5.7808    3.1055 H   0  0  0  0  0  0  0  0  0  0  0  0
    8.1644   -4.3940    1.8818 H   0  0  0  0  0  0  0  0  0  0  0  0
    8.3074   -1.3667    1.2365 H   0  0  0  0  0  0  0  0  0  0  0  0
    7.7381   -1.5045   -0.4045 H   0  0  0  0  0  0  0  0  0  0  0  0
    8.8634   -2.7010    0.1954 H   0  0  0  0  0  0  0  0  0  0  0  0
    2.2820   -6.5058    4.5653 H   0  0  0  0  0  0  0  0  0  0  0  0
    4.0061   -6.6315    4.8930 H   0  0  0  0  0  0  0  0  0  0  0  0
    3.2997   -7.2742    3.4247 H   0  0  0  0  0  0  0  0  0  0  0  0
    2.1860   -4.9748    5.9916 H   0  0  0  0  0  0  0  0  0  0  0  0
    2.6474   -3.4483    6.5545 H   0  0  0  0  0  0  0  0  0  0  0  0
    3.8846   -4.6472    6.2739 H   0  0  0  0  0  0  0  0  0  0  0  0
    1.0716   -4.4086    4.1280 H   0  0  0  0  0  0  0  0  0  0  0  0
    1.3104   -2.8517    3.4184 H   0  0  0  0  0  0  0  0  0  0  0  0
    1.7376   -6.3801    2.6086 H   0  0  0  0  0  0  0  0  0  0  0  0
    4.6959   -4.0879   -0.6217 H   0  0  0  0  0  0  0  0  0  0  0  0
    2.6547   -4.5383   -1.5149 H   0  0  0  0  0  0  0  0  0  0  0  0
    2.0358   -2.9824   -1.4226 H   0  0  0  0  0  0  0  0  0  0  0  0
    4.6093   -4.8903   -3.5795 H   0  0  0  0  0  0  0  0  0  0  0  0
    5.6893   -3.9334   -2.6034 H   0  0  0  0  0  0  0  0  0  0  0  0
    5.3231   -3.4580   -4.2465 H   0  0  0  0  0  0  0  0  0  0  0  0
    2.2300   -3.8872   -4.2112 H   0  0  0  0  0  0  0  0  0  0  0  0
    3.0803   -2.4949   -4.8714 H   0  0  0  0  0  0  0  0  0  0  0  0
    1.8162   -2.2603   -3.6867 H   0  0  0  0  0  0  0  0  0  0  0  0
    5.3366   -0.4479   -1.0542 H   0  0  0  0  0  0  0  0  0  0  0  0
    6.0360   -2.0022   -1.4951 H   0  0  0  0  0  0  0  0  0  0  0  0
  1  2  2  0
  1 38  1  0
  1 39  1  0
  2  7  1  0
  2  3  1  0
  3  4  2  0
  3  5  1  0
  5  6  1  0
  6 25  1  0
  6  7  1  0
  6 40  1  1
  7  8  1  0
  7 41  1  1
  8 10  1  0
  8  9  1  0
  8 42  1  1
 10  9  1  1
 10 21  1  0
 10 11  1  0
 11 30  1  0
 11 37  1  6
 11 12  1  0
 12 13  1  0
 12 43  1  0
 12 44  1  0
 14 13  1  1
 13 45  1  0
 13 46  1  0
 14 28  1  0
 14 15  1  0
 14 30  1  0
 15 16  2  0
 15 17  1  0
 16 47  1  0
 16 48  1  0
 17 18  1  0
 17 23  1  0
 17 49  1  1
 18 19  1  0
 18 50  1  0
 18 51  1  0
 19 21  1  0
 19 20  1  0
 19 52  1  6
 20 21  1  0
 21 22  1  6
 22 53  1  0
 22 54  1  0
 22 55  1  0
 23 28  1  0
 23 24  1  1
 23 25  1  0
 24 56  1  0
 24 57  1  0
 24 58  1  0
 25 26  1  1
 25 27  1  0
 26 59  1  0
 26 60  1  0
 26 61  1  0
 27 28  1  0
 27 62  1  0
 27 63  1  0
 28 29  1  6
 29 64  1  0
 30 31  1  0
 30 65  1  6
 31 32  1  0
 31 66  1  0
 31 67  1  0
 32 33  1  0
 32 34  1  0
 32 35  1  0
 33 68  1  0
 33 69  1  0
 33 70  1  0
 34 71  1  0
 34 72  1  0
 34 73  1  0
 35 36  2  0
 35 37  1  0
 37 74  1  0
 37 75  1  0
M  END
>  <i_m_ct_stereo_status>  (184) 
1

>  <s_m_source_file>  (184) 
/var/tmp/pbs.5076255.sched01/tmple0dc7g8/88jbw3zpwn.sdf

>  <i_m_source_file_index>  (184) 
5

>  <i_lp_mmshare_version>  (184) 
48012

>  <i_f3d_flags>  (184) 
0

>  <s_epik_input>  (184) 
Tz1DKE8xKUMoPVtDSDJdKVtDQEBIXShbQ0BIXTJPMylbQ0BASF0xW0NAQF0oW0NIM10pKFtDSDJdNClbQ0BdKFtDSDNdKShbQ0BASF0oQzU9W0NIMl0pW0NIMl1bQ0BASF02W0NAXTcoTzYpW0NIM10pW0NAXTQoW09IXSlbQ0BdNShbQ0gyXVtDSDJdOClbQ0BIXShbQ0BdODlDMjM3KVtDSDJdQyhbQ0gzXSkoW0NIM10pQyg9TylbQ0gyXTk=

>  <s_epik_cmdline>  (184) 
J2VwaWtfcHl0aG9uJywgJy1waHQnLCAnMi4wJywgJy1waCcsICc3LjAnLCAnLXRuJywgJzgnLCAnLW1hJywgJzIwMCcsICctaW1hZScsICc8aW5maWxlLm1hZT4nLCAnLW9tYWUnLCAnPG91dGZpbGUubWFlPic=

>  <r_lp_tautomer_probability>  (184) 
1

>  <r_epik_Ionization_Penalty>  (184) 
1.47377e-07

>  <r_epik_Ionization_Penalty_Charging>  (184) 
0

>  <r_epik_Ionization_Penalty_Neutral>  (184) 
1.47377e-07

>  <r_epik_State_Penalty>  (184) 
-0

>  <r_epik_Charging_Adjusted_Penalty>  (184) 
0

>  <i_epik_Tot_Q>  (184) 
0

>  <i_epik_Tot_abs_Q>  (184) 
0

>  <s_epik_Chemistry_Notes>  (184) 
This compound has an ester and may undergo hydrolysis at high or low pH.

>  <s_lp_Force_Field>  (184) 
OPLS3e

>  <r_lp_Energy>  (184) 
333.621

>  <b_lp_Chiralities_Consistent>  (184) 
1

>  <s_lp_Variant>  (184) 
52:0-4

>  <s_i_glide_gridfile>  (184) 
pfpi4k_grid

>  <i_i_glide_lignum>  (184) 
5

>  <i_i_glide_rotatable_bonds>  (184) 
1

>  <r_i_docking_score>  (184) 
-2.2704

>  <r_i_glide_ligand_efficiency>  (184) 
-0.0613622

>  <r_i_glide_ligand_efficiency_sa>  (184) 
-0.204472

>  <r_i_glide_ligand_efficiency_ln>  (184) 
-0.492397

>  <r_i_glide_gscore>  (184) 
-2.2704

>  <r_i_glide_lipo>  (184) 
-0.894285

>  <r_i_glide_hbond>  (184) 
-0.0334175

>  <r_i_glide_metal>  (184) 
-0

>  <r_i_glide_rewards>  (184) 
0

>  <r_i_glide_evdw>  (184) 
-19.6403

>  <r_i_glide_ecoul>  (184) 
-2.24136

>  <r_i_glide_erotb>  (184) 
0

>  <r_i_glide_esite>  (184) 
-0.0244803

>  <r_i_glide_emodel>  (184) 
-25.0792

>  <r_i_glide_energy>  (184) 
-21.8816

>  <r_i_glide_einternal>  (184) 
0.742092

>  <r_i_glide_intrahb_reward>  (184) 
-0

>  <i_i_glide_confnum>  (184) 
1

>  <i_i_glide_posenum>  (184) 
22

>  <r_i_glide_eff_state_penalty>  (184) 
0

>  <ligand_id>  (184) 
52

>  <original_smiles>  (184) 
C=C1C(=O)OC2C1C1OC13C14CCC5(C(=C)C(CC6OC63C)C3(C)C2(C)CC53O)C1CC(C)(C)C(=O)C4

>  <smiles>  (184) 
[H]OC12C([H])([H])C3(C([H])([H])[H])C4([H])OC(=O)C(=C([H])[H])C4([H])C4([H])OC45C4(C([H])([H])[H])OC4([H])C([H])([H])C([H])(C(=C([H])[H])C14C([H])([H])C([H])([H])C51C([H])([H])C(=O)C(C([H])([H])[H])(C([H])([H])[H])C([H])([H])C41[H])C23C([H])([H])[H]

$$$$
52:3:2
     RDKit          3D

 75 83  0  0  1  0  0  0  0  0999 V2000
   -0.1720   -4.0940    6.4201 C   0  0  0  0  0  0  0  0  0  0  0  0
    0.8920   -3.9909    5.6054 C   0  0  0  0  0  0  0  0  0  0  0  0
    1.0868   -4.7782    4.4044 C   0  0  0  0  0  0  0  0  0  0  0  0
    0.3093   -5.6161    3.9487 O   0  0  0  0  0  0  0  0  0  0  0  0
    2.2932   -4.4702    3.8889 O   0  0  0  0  0  0  0  0  0  0  0  0
    2.9995   -3.3305    4.4279 C   0  0  2  0  0  0  0  0  0  0  0  0
    2.1432   -3.1939    5.7673 C   0  0  1  0  0  0  0  0  0  0  0  0
    2.1854   -1.9713    6.6639 C   0  0  1  0  0  0  0  0  0  0  0  0
    2.4695   -1.0759    5.6571 O   0  0  0  0  0  0  0  0  0  0  0  0
    1.8030   -0.4263    6.6524 C   0  0  1  0  0  0  0  0  0  0  0  0
    0.4707    0.2087    6.1543 C   0  0  2  0  0  0  0  0  0  0  0  0
   -0.4238   -0.7202    5.4069 C   0  0  0  0  0  0  0  0  0  0  0  0
    0.2755   -0.7731    4.0533 C   0  0  0  0  0  0  0  0  0  0  0  0
    1.1568    0.4705    3.5271 C   0  0  1  0  0  0  0  0  0  0  0  0
    2.5606    1.1623    3.8336 C   0  0  0  0  0  0  0  0  0  0  0  0
    2.7181    2.4789    3.5627 C   0  0  0  0  0  0  0  0  0  0  0  0
    3.8469    0.3315    3.9742 C   0  0  1  0  0  0  0  0  0  0  0  0
    4.6641    0.1462    5.3221 C   0  0  0  0  0  0  0  0  0  0  0  0
    4.1757    0.7120    6.6855 C   0  0  1  0  0  0  0  0  0  0  0  0
    3.1516    1.7091    6.7300 O   0  0  0  0  0  0  0  0  0  0  0  0
    2.8233    0.4588    7.3689 C   0  0  1  0  0  0  0  0  0  0  0  0
    2.7741    0.5249    8.8885 C   0  0  0  0  0  0  0  0  0  0  0  0
    3.5754   -0.7933    2.9610 C   0  0  1  0  0  0  0  0  0  0  0  0
    4.5922   -0.5086    1.8051 C   0  0  0  0  0  0  0  0  0  0  0  0
    3.2226   -2.3714    3.1349 C   0  0  1  0  0  0  0  0  0  0  0  0
    4.2553   -3.2531    2.3618 C   0  0  0  0  0  0  0  0  0  0  0  0
    1.9931   -2.0246    2.2605 C   0  0  0  0  0  0  0  0  0  0  0  0
    2.0902   -0.4955    2.5733 C   0  0  1  0  0  0  0  0  0  0  0  0
    1.9373    0.2193    1.3433 O   0  0  0  0  0  0  0  0  0  0  0  0
    0.7165    1.1594    4.9586 C   0  0  1  0  0  0  0  0  0  0  0  0
   -0.5290    2.0520    4.6190 C   0  0  0  0  0  0  0  0  0  0  0  0
   -1.2198    2.7712    5.8063 C   0  0  0  0  0  0  0  0  0  0  0  0
   -0.3516    3.9220    6.3654 C   0  0  0  0  0  0  0  0  0  0  0  0
   -2.5596    3.3577    5.3086 C   0  0  0  0  0  0  0  0  0  0  0  0
   -1.4601    1.7451    6.9229 C   0  0  0  0  0  0  0  0  0  0  0  0
   -2.5589    1.5824    7.4546 O   0  0  0  0  0  0  0  0  0  0  0  0
   -0.2620    0.8973    7.3415 C   0  0  0  0  0  0  0  0  0  0  0  0
   -0.2359   -3.5247    7.3351 H   0  0  0  0  0  0  0  0  0  0  0  0
   -0.9937   -4.7533    6.1852 H   0  0  0  0  0  0  0  0  0  0  0  0
    3.9876   -3.6728    4.7427 H   0  0  0  0  0  0  0  0  0  0  0  0
    2.6707   -3.9052    6.4052 H   0  0  0  0  0  0  0  0  0  0  0  0
    2.9588   -2.1083    7.4150 H   0  0  0  0  0  0  0  0  0  0  0  0
   -0.5214   -1.6737    5.9067 H   0  0  0  0  0  0  0  0  0  0  0  0
   -1.4432   -0.3571    5.2779 H   0  0  0  0  0  0  0  0  0  0  0  0
    0.8313   -1.6675    4.2330 H   0  0  0  0  0  0  0  0  0  0  0  0
   -0.4693   -1.0314    3.3003 H   0  0  0  0  0  0  0  0  0  0  0  0
    1.8820    3.1007    3.2683 H   0  0  0  0  0  0  0  0  0  0  0  0
    3.6883    2.9533    3.6327 H   0  0  0  0  0  0  0  0  0  0  0  0
    4.5726    1.0073    3.5232 H   0  0  0  0  0  0  0  0  0  0  0  0
    4.8727   -0.9136    5.4692 H   0  0  0  0  0  0  0  0  0  0  0  0
    5.6614    0.5622    5.1722 H   0  0  0  0  0  0  0  0  0  0  0  0
    4.9952    0.8921    7.3760 H   0  0  0  0  0  0  0  0  0  0  0  0
    3.0848   -0.4315    9.3136 H   0  0  0  0  0  0  0  0  0  0  0  0
    1.7706    0.7433    9.2485 H   0  0  0  0  0  0  0  0  0  0  0  0
    3.4419    1.2982    9.2704 H   0  0  0  0  0  0  0  0  0  0  0  0
    4.3241   -0.9958    0.8681 H   0  0  0  0  0  0  0  0  0  0  0  0
    5.6039   -0.8138    2.0732 H   0  0  0  0  0  0  0  0  0  0  0  0
    4.6316    0.5417    1.5149 H   0  0  0  0  0  0  0  0  0  0  0  0
    4.2883   -3.0401    1.2947 H   0  0  0  0  0  0  0  0  0  0  0  0
    4.0532   -4.3227    2.3746 H   0  0  0  0  0  0  0  0  0  0  0  0
    5.2661   -3.1209    2.7479 H   0  0  0  0  0  0  0  0  0  0  0  0
    2.2117   -2.2007    1.2062 H   0  0  0  0  0  0  0  0  0  0  0  0
    1.0759   -2.5777    2.4579 H   0  0  0  0  0  0  0  0  0  0  0  0
    1.4486   -0.3189    0.7203 H   0  0  0  0  0  0  0  0  0  0  0  0
    1.3111    1.9376    5.4290 H   0  0  0  0  0  0  0  0  0  0  0  0
   -0.2266    2.8126    3.9028 H   0  0  0  0  0  0  0  0  0  0  0  0
   -1.2742    1.4692    4.0771 H   0  0  0  0  0  0  0  0  0  0  0  0
   -0.1171    4.6556    5.5934 H   0  0  0  0  0  0  0  0  0  0  0  0
    0.5957    3.5657    6.7692 H   0  0  0  0  0  0  0  0  0  0  0  0
   -0.8596    4.4461    7.1769 H   0  0  0  0  0  0  0  0  0  0  0  0
   -2.4076    4.0598    4.4875 H   0  0  0  0  0  0  0  0  0  0  0  0
   -3.0965    3.8741    6.1055 H   0  0  0  0  0  0  0  0  0  0  0  0
   -3.2153    2.5733    4.9333 H   0  0  0  0  0  0  0  0  0  0  0  0
   -0.5768    0.1585    8.0761 H   0  0  0  0  0  0  0  0  0  0  0  0
    0.4113    1.5785    7.8551 H   0  0  0  0  0  0  0  0  0  0  0  0
  1  2  2  0
  1 38  1  0
  1 39  1  0
  2  7  1  0
  2  3  1  0
  3  4  2  0
  3  5  1  0
  5  6  1  0
  6 25  1  0
  6  7  1  0
  6 40  1  1
  7  8  1  0
  7 41  1  1
  8 10  1  0
  8  9  1  0
  8 42  1  1
 10  9  1  6
 10 21  1  0
 10 11  1  0
 11 30  1  0
 11 37  1  1
 11 12  1  0
 12 13  1  0
 12 43  1  0
 12 44  1  0
 14 13  1  1
 13 45  1  0
 13 46  1  0
 14 28  1  0
 14 15  1  0
 14 30  1  0
 15 16  2  0
 15 17  1  0
 16 47  1  0
 16 48  1  0
 17 18  1  0
 17 23  1  0
 17 49  1  6
 18 19  1  0
 18 50  1  0
 18 51  1  0
 19 21  1  0
 19 20  1  0
 19 52  1  1
 20 21  1  0
 21 22  1  1
 22 53  1  0
 22 54  1  0
 22 55  1  0
 23 28  1  0
 23 24  1  6
 23 25  1  0
 24 56  1  0
 24 57  1  0
 24 58  1  0
 25 26  1  6
 25 27  1  0
 26 59  1  0
 26 60  1  0
 26 61  1  0
 27 28  1  0
 27 62  1  0
 27 63  1  0
 28 29  1  6
 29 64  1  0
 30 31  1  0
 30 65  1  1
 31 32  1  0
 31 66  1  0
 31 67  1  0
 32 33  1  0
 32 34  1  0
 32 35  1  0
 33 68  1  0
 33 69  1  0
 33 70  1  0
 34 71  1  0
 34 72  1  0
 34 73  1  0
 35 36  2  0
 35 37  1  0
 37 74  1  0
 37 75  1  0
M  END
>  <i_m_ct_stereo_status>  (185) 
1

>  <s_m_source_file>  (185) 
/var/tmp/pbs.5076255.sched01/tmple0dc7g8/88jbw3zpwn.sdf

>  <i_m_source_file_index>  (185) 
5

>  <i_lp_mmshare_version>  (185) 
48012

>  <i_f3d_flags>  (185) 
0

>  <s_epik_input>  (185) 
Tz1DKE8xKUMoPVtDSDJdKVtDQEBIXShbQ0BIXTJPMylbQ0BASF0xW0NAQF0oW0NIM10pKFtDSDJdNClbQ0BdKFtDSDNdKShbQ0BASF0oQzU9W0NIMl0pW0NIMl1bQ0BASF02W0NAXTcoTzYpW0NIM10pW0NAXTQoW09IXSlbQ0BdNShbQ0gyXVtDSDJdOClbQ0BIXShbQ0BdODlDMjM3KVtDSDJdQyhbQ0gzXSkoW0NIM10pQyg9TylbQ0gyXTk=

>  <s_epik_cmdline>  (185) 
J2VwaWtfcHl0aG9uJywgJy1waHQnLCAnMi4wJywgJy1waCcsICc3LjAnLCAnLXRuJywgJzgnLCAnLW1hJywgJzIwMCcsICctaW1hZScsICc8aW5maWxlLm1hZT4nLCAnLW9tYWUnLCAnPG91dGZpbGUubWFlPic=

>  <r_lp_tautomer_probability>  (185) 
1

>  <r_epik_Ionization_Penalty>  (185) 
1.47377e-07

>  <r_epik_Ionization_Penalty_Charging>  (185) 
0

>  <r_epik_Ionization_Penalty_Neutral>  (185) 
1.47377e-07

>  <r_epik_State_Penalty>  (185) 
-0

>  <r_epik_Charging_Adjusted_Penalty>  (185) 
0

>  <i_epik_Tot_Q>  (185) 
0

>  <i_epik_Tot_abs_Q>  (185) 
0

>  <s_epik_Chemistry_Notes>  (185) 
This compound has an ester and may undergo hydrolysis at high or low pH.

>  <s_lp_Force_Field>  (185) 
OPLS3e

>  <r_lp_Energy>  (185) 
333.621

>  <b_lp_Chiralities_Consistent>  (185) 
1

>  <s_lp_Variant>  (185) 
52:0-4

>  <s_i_glide_gridfile>  (185) 
pfpi4k_grid

>  <i_i_glide_lignum>  (185) 
5

>  <i_i_glide_rotatable_bonds>  (185) 
1

>  <r_i_docking_score>  (185) 
-2.2105

>  <r_i_glide_ligand_efficiency>  (185) 
-0.0597433

>  <r_i_glide_ligand_efficiency_sa>  (185) 
-0.199078

>  <r_i_glide_ligand_efficiency_ln>  (185) 
-0.479406

>  <r_i_glide_gscore>  (185) 
-2.2105

>  <r_i_glide_lipo>  (185) 
-0.16614

>  <r_i_glide_hbond>  (185) 
-0.249581

>  <r_i_glide_metal>  (185) 
-0

>  <r_i_glide_rewards>  (185) 
0

>  <r_i_glide_evdw>  (185) 
-19.8083

>  <r_i_glide_ecoul>  (185) 
-5.18268

>  <r_i_glide_erotb>  (185) 
0

>  <r_i_glide_esite>  (185) 
-0.0269624

>  <r_i_glide_emodel>  (185) 
-28.9215

>  <r_i_glide_energy>  (185) 
-24.991

>  <r_i_glide_einternal>  (185) 
0.925033

>  <r_i_glide_intrahb_reward>  (185) 
-0

>  <i_i_glide_confnum>  (185) 
2

>  <i_i_glide_posenum>  (185) 
17

>  <r_i_glide_eff_state_penalty>  (185) 
0

>  <ligand_id>  (185) 
52

>  <original_smiles>  (185) 
C=C1C(=O)OC2C1C1OC13C14CCC5(C(=C)C(CC6OC63C)C3(C)C2(C)CC53O)C1CC(C)(C)C(=O)C4

>  <smiles>  (185) 
[H]OC12C([H])([H])C3(C([H])([H])[H])C4([H])OC(=O)C(=C([H])[H])C4([H])C4([H])OC45C4(C([H])([H])[H])OC4([H])C([H])([H])C([H])(C(=C([H])[H])C14C([H])([H])C([H])([H])C51C([H])([H])C(=O)C(C([H])([H])[H])(C([H])([H])[H])C([H])([H])C41[H])C23C([H])([H])[H]

$$$$
53:0:0
     RDKit          3D

 45 50  0  0  1  0  0  0  0  0999 V2000
    6.9901   -8.8891    1.4766 C   0  0  0  0  0  0  0  0  0  0  0  0
    6.1809   -7.6605    1.4612 N   0  0  0  0  0  0  0  0  0  0  0  0
    6.9087   -6.4323    1.0932 C   0  0  0  0  0  0  0  0  0  0  0  0
    6.0115   -5.3040    1.1229 N   0  0  0  0  0  0  0  0  0  0  0  0
    4.7009   -5.3270    1.4101 C   0  0  0  0  0  0  0  0  0  0  0  0
    4.0700   -4.1535    1.3763 N   0  0  0  0  0  0  0  0  0  0  0  0
    5.0826   -3.2846    1.0328 C   0  0  0  0  0  0  0  0  0  0  0  0
    5.0629   -1.8873    0.8474 C   0  0  0  0  0  0  0  0  0  0  0  0
    6.2413   -1.1934    0.4998 C   0  0  0  0  0  0  0  0  0  0  0  0
    7.4538   -1.8930    0.3277 C   0  0  0  0  0  0  0  0  0  0  0  0
    7.4928   -3.2893    0.4946 C   0  0  0  0  0  0  0  0  0  0  0  0
    6.3170   -3.9741    0.8563 C   0  0  0  0  0  0  0  0  0  0  0  0
    4.0835   -6.5435    1.7177 N   0  0  0  0  0  0  0  0  0  0  0  0
    4.8508   -7.6737    1.7607 C   0  0  0  0  0  0  0  0  0  0  0  0
    4.2933   -8.8555    2.1114 N   0  0  0  0  0  0  0  0  0  0  0  0
    2.9080   -9.0305    2.5573 C   0  0  0  0  0  0  0  0  0  0  0  0
    1.9977   -8.0030    1.8905 C   0  0  1  0  0  0  0  0  0  0  0  0
    0.7507   -7.8054    2.7093 C   0  0  0  0  0  0  0  0  0  0  0  0
   -0.3740   -8.6493    2.7616 C   0  0  0  0  0  0  0  0  0  0  0  0
   -1.4344   -8.2717    3.6143 C   0  0  0  0  0  0  0  0  0  0  0  0
   -1.3615   -7.0856    4.3801 C   0  0  0  0  0  0  0  0  0  0  0  0
   -0.2247   -6.2548    4.3188 C   0  0  0  0  0  0  0  0  0  0  0  0
    0.8178   -6.6362    3.4603 C   0  0  0  0  0  0  0  0  0  0  0  0
    2.0951   -5.8904    3.2033 C   0  0  0  0  0  0  0  0  0  0  0  0
    2.6168   -6.5932    1.9276 C   0  0  1  0  0  0  0  0  0  0  0  0
    6.5811   -9.6459    0.8051 H   0  0  0  0  0  0  0  0  0  0  0  0
    7.0579   -9.3051    2.4836 H   0  0  0  0  0  0  0  0  0  0  0  0
    7.9906   -8.6418    1.1343 H   0  0  0  0  0  0  0  0  0  0  0  0
    7.7304   -6.2610    1.7887 H   0  0  0  0  0  0  0  0  0  0  0  0
    7.3401   -6.5151    0.0960 H   0  0  0  0  0  0  0  0  0  0  0  0
    4.1311   -1.3685    0.9860 H   0  0  0  0  0  0  0  0  0  0  0  0
    6.1967   -0.1200    0.3853 H   0  0  0  0  0  0  0  0  0  0  0  0
    8.3689   -1.3678    0.0893 H   0  0  0  0  0  0  0  0  0  0  0  0
    8.4161   -3.8340    0.3791 H   0  0  0  0  0  0  0  0  0  0  0  0
    2.5703  -10.0405    2.3353 H   0  0  0  0  0  0  0  0  0  0  0  0
    2.8887   -8.9097    3.6382 H   0  0  0  0  0  0  0  0  0  0  0  0
    1.7229   -8.3155    0.8825 H   0  0  0  0  0  0  0  0  0  0  0  0
   -0.4161   -9.5592    2.1792 H   0  0  0  0  0  0  0  0  0  0  0  0
   -2.2950   -8.9190    3.7064 H   0  0  0  0  0  0  0  0  0  0  0  0
   -2.1782   -6.8102    5.0314 H   0  0  0  0  0  0  0  0  0  0  0  0
   -0.1664   -5.3401    4.8898 H   0  0  0  0  0  0  0  0  0  0  0  0
    1.9119   -4.8256    3.0497 H   0  0  0  0  0  0  0  0  0  0  0  0
    2.7703   -6.0146    4.0499 H   0  0  0  0  0  0  0  0  0  0  0  0
    2.1697   -6.0621    1.0852 H   0  0  0  0  0  0  0  0  0  0  0  0
    4.8743   -9.6830    2.1460 H   0  0  0  0  0  0  0  0  0  0  0  0
  1  2  1  0
  1 26  1  0
  1 27  1  0
  1 28  1  0
  2 14  1  0
  2  3  1  0
  3  4  1  0
  3 29  1  0
  3 30  1  0
  4 12  1  0
  4  5  1  0
  5  6  2  0
  5 13  1  0
  6  7  1  0
  7 12  2  0
  7  8  1  0
  8  9  2  0
  8 31  1  0
  9 10  1  0
  9 32  1  0
 10 11  2  0
 10 33  1  0
 11 12  1  0
 11 34  1  0
 13 25  1  0
 13 14  1  0
 14 15  2  0
 15 16  1  0
 15 45  1  0
 16 17  1  0
 16 35  1  0
 16 36  1  0
 17 25  1  0
 17 18  1  0
 17 37  1  6
 18 23  2  0
 18 19  1  0
 19 20  2  0
 19 38  1  0
 20 21  1  0
 20 39  1  0
 21 22  2  0
 21 40  1  0
 22 23  1  0
 22 41  1  0
 23 24  1  0
 24 25  1  0
 24 42  1  0
 24 43  1  0
 25 44  1  6
M  CHG  1  15   1
M  END
>  <i_m_ct_stereo_status>  (186) 
1

>  <s_m_source_file>  (186) 
/var/tmp/pbs.5076255.sched01/tmple0dc7g8/88jbw3zpwn.sdf

>  <i_m_source_file_index>  (186) 
6

>  <i_lp_mmshare_version>  (186) 
48012

>  <i_f3d_flags>  (186) 
0

>  <s_epik_input>  (186) 
W2NIXTFbY0hdW2NIXVtjSF1jKFtDSDJdW0NAQEhdMjMpYzFbQ0BASF0zW0NIMl1OPUMoTihbQ0gzXSlbQ0gyXTQpTjJjKG40NSluYzZjNVtjSF1bY0hdW2NIXVtjSF02

>  <s_epik_cmdline>  (186) 
J2VwaWtfcHl0aG9uJywgJy1waHQnLCAnMi4wJywgJy1waCcsICc3LjAnLCAnLXRuJywgJzgnLCAnLW1hJywgJzIwMCcsICctaW1hZScsICc8aW5maWxlLm1hZT4nLCAnLW9tYWUnLCAnPG91dGZpbGUubWFlPic=

>  <r_lp_tautomer_probability>  (186) 
1

>  <r_epik_Ionization_Penalty>  (186) 
0.000136194

>  <r_epik_Ionization_Penalty_Charging>  (186) 
0.000136194

>  <r_epik_Ionization_Penalty_Neutral>  (186) 
3.27238e-12

>  <r_epik_State_Penalty>  (186) 
-0

>  <r_epik_Charging_Adjusted_Penalty>  (186) 
0.000136194

>  <i_epik_Tot_Q>  (186) 
1

>  <i_epik_Tot_abs_Q>  (186) 
1

>  <s_epik_Chemistry_Notes>  (186) 
This compound has an imine and may undergo hydrolysis. This compound contains an acetal/aminal-like group ( X-CH(R)-Y where X, Y are N, S, or O) that may be acid/base labile, releasing an aldehyde.

>  <s_lp_Force_Field>  (186) 
OPLS3e

>  <r_lp_Energy>  (186) 
43.5342

>  <b_lp_Chiralities_Consistent>  (186) 
1

>  <s_lp_Variant>  (186) 
53:0-1

>  <s_i_glide_gridfile>  (186) 
pfpi4k_grid

>  <i_i_glide_lignum>  (186) 
6

>  <i_i_glide_rotatable_bonds>  (186) 
0

>  <r_i_docking_score>  (186) 
-3.71343

>  <r_i_glide_ligand_efficiency>  (186) 
-0.148537

>  <r_i_glide_ligand_efficiency_sa>  (186) 
-0.434326

>  <r_i_glide_ligand_efficiency_ln>  (186) 
-0.880195

>  <r_i_glide_gscore>  (186) 
-3.71343

>  <r_i_glide_lipo>  (186) 
-0.557707

>  <r_i_glide_hbond>  (186) 
0

>  <r_i_glide_metal>  (186) 
-0

>  <r_i_glide_rewards>  (186) 
-1.63293

>  <r_i_glide_evdw>  (186) 
-24.5389

>  <r_i_glide_ecoul>  (186) 
-1.81382

>  <r_i_glide_erotb>  (186) 
0

>  <r_i_glide_esite>  (186) 
-0.0237737

>  <r_i_glide_emodel>  (186) 
-34.0152

>  <r_i_glide_energy>  (186) 
-26.3527

>  <r_i_glide_einternal>  (186) 
0

>  <r_i_glide_intrahb_reward>  (186) 
-0

>  <i_i_glide_confnum>  (186) 
1

>  <i_i_glide_posenum>  (186) 
17

>  <r_i_glide_eff_state_penalty>  (186) 
0

>  <ligand_id>  (186) 
53

>  <original_smiles>  (186) 
CN1Cn2c(nc3ccccc32)N2C1=NCC1c3ccccc3CC12

>  <smiles>  (186) 
[H]c1c([H])c([H])c2c(c1[H])C([H])([H])C1([H])N3C(=[N+]([H])C([H])([H])C21[H])N(C([H])([H])[H])C([H])([H])n1c3nc2c([H])c([H])c([H])c([H])c21

$$$$
53:0:1
     RDKit          3D

 45 50  0  0  1  0  0  0  0  0999 V2000
    6.3590  -10.9800    2.0786 C   0  0  0  0  0  0  0  0  0  0  0  0
    5.8587   -9.6038    1.9064 N   0  0  0  0  0  0  0  0  0  0  0  0
    6.8692   -8.6121    1.5038 C   0  0  0  0  0  0  0  0  0  0  0  0
    6.2673   -7.3045    1.4106 N   0  0  0  0  0  0  0  0  0  0  0  0
    4.9728   -6.9979    1.6045 C   0  0  0  0  0  0  0  0  0  0  0  0
    4.6387   -5.7174    1.4429 N   0  0  0  0  0  0  0  0  0  0  0  0
    5.8455   -5.1396    1.1180 C   0  0  0  0  0  0  0  0  0  0  0  0
    6.1576   -3.7978    0.8293 C   0  0  0  0  0  0  0  0  0  0  0  0
    7.4749   -3.4259    0.5045 C   0  0  0  0  0  0  0  0  0  0  0  0
    8.4943   -4.3934    0.4725 C   0  0  0  0  0  0  0  0  0  0  0  0
    8.2127   -5.7445    0.7659 C   0  0  0  0  0  0  0  0  0  0  0  0
    6.8919   -6.1054    1.0873 C   0  0  0  0  0  0  0  0  0  0  0  0
    4.0740   -8.0056    1.9534 N   0  0  0  0  0  0  0  0  0  0  0  0
    4.5538   -9.2746    2.1280 C   0  0  0  0  0  0  0  0  0  0  0  0
    3.7168  -10.2560    2.5412 N   0  0  0  0  0  0  0  0  0  0  0  0
    2.3090  -10.0681    2.8970 C   0  0  0  0  0  0  0  0  0  0  0  0
    1.7092   -8.9182    2.0941 C   0  0  1  0  0  0  0  0  0  0  0  0
    0.5006   -8.3710    2.8052 C   0  0  0  0  0  0  0  0  0  0  0  0
   -0.7860   -8.9325    2.8491 C   0  0  0  0  0  0  0  0  0  0  0  0
   -1.7669   -8.2504    3.6009 C   0  0  0  0  0  0  0  0  0  0  0  0
   -1.4589   -7.0601    4.2879 C   0  0  0  0  0  0  0  0  0  0  0  0
   -0.1638   -6.4986    4.2324 C   0  0  0  0  0  0  0  0  0  0  0  0
    0.7985   -7.1858    3.4754 C   0  0  0  0  0  0  0  0  0  0  0  0
    2.2284   -6.7837    3.2582 C   0  0  0  0  0  0  0  0  0  0  0  0
    2.6334   -7.6940    2.0737 C   0  0  1  0  0  0  0  0  0  0  0  0
    5.8238  -11.6775    1.4337 H   0  0  0  0  0  0  0  0  0  0  0  0
    6.2603  -11.3068    3.1143 H   0  0  0  0  0  0  0  0  0  0  0  0
    7.4047  -11.0484    1.7943 H   0  0  0  0  0  0  0  0  0  0  0  0
    7.6758   -8.5788    2.2352 H   0  0  0  0  0  0  0  0  0  0  0  0
    7.3021   -8.8850    0.5415 H   0  0  0  0  0  0  0  0  0  0  0  0
    5.3677   -3.0663    0.8659 H   0  0  0  0  0  0  0  0  0  0  0  0
    7.7009   -2.3937    0.2944 H   0  0  0  0  0  0  0  0  0  0  0  0
    9.4866   -4.0751    0.2172 H   0  0  0  0  0  0  0  0  0  0  0  0
    8.9837   -6.5042    0.7405 H   0  0  0  0  0  0  0  0  0  0  0  0
    1.7564  -10.9892    2.7254 H   0  0  0  0  0  0  0  0  0  0  0  0
    2.2589   -9.8627    3.9656 H   0  0  0  0  0  0  0  0  0  0  0  0
    1.4626   -9.2217    1.0836 H   0  0  0  0  0  0  0  0  0  0  0  0
   -1.0180   -9.8544    2.3340 H   0  0  0  0  0  0  0  0  0  0  0  0
   -2.7611   -8.6599    3.6749 H   0  0  0  0  0  0  0  0  0  0  0  0
   -2.2244   -6.5801    4.8774 H   0  0  0  0  0  0  0  0  0  0  0  0
    0.0698   -5.5741    4.7407 H   0  0  0  0  0  0  0  0  0  0  0  0
    2.3147   -5.7228    3.0162 H   0  0  0  0  0  0  0  0  0  0  0  0
    2.8110   -6.9955    4.1559 H   0  0  0  0  0  0  0  0  0  0  0  0
    2.3583   -7.1480    1.1695 H   0  0  0  0  0  0  0  0  0  0  0  0
    4.0821  -11.1967    2.6150 H   0  0  0  0  0  0  0  0  0  0  0  0
  1  2  1  0
  1 26  1  0
  1 27  1  0
  1 28  1  0
  2 14  1  0
  2  3  1  0
  3  4  1  0
  3 29  1  0
  3 30  1  0
  4 12  1  0
  4  5  1  0
  5  6  2  0
  5 13  1  0
  6  7  1  0
  7 12  2  0
  7  8  1  0
  8  9  2  0
  8 31  1  0
  9 10  1  0
  9 32  1  0
 10 11  2  0
 10 33  1  0
 11 12  1  0
 11 34  1  0
 13 25  1  0
 13 14  1  0
 14 15  2  0
 15 16  1  0
 15 45  1  0
 16 17  1  0
 16 35  1  0
 16 36  1  0
 17 25  1  0
 17 18  1  0
 17 37  1  6
 18 23  2  0
 18 19  1  0
 19 20  2  0
 19 38  1  0
 20 21  1  0
 20 39  1  0
 21 22  2  0
 21 40  1  0
 22 23  1  0
 22 41  1  0
 23 24  1  0
 24 25  1  0
 24 42  1  0
 24 43  1  0
 25 44  1  6
M  CHG  1  15   1
M  END
>  <i_m_ct_stereo_status>  (187) 
1

>  <s_m_source_file>  (187) 
/var/tmp/pbs.5076255.sched01/tmple0dc7g8/88jbw3zpwn.sdf

>  <i_m_source_file_index>  (187) 
6

>  <i_lp_mmshare_version>  (187) 
48012

>  <i_f3d_flags>  (187) 
0

>  <s_epik_input>  (187) 
W2NIXTFbY0hdW2NIXVtjSF1jKFtDSDJdW0NAQEhdMjMpYzFbQ0BASF0zW0NIMl1OPUMoTihbQ0gzXSlbQ0gyXTQpTjJjKG40NSluYzZjNVtjSF1bY0hdW2NIXVtjSF02

>  <s_epik_cmdline>  (187) 
J2VwaWtfcHl0aG9uJywgJy1waHQnLCAnMi4wJywgJy1waCcsICc3LjAnLCAnLXRuJywgJzgnLCAnLW1hJywgJzIwMCcsICctaW1hZScsICc8aW5maWxlLm1hZT4nLCAnLW9tYWUnLCAnPG91dGZpbGUubWFlPic=

>  <r_lp_tautomer_probability>  (187) 
1

>  <r_epik_Ionization_Penalty>  (187) 
0.000136194

>  <r_epik_Ionization_Penalty_Charging>  (187) 
0.000136194

>  <r_epik_Ionization_Penalty_Neutral>  (187) 
3.27238e-12

>  <r_epik_State_Penalty>  (187) 
-0

>  <r_epik_Charging_Adjusted_Penalty>  (187) 
0.000136194

>  <i_epik_Tot_Q>  (187) 
1

>  <i_epik_Tot_abs_Q>  (187) 
1

>  <s_epik_Chemistry_Notes>  (187) 
This compound has an imine and may undergo hydrolysis. This compound contains an acetal/aminal-like group ( X-CH(R)-Y where X, Y are N, S, or O) that may be acid/base labile, releasing an aldehyde.

>  <s_lp_Force_Field>  (187) 
OPLS3e

>  <r_lp_Energy>  (187) 
43.5342

>  <b_lp_Chiralities_Consistent>  (187) 
1

>  <s_lp_Variant>  (187) 
53:0-1

>  <s_i_glide_gridfile>  (187) 
pfpi4k_grid

>  <i_i_glide_lignum>  (187) 
6

>  <i_i_glide_rotatable_bonds>  (187) 
0

>  <r_i_docking_score>  (187) 
-3.46329

>  <r_i_glide_ligand_efficiency>  (187) 
-0.138532

>  <r_i_glide_ligand_efficiency_sa>  (187) 
-0.405069

>  <r_i_glide_ligand_efficiency_ln>  (187) 
-0.820904

>  <r_i_glide_gscore>  (187) 
-3.46329

>  <r_i_glide_lipo>  (187) 
-0.465758

>  <r_i_glide_hbond>  (187) 
0

>  <r_i_glide_metal>  (187) 
-0

>  <r_i_glide_rewards>  (187) 
-1.56956

>  <r_i_glide_evdw>  (187) 
-25.3959

>  <r_i_glide_ecoul>  (187) 
-0.465394

>  <r_i_glide_erotb>  (187) 
0

>  <r_i_glide_esite>  (187) 
-0.0883696

>  <r_i_glide_emodel>  (187) 
-32.9984

>  <r_i_glide_energy>  (187) 
-25.8613

>  <r_i_glide_einternal>  (187) 
0

>  <r_i_glide_intrahb_reward>  (187) 
-0

>  <i_i_glide_confnum>  (187) 
2

>  <i_i_glide_posenum>  (187) 
28

>  <r_i_glide_eff_state_penalty>  (187) 
0

>  <ligand_id>  (187) 
53

>  <original_smiles>  (187) 
CN1Cn2c(nc3ccccc32)N2C1=NCC1c3ccccc3CC12

>  <smiles>  (187) 
[H]c1c([H])c([H])c2c(c1[H])C([H])([H])C1([H])N3C(=[N+]([H])C([H])([H])C21[H])N(C([H])([H])[H])C([H])([H])n1c3nc2c([H])c([H])c([H])c([H])c21

$$$$
53:0:2
     RDKit          3D

 45 50  0  0  1  0  0  0  0  0999 V2000
    8.5728   -6.6159    2.3238 C   0  0  0  0  0  0  0  0  0  0  0  0
    7.2486   -6.2159    1.8196 N   0  0  0  0  0  0  0  0  0  0  0  0
    7.2319   -5.0112    0.9792 C   0  0  0  0  0  0  0  0  0  0  0  0
    5.8804   -4.7063    0.5784 N   0  0  0  0  0  0  0  0  0  0  0  0
    4.7743   -5.4119    0.8748 C   0  0  0  0  0  0  0  0  0  0  0  0
    3.6233   -4.9356    0.4013 N   0  0  0  0  0  0  0  0  0  0  0  0
    4.0338   -3.8122   -0.2844 C   0  0  0  0  0  0  0  0  0  0  0  0
    3.2881   -2.8671   -1.0124 C   0  0  0  0  0  0  0  0  0  0  0  0
    3.9236   -1.7686   -1.6246 C   0  0  0  0  0  0  0  0  0  0  0  0
    5.3198   -1.6067   -1.5209 C   0  0  0  0  0  0  0  0  0  0  0  0
    6.0909   -2.5431   -0.8034 C   0  0  0  0  0  0  0  0  0  0  0  0
    5.4447   -3.6329   -0.1906 C   0  0  0  0  0  0  0  0  0  0  0  0
    4.8844   -6.5737    1.6399 N   0  0  0  0  0  0  0  0  0  0  0  0
    6.1180   -6.9214    2.1169 C   0  0  0  0  0  0  0  0  0  0  0  0
    6.2490   -8.0041    2.9188 N   0  0  0  0  0  0  0  0  0  0  0  0
    5.1319   -8.8218    3.4124 C   0  0  0  0  0  0  0  0  0  0  0  0
    3.9859   -8.8366    2.3999 C   0  0  1  0  0  0  0  0  0  0  0  0
    2.6918   -9.1706    3.0938 C   0  0  0  0  0  0  0  0  0  0  0  0
    2.2531  -10.4392    3.5095 C   0  0  0  0  0  0  0  0  0  0  0  0
    1.0071  -10.5226    4.1659 C   0  0  0  0  0  0  0  0  0  0  0  0
    0.2265   -9.3633    4.3921 C   0  0  0  0  0  0  0  0  0  0  0  0
    0.6739   -8.0963    3.9642 C   0  0  0  0  0  0  0  0  0  0  0  0
    1.9217   -8.0316    3.3199 C   0  0  0  0  0  0  0  0  0  0  0  0
    2.5955   -6.8032    2.7771 C   0  0  0  0  0  0  0  0  0  0  0  0
    3.6929   -7.4198    1.8746 C   0  0  1  0  0  0  0  0  0  0  0  0
    8.7937   -7.6396    2.0242 H   0  0  0  0  0  0  0  0  0  0  0  0
    8.6174   -6.5520    3.4112 H   0  0  0  0  0  0  0  0  0  0  0  0
    9.3542   -5.9703    1.9184 H   0  0  0  0  0  0  0  0  0  0  0  0
    7.6344   -4.1651    1.5346 H   0  0  0  0  0  0  0  0  0  0  0  0
    7.8412   -5.1583    0.0886 H   0  0  0  0  0  0  0  0  0  0  0  0
    2.2198   -2.9778   -1.0856 H   0  0  0  0  0  0  0  0  0  0  0  0
    3.3156   -1.0517   -2.1582 H   0  0  0  0  0  0  0  0  0  0  0  0
    5.7815   -0.7527   -1.9945 H   0  0  0  0  0  0  0  0  0  0  0  0
    7.1591   -2.4396   -0.7081 H   0  0  0  0  0  0  0  0  0  0  0  0
    5.4731   -9.8325    3.6225 H   0  0  0  0  0  0  0  0  0  0  0  0
    4.8037   -8.3908    4.3566 H   0  0  0  0  0  0  0  0  0  0  0  0
    4.1782   -9.5375    1.5837 H   0  0  0  0  0  0  0  0  0  0  0  0
    2.8496  -11.3240    3.3328 H   0  0  0  0  0  0  0  0  0  0  0  0
    0.6427  -11.4777    4.5166 H   0  0  0  0  0  0  0  0  0  0  0  0
   -0.7153   -9.4534    4.9145 H   0  0  0  0  0  0  0  0  0  0  0  0
    0.0766   -7.2109    4.1294 H   0  0  0  0  0  0  0  0  0  0  0  0
    1.8961   -6.1805    2.2186 H   0  0  0  0  0  0  0  0  0  0  0  0
    3.0123   -6.2151    3.5962 H   0  0  0  0  0  0  0  0  0  0  0  0
    3.2246   -7.5710    0.9004 H   0  0  0  0  0  0  0  0  0  0  0  0
    7.1663   -8.2282    3.2825 H   0  0  0  0  0  0  0  0  0  0  0  0
  1  2  1  0
  1 26  1  0
  1 27  1  0
  1 28  1  0
  2 14  1  0
  2  3  1  0
  3  4  1  0
  3 29  1  0
  3 30  1  0
  4 12  1  0
  4  5  1  0
  5  6  2  0
  5 13  1  0
  6  7  1  0
  7 12  2  0
  7  8  1  0
  8  9  2  0
  8 31  1  0
  9 10  1  0
  9 32  1  0
 10 11  2  0
 10 33  1  0
 11 12  1  0
 11 34  1  0
 13 25  1  0
 13 14  1  0
 14 15  2  0
 15 16  1  0
 15 45  1  0
 16 17  1  0
 16 35  1  0
 16 36  1  0
 17 25  1  0
 17 18  1  0
 17 37  1  6
 18 23  2  0
 18 19  1  0
 19 20  2  0
 19 38  1  0
 20 21  1  0
 20 39  1  0
 21 22  2  0
 21 40  1  0
 22 23  1  0
 22 41  1  0
 23 24  1  0
 24 25  1  0
 24 42  1  0
 24 43  1  0
 25 44  1  6
M  CHG  1  15   1
M  END
>  <i_m_ct_stereo_status>  (188) 
1

>  <s_m_source_file>  (188) 
/var/tmp/pbs.5076255.sched01/tmple0dc7g8/88jbw3zpwn.sdf

>  <i_m_source_file_index>  (188) 
6

>  <i_lp_mmshare_version>  (188) 
48012

>  <i_f3d_flags>  (188) 
0

>  <s_epik_input>  (188) 
W2NIXTFbY0hdW2NIXVtjSF1jKFtDSDJdW0NAQEhdMjMpYzFbQ0BASF0zW0NIMl1OPUMoTihbQ0gzXSlbQ0gyXTQpTjJjKG40NSluYzZjNVtjSF1bY0hdW2NIXVtjSF02

>  <s_epik_cmdline>  (188) 
J2VwaWtfcHl0aG9uJywgJy1waHQnLCAnMi4wJywgJy1waCcsICc3LjAnLCAnLXRuJywgJzgnLCAnLW1hJywgJzIwMCcsICctaW1hZScsICc8aW5maWxlLm1hZT4nLCAnLW9tYWUnLCAnPG91dGZpbGUubWFlPic=

>  <r_lp_tautomer_probability>  (188) 
1

>  <r_epik_Ionization_Penalty>  (188) 
0.000136194

>  <r_epik_Ionization_Penalty_Charging>  (188) 
0.000136194

>  <r_epik_Ionization_Penalty_Neutral>  (188) 
3.27238e-12

>  <r_epik_State_Penalty>  (188) 
-0

>  <r_epik_Charging_Adjusted_Penalty>  (188) 
0.000136194

>  <i_epik_Tot_Q>  (188) 
1

>  <i_epik_Tot_abs_Q>  (188) 
1

>  <s_epik_Chemistry_Notes>  (188) 
This compound has an imine and may undergo hydrolysis. This compound contains an acetal/aminal-like group ( X-CH(R)-Y where X, Y are N, S, or O) that may be acid/base labile, releasing an aldehyde.

>  <s_lp_Force_Field>  (188) 
OPLS3e

>  <r_lp_Energy>  (188) 
43.5342

>  <b_lp_Chiralities_Consistent>  (188) 
1

>  <s_lp_Variant>  (188) 
53:0-1

>  <s_i_glide_gridfile>  (188) 
pfpi4k_grid

>  <i_i_glide_lignum>  (188) 
6

>  <i_i_glide_rotatable_bonds>  (188) 
0

>  <r_i_docking_score>  (188) 
-3.31187

>  <r_i_glide_ligand_efficiency>  (188) 
-0.132475

>  <r_i_glide_ligand_efficiency_sa>  (188) 
-0.387358

>  <r_i_glide_ligand_efficiency_ln>  (188) 
-0.785011

>  <r_i_glide_gscore>  (188) 
-3.31187

>  <r_i_glide_lipo>  (188) 
-0.157744

>  <r_i_glide_hbond>  (188) 
0

>  <r_i_glide_metal>  (188) 
-0

>  <r_i_glide_rewards>  (188) 
-1.67059

>  <r_i_glide_evdw>  (188) 
-24.6891

>  <r_i_glide_ecoul>  (188) 
-1.66051

>  <r_i_glide_erotb>  (188) 
0

>  <r_i_glide_esite>  (188) 
0

>  <r_i_glide_emodel>  (188) 
-33.1748

>  <r_i_glide_energy>  (188) 
-26.3496

>  <r_i_glide_einternal>  (188) 
0

>  <r_i_glide_intrahb_reward>  (188) 
-0

>  <i_i_glide_confnum>  (188) 
1

>  <i_i_glide_posenum>  (188) 
2

>  <r_i_glide_eff_state_penalty>  (188) 
0

>  <ligand_id>  (188) 
53

>  <original_smiles>  (188) 
CN1Cn2c(nc3ccccc32)N2C1=NCC1c3ccccc3CC12

>  <smiles>  (188) 
[H]c1c([H])c([H])c2c(c1[H])C([H])([H])C1([H])N3C(=[N+]([H])C([H])([H])C21[H])N(C([H])([H])[H])C([H])([H])n1c3nc2c([H])c([H])c([H])c([H])c21

$$$$
54:0:0
     RDKit          3D

 58 63  0  0  1  0  0  0  0  0999 V2000
   -2.6098    3.1563    3.3067 C   0  0  0  0  0  0  0  0  0  0  0  0
   -1.5969    2.2967    4.0233 C   0  0  0  0  0  0  0  0  0  0  0  0
   -0.6212    2.6011    4.7602 N   0  0  0  0  0  0  0  0  0  0  0  0
   -0.2822    1.1204    4.9281 C   0  0  2  0  0  0  0  0  0  0  0  0
   -1.5094    0.7897    4.0863 C   0  0  0  0  0  0  0  0  0  0  0  0
   -0.3319    0.8069    6.4197 C   0  0  0  0  0  0  0  0  0  0  0  0
   -1.1746    1.1278    7.2601 O   0  0  0  0  0  0  0  0  0  0  0  0
    0.7584    0.0318    6.7014 O   0  0  0  0  0  0  0  0  0  0  0  0
    1.3996   -0.4048    5.5180 C   0  0  2  0  0  0  0  0  0  0  0  0
    2.8908   -0.6762    5.3507 C   0  0  0  0  0  0  0  0  0  0  0  0
    3.2052   -0.1498    3.9131 C   0  0  1  0  0  0  0  0  0  0  0  0
    4.0632   -1.1170    3.0267 C   0  0  2  0  0  0  0  0  0  0  0  0
    5.4259   -0.4975    2.6704 C   0  0  0  0  0  0  0  0  0  0  0  0
    6.2104   -1.3317    1.6818 C   0  0  0  0  0  0  0  0  0  0  0  0
    5.6792   -2.2769    0.8866 C   0  0  0  0  0  0  0  0  0  0  0  0
    6.5717   -3.2163    0.0985 C   0  0  0  0  0  0  0  0  0  0  0  0
    6.3479   -4.6444    0.6104 C   0  0  0  0  0  0  0  0  0  0  0  0
    7.2701   -5.4512    0.5173 O   0  0  0  0  0  0  0  0  0  0  0  0
    5.0177   -4.9969    1.1528 C   0  0  0  0  0  0  0  0  0  0  0  0
    4.0375   -4.0728    1.2464 C   0  0  0  0  0  0  0  0  0  0  0  0
    4.1760   -2.5974    0.8504 C   0  0  2  0  0  0  0  0  0  0  0  0
    3.6763   -2.4783   -0.6124 C   0  0  0  0  0  0  0  0  0  0  0  0
    3.3560   -1.5821    1.7396 C   0  0  1  0  0  0  0  0  0  0  0  0
    1.8965   -1.9477    2.0744 C   0  0  1  0  0  0  0  0  0  0  0  0
    1.8079   -2.9432    3.0770 O   0  0  0  0  0  0  0  0  0  0  0  0
    1.0697   -0.7357    2.5454 C   0  0  0  0  0  0  0  0  0  0  0  0
    1.8447    0.3742    3.3176 C   0  0  2  0  0  0  0  0  0  0  0  0
    2.0445    1.6271    2.4322 C   0  0  0  0  0  0  0  0  0  0  0  0
    1.1762    0.7888    4.6437 C   0  0  1  0  0  0  0  0  0  0  0  0
   -3.2389    2.5534    2.6517 H   0  0  0  0  0  0  0  0  0  0  0  0
   -2.1216    3.9180    2.6969 H   0  0  0  0  0  0  0  0  0  0  0  0
   -3.2635    3.6481    4.0228 H   0  0  0  0  0  0  0  0  0  0  0  0
   -2.2857    0.2740    4.6508 H   0  0  0  0  0  0  0  0  0  0  0  0
   -1.3299    0.2984    3.1381 H   0  0  0  0  0  0  0  0  0  0  0  0
    0.8411   -1.2630    5.1485 H   0  0  0  0  0  0  0  0  0  0  0  0
    3.4757   -0.1371    6.0931 H   0  0  0  0  0  0  0  0  0  0  0  0
    3.0986   -1.7376    5.4805 H   0  0  0  0  0  0  0  0  0  0  0  0
    3.8120    0.7428    4.0886 H   0  0  0  0  0  0  0  0  0  0  0  0
    4.2889   -2.0097    3.6061 H   0  0  0  0  0  0  0  0  0  0  0  0
    5.3035    0.5010    2.2571 H   0  0  0  0  0  0  0  0  0  0  0  0
    6.0227   -0.3942    3.5817 H   0  0  0  0  0  0  0  0  0  0  0  0
    7.2777   -1.1559    1.6755 H   0  0  0  0  0  0  0  0  0  0  0  0
    6.3605   -3.1643   -0.9702 H   0  0  0  0  0  0  0  0  0  0  0  0
    7.6238   -2.9559    0.2346 H   0  0  0  0  0  0  0  0  0  0  0  0
    4.8539   -6.0246    1.4453 H   0  0  0  0  0  0  0  0  0  0  0  0
    3.0783   -4.3940    1.6150 H   0  0  0  0  0  0  0  0  0  0  0  0
    4.1693   -3.1884   -1.2805 H   0  0  0  0  0  0  0  0  0  0  0  0
    3.8389   -1.4784   -1.0217 H   0  0  0  0  0  0  0  0  0  0  0  0
    2.6095   -2.6887   -0.6916 H   0  0  0  0  0  0  0  0  0  0  0  0
    3.2867   -0.6913    1.1139 H   0  0  0  0  0  0  0  0  0  0  0  0
    1.4174   -2.3358    1.1809 H   0  0  0  0  0  0  0  0  0  0  0  0
    2.2091   -2.5948    3.8626 H   0  0  0  0  0  0  0  0  0  0  0  0
    0.6184   -0.2802    1.6658 H   0  0  0  0  0  0  0  0  0  0  0  0
    0.2247   -1.1231    3.1147 H   0  0  0  0  0  0  0  0  0  0  0  0
    1.0918    2.0562    2.1189 H   0  0  0  0  0  0  0  0  0  0  0  0
    2.6130    1.4064    1.5312 H   0  0  0  0  0  0  0  0  0  0  0  0
    2.5826    2.4143    2.9604 H   0  0  0  0  0  0  0  0  0  0  0  0
    1.7699    1.6198    5.0421 H   0  0  0  0  0  0  0  0  0  0  0  0
  1  2  1  0
  1 30  1  0
  1 31  1  0
  1 32  1  0
  2  5  1  0
  2  3  2  0
  3  4  1  0
  4 29  1  0
  4  5  1  6
  4  6  1  0
  5 33  1  0
  5 34  1  0
  6  7  2  0
  6  8  1  0
  8  9  1  0
  9 29  1  0
  9 10  1  0
  9 35  1  6
 10 11  1  0
 10 36  1  0
 10 37  1  0
 11 27  1  0
 11 12  1  0
 11 38  1  1
 12 23  1  0
 12 13  1  0
 12 39  1  1
 13 14  1  0
 13 40  1  0
 13 41  1  0
 14 15  2  0
 14 42  1  0
 15 21  1  0
 15 16  1  0
 16 17  1  0
 16 43  1  0
 16 44  1  0
 17 18  2  0
 17 19  1  0
 19 20  2  0
 19 45  1  0
 20 21  1  0
 20 46  1  0
 21 22  1  6
 21 23  1  0
 22 47  1  0
 22 48  1  0
 22 49  1  0
 23 24  1  0
 23 50  1  6
 24 25  1  0
 24 26  1  0
 24 51  1  6
 25 52  1  0
 26 27  1  0
 26 53  1  0
 26 54  1  0
 27 28  1  6
 27 29  1  0
 28 55  1  0
 28 56  1  0
 28 57  1  0
 29 58  1  1
M  END
>  <i_m_ct_stereo_status>  (189) 
1

>  <s_m_source_file>  (189) 
/var/tmp/pbs.5076255.sched01/tmple0dc7g8/88jbw3zpwn.sdf

>  <i_m_source_file_index>  (189) 
7

>  <i_lp_mmshare_version>  (189) 
48012

>  <i_f3d_flags>  (189) 
0

>  <s_epik_input>  (189) 
W0NIM11DKFtDSDJdMSk9TltDQF0xMltDQEhdM1tDQEhdKE9DMj1PKVtDSDJdW0NASF00W0NASF01W0NASF0oW0NAQEhdKFtPSF0pW0NIMl1bQ0BAXTM0W0NIM10pW0NAQF02KFtDSDNdKUMoPVtDSF1bQ0gyXTUpW0NIMl1DKD1PKVtDSF09W0NIXTY=

>  <s_epik_cmdline>  (189) 
J2VwaWtfcHl0aG9uJywgJy1waHQnLCAnMi4wJywgJy1waCcsICc3LjAnLCAnLXRuJywgJzgnLCAnLW1hJywgJzIwMCcsICctaW1hZScsICc8aW5maWxlLm1hZT4nLCAnLW9tYWUnLCAnPG91dGZpbGUubWFlPic=

>  <r_lp_tautomer_probability>  (189) 
0.999986

>  <r_epik_Ionization_Penalty>  (189) 
0.0108066

>  <r_epik_Ionization_Penalty_Charging>  (189) 
0

>  <r_epik_Ionization_Penalty_Neutral>  (189) 
0.0108066

>  <r_epik_State_Penalty>  (189) 
0.00828374

>  <r_epik_Charging_Adjusted_Penalty>  (189) 
0.00828374

>  <i_epik_Tot_Q>  (189) 
0

>  <i_epik_Tot_abs_Q>  (189) 
0

>  <s_epik_Chemistry_Notes>  (189) 
This compound has an ester and may undergo hydrolysis at high or low pH. This compound has an imine and may undergo hydrolysis.

>  <s_lp_Force_Field>  (189) 
OPLS3e

>  <r_lp_Energy>  (189) 
71.729

>  <b_lp_Chiralities_Consistent>  (189) 
1

>  <s_lp_Variant>  (189) 
54:0-1

>  <s_i_glide_gridfile>  (189) 
pfpi4k_grid

>  <i_i_glide_lignum>  (189) 
7

>  <i_i_glide_rotatable_bonds>  (189) 
1

>  <r_i_docking_score>  (189) 
-3.31672

>  <r_i_glide_ligand_efficiency>  (189) 
-0.11437

>  <r_i_glide_ligand_efficiency_sa>  (189) 
-0.35138

>  <r_i_glide_ligand_efficiency_ln>  (189) 
-0.759445

>  <r_i_glide_gscore>  (189) 
-3.31672

>  <r_i_glide_lipo>  (189) 
-0.600203

>  <r_i_glide_hbond>  (189) 
-0.0462571

>  <r_i_glide_metal>  (189) 
-0

>  <r_i_glide_rewards>  (189) 
-0.862399

>  <r_i_glide_evdw>  (189) 
-27.5557

>  <r_i_glide_ecoul>  (189) 
-2.529

>  <r_i_glide_erotb>  (189) 
0

>  <r_i_glide_esite>  (189) 
-0.0507265

>  <r_i_glide_emodel>  (189) 
-36.2388

>  <r_i_glide_energy>  (189) 
-30.0847

>  <r_i_glide_einternal>  (189) 
0.00176306

>  <r_i_glide_intrahb_reward>  (189) 
-0

>  <i_i_glide_confnum>  (189) 
1

>  <i_i_glide_posenum>  (189) 
4

>  <r_i_glide_eff_state_penalty>  (189) 
0

>  <ligand_id>  (189) 
54

>  <original_smiles>  (189) 
CC1=NC2(C1)C(=O)OC1CC3C4CC=C5CC(=O)C=CC5(C)C4C(O)CC3(C)C12

>  <smiles>  (189) 
[H]OC1([H])C([H])([H])C2(C([H])([H])[H])C3([H])C([H])(OC(=O)C34N=C(C([H])([H])[H])C4([H])[H])C([H])([H])C2([H])C2([H])C([H])([H])C([H])=C3C([H])([H])C(=O)C([H])=C([H])C3(C([H])([H])[H])C12[H]

$$$$
54:0:1
     RDKit          3D

 58 63  0  0  1  0  0  0  0  0999 V2000
   -2.3977    3.9173    2.9028 C   0  0  0  0  0  0  0  0  0  0  0  0
   -1.4167    3.1076    3.7227 C   0  0  0  0  0  0  0  0  0  0  0  0
   -0.3805    3.4514    4.3447 N   0  0  0  0  0  0  0  0  0  0  0  0
   -0.1457    2.0037    4.7665 C   0  0  2  0  0  0  0  0  0  0  0  0
   -1.4505    1.6361    4.0532 C   0  0  0  0  0  0  0  0  0  0  0  0
   -0.1279    1.9712    6.2909 C   0  0  0  0  0  0  0  0  0  0  0  0
   -0.8761    2.5374    7.0856 O   0  0  0  0  0  0  0  0  0  0  0  0
    0.9088    1.1591    6.6675 O   0  0  0  0  0  0  0  0  0  0  0  0
    1.4418    0.4621    5.5588 C   0  0  2  0  0  0  0  0  0  0  0  0
    2.8952    0.0362    5.3802 C   0  0  0  0  0  0  0  0  0  0  0  0
    3.1671    0.2677    3.8592 C   0  0  1  0  0  0  0  0  0  0  0  0
    3.8949   -0.9138    3.1272 C   0  0  2  0  0  0  0  0  0  0  0  0
    5.2825   -0.4959    2.6079 C   0  0  0  0  0  0  0  0  0  0  0  0
    5.9385   -1.5626    1.7655 C   0  0  0  0  0  0  0  0  0  0  0  0
    5.2843   -2.5822    1.1781 C   0  0  0  0  0  0  0  0  0  0  0  0
    6.0504   -3.7239    0.5334 C   0  0  0  0  0  0  0  0  0  0  0  0
    5.7365   -5.0195    1.2879 C   0  0  0  0  0  0  0  0  0  0  0  0
    6.5708   -5.9216    1.2871 O   0  0  0  0  0  0  0  0  0  0  0  0
    4.4239   -5.1419    1.9574 C   0  0  0  0  0  0  0  0  0  0  0  0
    3.5281   -4.1295    1.9273 C   0  0  0  0  0  0  0  0  0  0  0  0
    3.7591   -2.7693    1.2598 C   0  0  2  0  0  0  0  0  0  0  0  0
    3.1885   -2.8730   -0.1775 C   0  0  0  0  0  0  0  0  0  0  0  0
    3.0747   -1.5420    1.9804 C   0  0  1  0  0  0  0  0  0  0  0  0
    1.6127   -1.7118    2.4450 C   0  0  1  0  0  0  0  0  0  0  0  0
    1.5144   -2.4854    3.6262 O   0  0  0  0  0  0  0  0  0  0  0  0
    0.9141   -0.3637    2.7095 C   0  0  0  0  0  0  0  0  0  0  0  0
    1.8174    0.7906    3.2375 C   0  0  2  0  0  0  0  0  0  0  0  0
    2.0666    1.8396    2.1364 C   0  0  0  0  0  0  0  0  0  0  0  0
    1.2609    1.4955    4.4900 C   0  0  1  0  0  0  0  0  0  0  0  0
   -3.1039    3.2637    2.3919 H   0  0  0  0  0  0  0  0  0  0  0  0
   -1.8715    4.5097    2.1509 H   0  0  0  0  0  0  0  0  0  0  0  0
   -2.9660    4.5877    3.5331 H   0  0  0  0  0  0  0  0  0  0  0  0
   -2.2253    1.3014    4.7393 H   0  0  0  0  0  0  0  0  0  0  0  0
   -1.3674    0.9691    3.2028 H   0  0  0  0  0  0  0  0  0  0  0  0
    0.7982   -0.3945    5.3757 H   0  0  0  0  0  0  0  0  0  0  0  0
    3.5639    0.6419    5.9881 H   0  0  0  0  0  0  0  0  0  0  0  0
    3.0184   -1.0015    5.6868 H   0  0  0  0  0  0  0  0  0  0  0  0
    3.8525    1.1184    3.8420 H   0  0  0  0  0  0  0  0  0  0  0  0
    4.0727   -1.7081    3.8538 H   0  0  0  0  0  0  0  0  0  0  0  0
    5.2161    0.4075    2.0044 H   0  0  0  0  0  0  0  0  0  0  0  0
    5.9328   -0.2805    3.4575 H   0  0  0  0  0  0  0  0  0  0  0  0
    7.0123   -1.4979    1.6841 H   0  0  0  0  0  0  0  0  0  0  0  0
    5.7828   -3.8396   -0.5160 H   0  0  0  0  0  0  0  0  0  0  0  0
    7.1249   -3.5388    0.5766 H   0  0  0  0  0  0  0  0  0  0  0  0
    4.1935   -6.0790    2.4436 H   0  0  0  0  0  0  0  0  0  0  0  0
    2.5707   -4.2909    2.3928 H   0  0  0  0  0  0  0  0  0  0  0  0
    3.5861   -3.7291   -0.7264 H   0  0  0  0  0  0  0  0  0  0  0  0
    3.4031   -1.9786   -0.7678 H   0  0  0  0  0  0  0  0  0  0  0  0
    2.1068   -3.0011   -0.1705 H   0  0  0  0  0  0  0  0  0  0  0  0
    3.0388   -0.7759    1.2050 H   0  0  0  0  0  0  0  0  0  0  0  0
    1.0476   -2.2268    1.6779 H   0  0  0  0  0  0  0  0  0  0  0  0
    0.5954   -2.6076    3.8129 H   0  0  0  0  0  0  0  0  0  0  0  0
    0.4536   -0.0356    1.7778 H   0  0  0  0  0  0  0  0  0  0  0  0
    0.0736   -0.5585    3.3755 H   0  0  0  0  0  0  0  0  0  0  0  0
    1.1365    2.2877    1.7842 H   0  0  0  0  0  0  0  0  0  0  0  0
    2.5698    1.4003    1.2798 H   0  0  0  0  0  0  0  0  0  0  0  0
    2.6955    2.6587    2.4850 H   0  0  0  0  0  0  0  0  0  0  0  0
    1.9414    2.3289    4.7031 H   0  0  0  0  0  0  0  0  0  0  0  0
  1  2  1  0
  1 30  1  0
  1 31  1  0
  1 32  1  0
  2  5  1  0
  2  3  2  0
  3  4  1  0
  4 29  1  0
  4  5  1  6
  4  6  1  0
  5 33  1  0
  5 34  1  0
  6  7  2  0
  6  8  1  0
  8  9  1  0
  9 29  1  0
  9 10  1  0
  9 35  1  6
 10 11  1  0
 10 36  1  0
 10 37  1  0
 11 27  1  0
 11 12  1  0
 11 38  1  1
 12 23  1  0
 12 13  1  0
 12 39  1  1
 13 14  1  0
 13 40  1  0
 13 41  1  0
 14 15  2  0
 14 42  1  0
 15 21  1  0
 15 16  1  0
 16 17  1  0
 16 43  1  0
 16 44  1  0
 17 18  2  0
 17 19  1  0
 19 20  2  0
 19 45  1  0
 20 21  1  0
 20 46  1  0
 21 22  1  6
 21 23  1  0
 22 47  1  0
 22 48  1  0
 22 49  1  0
 23 24  1  0
 23 50  1  6
 24 25  1  0
 24 26  1  0
 24 51  1  6
 25 52  1  0
 26 27  1  0
 26 53  1  0
 26 54  1  0
 27 28  1  6
 27 29  1  0
 28 55  1  0
 28 56  1  0
 28 57  1  0
 29 58  1  1
M  END
>  <i_m_ct_stereo_status>  (190) 
1

>  <s_m_source_file>  (190) 
/var/tmp/pbs.5076255.sched01/tmple0dc7g8/88jbw3zpwn.sdf

>  <i_m_source_file_index>  (190) 
7

>  <i_lp_mmshare_version>  (190) 
48012

>  <i_f3d_flags>  (190) 
0

>  <s_epik_input>  (190) 
W0NIM11DKFtDSDJdMSk9TltDQF0xMltDQEhdM1tDQEhdKE9DMj1PKVtDSDJdW0NASF00W0NASF01W0NASF0oW0NAQEhdKFtPSF0pW0NIMl1bQ0BAXTM0W0NIM10pW0NAQF02KFtDSDNdKUMoPVtDSF1bQ0gyXTUpW0NIMl1DKD1PKVtDSF09W0NIXTY=

>  <s_epik_cmdline>  (190) 
J2VwaWtfcHl0aG9uJywgJy1waHQnLCAnMi4wJywgJy1waCcsICc3LjAnLCAnLXRuJywgJzgnLCAnLW1hJywgJzIwMCcsICctaW1hZScsICc8aW5maWxlLm1hZT4nLCAnLW9tYWUnLCAnPG91dGZpbGUubWFlPic=

>  <r_lp_tautomer_probability>  (190) 
0.999986

>  <r_epik_Ionization_Penalty>  (190) 
0.0108066

>  <r_epik_Ionization_Penalty_Charging>  (190) 
0

>  <r_epik_Ionization_Penalty_Neutral>  (190) 
0.0108066

>  <r_epik_State_Penalty>  (190) 
0.00828374

>  <r_epik_Charging_Adjusted_Penalty>  (190) 
0.00828374

>  <i_epik_Tot_Q>  (190) 
0

>  <i_epik_Tot_abs_Q>  (190) 
0

>  <s_epik_Chemistry_Notes>  (190) 
This compound has an ester and may undergo hydrolysis at high or low pH. This compound has an imine and may undergo hydrolysis.

>  <s_lp_Force_Field>  (190) 
OPLS3e

>  <r_lp_Energy>  (190) 
71.729

>  <b_lp_Chiralities_Consistent>  (190) 
1

>  <s_lp_Variant>  (190) 
54:0-1

>  <s_i_glide_gridfile>  (190) 
pfpi4k_grid

>  <i_i_glide_lignum>  (190) 
7

>  <i_i_glide_rotatable_bonds>  (190) 
1

>  <r_i_docking_score>  (190) 
-3.12415

>  <r_i_glide_ligand_efficiency>  (190) 
-0.107729

>  <r_i_glide_ligand_efficiency_sa>  (190) 
-0.330979

>  <r_i_glide_ligand_efficiency_ln>  (190) 
-0.715351

>  <r_i_glide_gscore>  (190) 
-3.12415

>  <r_i_glide_lipo>  (190) 
-0.441153

>  <r_i_glide_hbond>  (190) 
0

>  <r_i_glide_metal>  (190) 
-0

>  <r_i_glide_rewards>  (190) 
-0.807378

>  <r_i_glide_evdw>  (190) 
-26.6742

>  <r_i_glide_ecoul>  (190) 
-3.24043

>  <r_i_glide_erotb>  (190) 
0

>  <r_i_glide_esite>  (190) 
-0.0558487

>  <r_i_glide_emodel>  (190) 
-35.5356

>  <r_i_glide_energy>  (190) 
-29.9146

>  <r_i_glide_einternal>  (190) 
0.328939

>  <r_i_glide_intrahb_reward>  (190) 
-0

>  <i_i_glide_confnum>  (190) 
1

>  <i_i_glide_posenum>  (190) 
31

>  <r_i_glide_eff_state_penalty>  (190) 
0

>  <ligand_id>  (190) 
54

>  <original_smiles>  (190) 
CC1=NC2(C1)C(=O)OC1CC3C4CC=C5CC(=O)C=CC5(C)C4C(O)CC3(C)C12

>  <smiles>  (190) 
[H]OC1([H])C([H])([H])C2(C([H])([H])[H])C3([H])C([H])(OC(=O)C34N=C(C([H])([H])[H])C4([H])[H])C([H])([H])C2([H])C2([H])C([H])([H])C([H])=C3C([H])([H])C(=O)C([H])=C([H])C3(C([H])([H])[H])C12[H]

$$$$
54:0:2
     RDKit          3D

 58 63  0  0  1  0  0  0  0  0999 V2000
   -3.5075    3.3473    2.6621 C   0  0  0  0  0  0  0  0  0  0  0  0
   -2.2164    3.2048    3.4314 C   0  0  0  0  0  0  0  0  0  0  0  0
   -1.1383    3.8398    3.3476 N   0  0  0  0  0  0  0  0  0  0  0  0
   -0.5249    2.9582    4.4328 C   0  0  2  0  0  0  0  0  0  0  0  0
   -1.8802    2.2642    4.5682 C   0  0  0  0  0  0  0  0  0  0  0  0
   -0.0726    3.8954    5.5455 C   0  0  0  0  0  0  0  0  0  0  0  0
   -0.6405    4.8822    6.0024 O   0  0  0  0  0  0  0  0  0  0  0  0
    1.1589    3.4715    5.9546 O   0  0  0  0  0  0  0  0  0  0  0  0
    1.4805    2.2169    5.3898 C   0  0  2  0  0  0  0  0  0  0  0  0
    2.8832    1.7293    5.0409 C   0  0  0  0  0  0  0  0  0  0  0  0
    2.6759    0.9415    3.7073 C   0  0  1  0  0  0  0  0  0  0  0  0
    3.3827   -0.4552    3.6403 C   0  0  2  0  0  0  0  0  0  0  0  0
    4.4706   -0.4924    2.5491 C   0  0  0  0  0  0  0  0  0  0  0  0
    5.0666   -1.8692    2.3760 C   0  0  0  0  0  0  0  0  0  0  0  0
    4.4773   -3.0102    2.7757 C   0  0  0  0  0  0  0  0  0  0  0  0
    5.2306   -4.3286    2.7385 C   0  0  0  0  0  0  0  0  0  0  0  0
    5.3845   -4.8493    4.1731 C   0  0  0  0  0  0  0  0  0  0  0  0
    6.3400   -5.5700    4.4447 O   0  0  0  0  0  0  0  0  0  0  0  0
    4.3531   -4.4848    5.1665 C   0  0  0  0  0  0  0  0  0  0  0  0
    3.3147   -3.6930    4.8334 C   0  0  0  0  0  0  0  0  0  0  0  0
    3.0947   -3.0638    3.4501 C   0  0  2  0  0  0  0  0  0  0  0  0
    2.1824   -4.0325    2.6611 C   0  0  0  0  0  0  0  0  0  0  0  0
    2.4093   -1.6423    3.4624 C   0  0  1  0  0  0  0  0  0  0  0  0
    1.1805   -1.4547    4.3856 C   0  0  1  0  0  0  0  0  0  0  0  0
    1.5534   -1.3109    5.7430 O   0  0  0  0  0  0  0  0  0  0  0  0
    0.3505   -0.2103    4.0078 C   0  0  0  0  0  0  0  0  0  0  0  0
    1.1330    0.9922    3.3882 C   0  0  2  0  0  0  0  0  0  0  0  0
    0.8685    1.1052    1.8685 C   0  0  0  0  0  0  0  0  0  0  0  0
    0.8186    2.3495    4.0536 C   0  0  1  0  0  0  0  0  0  0  0  0
   -4.1788    2.5414    2.9212 H   0  0  0  0  0  0  0  0  0  0  0  0
   -3.3703    3.3001    1.5900 H   0  0  0  0  0  0  0  0  0  0  0  0
   -4.0109    4.2881    2.8692 H   0  0  0  0  0  0  0  0  0  0  0  0
   -2.3726    2.4601    5.5208 H   0  0  0  0  0  0  0  0  0  0  0  0
   -1.9155    1.2075    4.3176 H   0  0  0  0  0  0  0  0  0  0  0  0
    0.9831    1.4569    5.9925 H   0  0  0  0  0  0  0  0  0  0  0  0
    3.5654    2.5649    4.8923 H   0  0  0  0  0  0  0  0  0  0  0  0
    3.2848    1.1221    5.8518 H   0  0  0  0  0  0  0  0  0  0  0  0
    3.1570    1.5753    2.9585 H   0  0  0  0  0  0  0  0  0  0  0  0
    3.9071   -0.6164    4.5823 H   0  0  0  0  0  0  0  0  0  0  0  0
    4.0905   -0.1490    1.5856 H   0  0  0  0  0  0  0  0  0  0  0  0
    5.2778    0.1801    2.8359 H   0  0  0  0  0  0  0  0  0  0  0  0
    6.0543   -1.8978    1.9351 H   0  0  0  0  0  0  0  0  0  0  0  0
    4.7091   -5.0714    2.1343 H   0  0  0  0  0  0  0  0  0  0  0  0
    6.2217   -4.1947    2.2999 H   0  0  0  0  0  0  0  0  0  0  0  0
    4.4470   -4.9026    6.1597 H   0  0  0  0  0  0  0  0  0  0  0  0
    2.5614   -3.4992    5.5825 H   0  0  0  0  0  0  0  0  0  0  0  0
    2.5647   -5.0548    2.6516 H   0  0  0  0  0  0  0  0  0  0  0  0
    2.0655   -3.7193    1.6222 H   0  0  0  0  0  0  0  0  0  0  0  0
    1.1869   -4.0897    3.1029 H   0  0  0  0  0  0  0  0  0  0  0  0
    2.0263   -1.5320    2.4473 H   0  0  0  0  0  0  0  0  0  0  0  0
    0.5323   -2.3270    4.3204 H   0  0  0  0  0  0  0  0  0  0  0  0
    2.1307   -0.5626    5.8011 H   0  0  0  0  0  0  0  0  0  0  0  0
   -0.4038   -0.5198    3.2883 H   0  0  0  0  0  0  0  0  0  0  0  0
   -0.2174    0.0837    4.8899 H   0  0  0  0  0  0  0  0  0  0  0  0
   -0.1877    1.2721    1.6534 H   0  0  0  0  0  0  0  0  0  0  0  0
    1.1760    0.2173    1.3185 H   0  0  0  0  0  0  0  0  0  0  0  0
    1.4029    1.9496    1.4312 H   0  0  0  0  0  0  0  0  0  0  0  0
    1.3601    3.1096    3.4822 H   0  0  0  0  0  0  0  0  0  0  0  0
  1  2  1  0
  1 30  1  0
  1 31  1  0
  1 32  1  0
  2  5  1  0
  2  3  2  0
  3  4  1  0
  4 29  1  0
  4  5  1  1
  4  6  1  0
  5 33  1  0
  5 34  1  0
  6  7  2  0
  6  8  1  0
  8  9  1  0
  9 29  1  0
  9 10  1  0
  9 35  1  1
 10 11  1  0
 10 36  1  0
 10 37  1  0
 11 27  1  0
 11 12  1  0
 11 38  1  6
 12 23  1  0
 12 13  1  0
 12 39  1  1
 13 14  1  0
 13 40  1  0
 13 41  1  0
 14 15  2  0
 14 42  1  0
 15 21  1  0
 15 16  1  0
 16 17  1  0
 16 43  1  0
 16 44  1  0
 17 18  2  0
 17 19  1  0
 19 20  2  0
 19 45  1  0
 20 21  1  0
 20 46  1  0
 21 22  1  6
 21 23  1  0
 22 47  1  0
 22 48  1  0
 22 49  1  0
 23 24  1  0
 23 50  1  6
 24 25  1  0
 24 26  1  0
 24 51  1  1
 25 52  1  0
 26 27  1  0
 26 53  1  0
 26 54  1  0
 27 28  1  6
 27 29  1  0
 28 55  1  0
 28 56  1  0
 28 57  1  0
 29 58  1  6
M  END
>  <i_m_ct_stereo_status>  (191) 
1

>  <s_m_source_file>  (191) 
/var/tmp/pbs.5076255.sched01/tmple0dc7g8/88jbw3zpwn.sdf

>  <i_m_source_file_index>  (191) 
7

>  <i_lp_mmshare_version>  (191) 
48012

>  <i_f3d_flags>  (191) 
0

>  <s_epik_input>  (191) 
W0NIM11DKFtDSDJdMSk9TltDQF0xMltDQEhdM1tDQEhdKE9DMj1PKVtDSDJdW0NASF00W0NASF01W0NASF0oW0NAQEhdKFtPSF0pW0NIMl1bQ0BAXTM0W0NIM10pW0NAQF02KFtDSDNdKUMoPVtDSF1bQ0gyXTUpW0NIMl1DKD1PKVtDSF09W0NIXTY=

>  <s_epik_cmdline>  (191) 
J2VwaWtfcHl0aG9uJywgJy1waHQnLCAnMi4wJywgJy1waCcsICc3LjAnLCAnLXRuJywgJzgnLCAnLW1hJywgJzIwMCcsICctaW1hZScsICc8aW5maWxlLm1hZT4nLCAnLW9tYWUnLCAnPG91dGZpbGUubWFlPic=

>  <r_lp_tautomer_probability>  (191) 
0.999986

>  <r_epik_Ionization_Penalty>  (191) 
0.0108066

>  <r_epik_Ionization_Penalty_Charging>  (191) 
0

>  <r_epik_Ionization_Penalty_Neutral>  (191) 
0.0108066

>  <r_epik_State_Penalty>  (191) 
0.00828374

>  <r_epik_Charging_Adjusted_Penalty>  (191) 
0.00828374

>  <i_epik_Tot_Q>  (191) 
0

>  <i_epik_Tot_abs_Q>  (191) 
0

>  <s_epik_Chemistry_Notes>  (191) 
This compound has an ester and may undergo hydrolysis at high or low pH. This compound has an imine and may undergo hydrolysis.

>  <s_lp_Force_Field>  (191) 
OPLS3e

>  <r_lp_Energy>  (191) 
71.729

>  <b_lp_Chiralities_Consistent>  (191) 
1

>  <s_lp_Variant>  (191) 
54:0-1

>  <s_i_glide_gridfile>  (191) 
pfpi4k_grid

>  <i_i_glide_lignum>  (191) 
7

>  <i_i_glide_rotatable_bonds>  (191) 
1

>  <r_i_docking_score>  (191) 
-2.61735

>  <r_i_glide_ligand_efficiency>  (191) 
-0.0902533

>  <r_i_glide_ligand_efficiency_sa>  (191) 
-0.277287

>  <r_i_glide_ligand_efficiency_ln>  (191) 
-0.599306

>  <r_i_glide_gscore>  (191) 
-2.61735

>  <r_i_glide_lipo>  (191) 
-0.235333

>  <r_i_glide_hbond>  (191) 
0

>  <r_i_glide_metal>  (191) 
-0

>  <r_i_glide_rewards>  (191) 
-0.71448

>  <r_i_glide_evdw>  (191) 
-24.3425

>  <r_i_glide_ecoul>  (191) 
-2.58078

>  <r_i_glide_erotb>  (191) 
0

>  <r_i_glide_esite>  (191) 
-0.0632931

>  <r_i_glide_emodel>  (191) 
-31.6931

>  <r_i_glide_energy>  (191) 
-26.9232

>  <r_i_glide_einternal>  (191) 
0.00134897

>  <r_i_glide_intrahb_reward>  (191) 
-0

>  <i_i_glide_confnum>  (191) 
2

>  <i_i_glide_posenum>  (191) 
2

>  <r_i_glide_eff_state_penalty>  (191) 
0

>  <ligand_id>  (191) 
54

>  <original_smiles>  (191) 
CC1=NC2(C1)C(=O)OC1CC3C4CC=C5CC(=O)C=CC5(C)C4C(O)CC3(C)C12

>  <smiles>  (191) 
[H]OC1([H])C([H])([H])C2(C([H])([H])[H])C3([H])C([H])(OC(=O)C34N=C(C([H])([H])[H])C4([H])[H])C([H])([H])C2([H])C2([H])C([H])([H])C([H])=C3C([H])([H])C(=O)C([H])=C([H])C3(C([H])([H])[H])C12[H]

$$$$
55:0:0
     RDKit          3D

 37 39  0  0  1  0  0  0  0  0999 V2000
    4.2187   -0.6582   -2.0323 C   0  0  0  0  0  0  0  0  0  0  0  0
    4.3812   -2.1795   -1.7753 C   0  0  1  0  0  0  0  0  0  0  0  0
    5.8223   -2.5236   -1.3504 C   0  0  0  0  0  0  0  0  0  0  0  0
    6.0624   -3.8349   -1.1675 C   0  0  0  0  0  0  0  0  0  0  0  0
    5.0411   -4.5486   -0.2973 C   0  0  1  0  0  0  0  0  0  0  0  0
    5.7138   -5.3960    0.6169 O   0  0  0  0  0  0  0  0  0  0  0  0
    4.2098   -3.4394    0.4557 C   0  0  1  0  0  0  0  0  0  0  0  0
    3.2854   -4.0351    1.5424 C   0  0  0  0  0  0  0  0  0  0  0  0
    5.2089   -2.3601    1.0435 C   0  0  1  0  0  0  0  0  0  0  0  0
    5.9350   -2.9159    2.1135 O   0  0  0  0  0  0  0  0  0  0  0  0
    6.1508   -1.7797   -0.0666 C   0  0  1  0  0  0  0  0  0  0  0  0
    7.5257   -1.8586    0.2213 O   0  0  0  0  0  0  0  0  0  0  0  0
    3.4168   -2.6745   -0.6497 C   0  0  2  0  0  0  0  0  0  0  0  0
    2.2767   -3.4586   -1.3406 C   0  0  0  0  0  0  0  0  0  0  0  0
    2.4311   -3.1746   -2.8336 C   0  0  0  0  0  0  0  0  0  0  0  0
    3.9253   -2.9628   -3.0371 C   0  0  1  0  0  0  0  0  0  0  0  0
    4.1505   -2.2968   -4.2756 O   0  0  0  0  0  0  0  0  0  0  0  0
    3.2550   -0.4517   -2.5030 H   0  0  0  0  0  0  0  0  0  0  0  0
    5.0066   -0.2825   -2.6756 H   0  0  0  0  0  0  0  0  0  0  0  0
    4.2184   -0.1035   -1.0959 H   0  0  0  0  0  0  0  0  0  0  0  0
    7.0415   -4.0844   -0.7891 H   0  0  0  0  0  0  0  0  0  0  0  0
    4.4162   -5.1746   -0.9308 H   0  0  0  0  0  0  0  0  0  0  0  0
    5.0768   -6.0134    0.9675 H   0  0  0  0  0  0  0  0  0  0  0  0
    2.6888   -3.2522    2.0131 H   0  0  0  0  0  0  0  0  0  0  0  0
    3.8571   -4.5240    2.3314 H   0  0  0  0  0  0  0  0  0  0  0  0
    2.6032   -4.7828    1.1393 H   0  0  0  0  0  0  0  0  0  0  0  0
    4.6080   -1.5455    1.4747 H   0  0  0  0  0  0  0  0  0  0  0  0
    6.3063   -3.7413    1.8226 H   0  0  0  0  0  0  0  0  0  0  0  0
    5.9626   -0.7183   -0.1542 H   0  0  0  0  0  0  0  0  0  0  0  0
    7.7263   -2.7291    0.5319 H   0  0  0  0  0  0  0  0  0  0  0  0
    2.9477   -1.8151   -0.1642 H   0  0  0  0  0  0  0  0  0  0  0  0
    2.3219   -4.5270   -1.1189 H   0  0  0  0  0  0  0  0  0  0  0  0
    1.3068   -3.1188   -0.9887 H   0  0  0  0  0  0  0  0  0  0  0  0
    2.0372   -3.9743   -3.4626 H   0  0  0  0  0  0  0  0  0  0  0  0
    1.8745   -2.2611   -3.0713 H   0  0  0  0  0  0  0  0  0  0  0  0
    4.3772   -3.9503   -3.1028 H   0  0  0  0  0  0  0  0  0  0  0  0
    3.6407   -1.4980   -4.2341 H   0  0  0  0  0  0  0  0  0  0  0  0
  2  1  1  6
  1 18  1  0
  1 19  1  0
  1 20  1  0
  2 13  1  0
  2 16  1  0
  2  3  1  0
  3 11  1  0
  3  4  2  0
  4  5  1  0
  4 21  1  0
  5  6  1  0
  5  7  1  0
  5 22  1  6
  6 23  1  0
  7  8  1  1
  7  9  1  0
  7 13  1  0
  8 24  1  0
  8 25  1  0
  8 26  1  0
  9 10  1  0
  9 11  1  0
  9 27  1  1
 10 28  1  0
 11 12  1  0
 11 29  1  6
 12 30  1  0
 13 14  1  0
 13 31  1  1
 14 15  1  0
 14 32  1  0
 14 33  1  0
 15 16  1  0
 15 34  1  0
 15 35  1  0
 16 17  1  0
 16 36  1  6
 17 37  1  0
M  END
>  <i_m_ct_stereo_status>  (192) 
1

>  <s_m_source_file>  (192) 
/var/tmp/pbs.5076255.sched01/tmple0dc7g8/88jbw3zpwn.sdf

>  <i_m_source_file_index>  (192) 
9

>  <i_lp_mmshare_version>  (192) 
48012

>  <i_f3d_flags>  (192) 
1

>  <s_epik_input>  (192) 
W0NIM11bQ0BAXTEyQzM9W0NIXVtDQEBIXShbT0hdKVtDQEBdKFtDSDNdKShbQ0BASF0oW09IXSlbQ0BIXTNbT0hdKVtDQEBIXTFbQ0gyXVtDSDJdW0NASF0yW09IXQ==

>  <s_epik_cmdline>  (192) 
J2VwaWtfcHl0aG9uJywgJy1waHQnLCAnMi4wJywgJy1waCcsICc3LjAnLCAnLXRuJywgJzgnLCAnLW1hJywgJzIwMCcsICctaW1hZScsICc8aW5maWxlLm1hZT4nLCAnLW9tYWUnLCAnPG91dGZpbGUubWFlPic=

>  <r_lp_tautomer_probability>  (192) 
1

>  <r_epik_Ionization_Penalty>  (192) 
6.54254e-07

>  <r_epik_Ionization_Penalty_Charging>  (192) 
0

>  <r_epik_Ionization_Penalty_Neutral>  (192) 
6.54254e-07

>  <r_epik_State_Penalty>  (192) 
-0

>  <r_epik_Charging_Adjusted_Penalty>  (192) 
0

>  <i_epik_Tot_Q>  (192) 
0

>  <i_epik_Tot_abs_Q>  (192) 
0

>  <s_lp_Force_Field>  (192) 
OPLS3e

>  <r_lp_Energy>  (192) 
93.3933

>  <b_lp_Chiralities_Consistent>  (192) 
1

>  <s_lp_Variant>  (192) 
55:0-1

>  <s_i_glide_gridfile>  (192) 
pfpi4k_grid

>  <i_i_glide_lignum>  (192) 
9

>  <i_i_glide_rotatable_bonds>  (192) 
4

>  <r_i_docking_score>  (192) 
-4.852

>  <r_i_glide_ligand_efficiency>  (192) 
-0.285412

>  <r_i_glide_ligand_efficiency_sa>  (192) 
-0.733874

>  <r_i_glide_ligand_efficiency_ln>  (192) 
-1.26578

>  <r_i_glide_gscore>  (192) 
-4.852

>  <r_i_glide_lipo>  (192) 
-0.405973

>  <r_i_glide_hbond>  (192) 
-0.32

>  <r_i_glide_metal>  (192) 
-0

>  <r_i_glide_rewards>  (192) 
-2.27071

>  <r_i_glide_evdw>  (192) 
-18.2915

>  <r_i_glide_ecoul>  (192) 
-6.27161

>  <r_i_glide_erotb>  (192) 
0

>  <r_i_glide_esite>  (192) 
0

>  <r_i_glide_emodel>  (192) 
-38.1625

>  <r_i_glide_energy>  (192) 
-24.5631

>  <r_i_glide_einternal>  (192) 
0.522382

>  <r_i_glide_intrahb_reward>  (192) 
-0.5

>  <i_i_glide_confnum>  (192) 
1

>  <i_i_glide_posenum>  (192) 
2

>  <r_i_glide_eff_state_penalty>  (192) 
0

>  <ligand_id>  (192) 
55

>  <original_smiles>  (192) 
CC12C3=CC(O)C(C)(C(O)C3O)C1CCC2O

>  <smiles>  (192) 
[H]OC1([H])C2=C([H])C([H])(O[H])C(C([H])([H])[H])(C1([H])O[H])C1([H])C([H])([H])C([H])([H])C([H])(O[H])C21C([H])([H])[H]

$$$$
55:0:1
     RDKit          3D

 37 39  0  0  1  0  0  0  0  0999 V2000
    5.4738   -3.7367    2.6644 C   0  0  0  0  0  0  0  0  0  0  0  0
    4.8099   -2.8222    1.6114 C   0  0  1  0  0  0  0  0  0  0  0  0
    5.6891   -1.6178    1.2168 C   0  0  0  0  0  0  0  0  0  0  0  0
    5.1122   -0.7433    0.3689 C   0  0  0  0  0  0  0  0  0  0  0  0
    4.4985   -1.3979   -0.8615 C   0  0  1  0  0  0  0  0  0  0  0  0
    4.8314   -0.6616   -2.0172 O   0  0  0  0  0  0  0  0  0  0  0  0
    5.0492   -2.8703   -0.9457 C   0  0  1  0  0  0  0  0  0  0  0  0
    4.6626   -3.5817   -2.2616 C   0  0  0  0  0  0  0  0  0  0  0  0
    6.6167   -2.8647   -0.7243 C   0  0  1  0  0  0  0  0  0  0  0  0
    7.3374   -2.3454   -1.8333 O   0  0  0  0  0  0  0  0  0  0  0  0
    6.9955   -2.1316    0.6167 C   0  0  1  0  0  0  0  0  0  0  0  0
    7.9457   -1.0807    0.4799 O   0  0  0  0  0  0  0  0  0  0  0  0
    4.4870   -3.6318    0.3108 C   0  0  2  0  0  0  0  0  0  0  0  0
    2.9662   -3.9051    0.3382 C   0  0  0  0  0  0  0  0  0  0  0  0
    2.4878   -3.4827    1.7319 C   0  0  0  0  0  0  0  0  0  0  0  0
    3.4278   -2.3746    2.1505 C   0  0  1  0  0  0  0  0  0  0  0  0
    3.3756   -2.1742    3.5508 O   0  0  0  0  0  0  0  0  0  0  0  0
    4.7794   -4.4598    3.0938 H   0  0  0  0  0  0  0  0  0  0  0  0
    5.8333   -3.1246    3.4879 H   0  0  0  0  0  0  0  0  0  0  0  0
    6.3073   -4.3177    2.2697 H   0  0  0  0  0  0  0  0  0  0  0  0
    5.7420    0.0698    0.0478 H   0  0  0  0  0  0  0  0  0  0  0  0
    3.4144   -1.3855   -0.7483 H   0  0  0  0  0  0  0  0  0  0  0  0
    4.5222    0.2260   -1.9039 H   0  0  0  0  0  0  0  0  0  0  0  0
    5.0061   -4.6202   -2.2632 H   0  0  0  0  0  0  0  0  0  0  0  0
    5.1044   -3.0888   -3.1300 H   0  0  0  0  0  0  0  0  0  0  0  0
    3.5800   -3.5878   -2.4164 H   0  0  0  0  0  0  0  0  0  0  0  0
    6.9491   -3.9000   -0.6425 H   0  0  0  0  0  0  0  0  0  0  0  0
    7.3489   -2.9852   -2.5311 H   0  0  0  0  0  0  0  0  0  0  0  0
    7.4667   -2.8485    1.2808 H   0  0  0  0  0  0  0  0  0  0  0  0
    7.8459   -0.4802    1.2065 H   0  0  0  0  0  0  0  0  0  0  0  0
    4.9837   -4.6036    0.3581 H   0  0  0  0  0  0  0  0  0  0  0  0
    2.4343   -3.3275   -0.4179 H   0  0  0  0  0  0  0  0  0  0  0  0
    2.7515   -4.9571    0.1427 H   0  0  0  0  0  0  0  0  0  0  0  0
    1.4697   -3.1031    1.7462 H   0  0  0  0  0  0  0  0  0  0  0  0
    2.5414   -4.3255    2.4195 H   0  0  0  0  0  0  0  0  0  0  0  0
    3.0735   -1.4584    1.6729 H   0  0  0  0  0  0  0  0  0  0  0  0
    3.8547   -1.3918    3.7568 H   0  0  0  0  0  0  0  0  0  0  0  0
  2  1  1  1
  1 18  1  0
  1 19  1  0
  1 20  1  0
  2 13  1  0
  2 16  1  0
  2  3  1  0
  3 11  1  0
  3  4  2  0
  4  5  1  0
  4 21  1  0
  5  6  1  0
  5  7  1  0
  5 22  1  1
  6 23  1  0
  7  8  1  6
  7  9  1  0
  7 13  1  0
  8 24  1  0
  8 25  1  0
  8 26  1  0
  9 10  1  0
  9 11  1  0
  9 27  1  1
 10 28  1  0
 11 12  1  0
 11 29  1  1
 12 30  1  0
 13 14  1  0
 13 31  1  1
 14 15  1  0
 14 32  1  0
 14 33  1  0
 15 16  1  0
 15 34  1  0
 15 35  1  0
 16 17  1  0
 16 36  1  6
 17 37  1  0
M  END
>  <i_m_ct_stereo_status>  (193) 
1

>  <s_m_source_file>  (193) 
/var/tmp/pbs.5076255.sched01/tmple0dc7g8/88jbw3zpwn.sdf

>  <i_m_source_file_index>  (193) 
9

>  <i_lp_mmshare_version>  (193) 
48012

>  <i_f3d_flags>  (193) 
1

>  <s_epik_input>  (193) 
W0NIM11bQ0BAXTEyQzM9W0NIXVtDQEBIXShbT0hdKVtDQEBdKFtDSDNdKShbQ0BASF0oW09IXSlbQ0BIXTNbT0hdKVtDQEBIXTFbQ0gyXVtDSDJdW0NASF0yW09IXQ==

>  <s_epik_cmdline>  (193) 
J2VwaWtfcHl0aG9uJywgJy1waHQnLCAnMi4wJywgJy1waCcsICc3LjAnLCAnLXRuJywgJzgnLCAnLW1hJywgJzIwMCcsICctaW1hZScsICc8aW5maWxlLm1hZT4nLCAnLW9tYWUnLCAnPG91dGZpbGUubWFlPic=

>  <r_lp_tautomer_probability>  (193) 
1

>  <r_epik_Ionization_Penalty>  (193) 
6.54254e-07

>  <r_epik_Ionization_Penalty_Charging>  (193) 
0

>  <r_epik_Ionization_Penalty_Neutral>  (193) 
6.54254e-07

>  <r_epik_State_Penalty>  (193) 
-0

>  <r_epik_Charging_Adjusted_Penalty>  (193) 
0

>  <i_epik_Tot_Q>  (193) 
0

>  <i_epik_Tot_abs_Q>  (193) 
0

>  <s_lp_Force_Field>  (193) 
OPLS3e

>  <r_lp_Energy>  (193) 
93.3933

>  <b_lp_Chiralities_Consistent>  (193) 
1

>  <s_lp_Variant>  (193) 
55:0-1

>  <s_i_glide_gridfile>  (193) 
pfpi4k_grid

>  <i_i_glide_lignum>  (193) 
9

>  <i_i_glide_rotatable_bonds>  (193) 
4

>  <r_i_docking_score>  (193) 
-4.65888

>  <r_i_glide_ligand_efficiency>  (193) 
-0.274052

>  <r_i_glide_ligand_efficiency_sa>  (193) 
-0.704664

>  <r_i_glide_ligand_efficiency_ln>  (193) 
-1.2154

>  <r_i_glide_gscore>  (193) 
-4.65888

>  <r_i_glide_lipo>  (193) 
-0.416189

>  <r_i_glide_hbond>  (193) 
0

>  <r_i_glide_metal>  (193) 
-0

>  <r_i_glide_rewards>  (193) 
-1.77071

>  <r_i_glide_evdw>  (193) 
-15.5753

>  <r_i_glide_ecoul>  (193) 
-11.2881

>  <r_i_glide_erotb>  (193) 
0

>  <r_i_glide_esite>  (193) 
0

>  <r_i_glide_emodel>  (193) 
-34.1786

>  <r_i_glide_energy>  (193) 
-26.8634

>  <r_i_glide_einternal>  (193) 
2.16566

>  <r_i_glide_intrahb_reward>  (193) 
-0

>  <i_i_glide_confnum>  (193) 
2

>  <i_i_glide_posenum>  (193) 
32

>  <r_i_glide_eff_state_penalty>  (193) 
0

>  <ligand_id>  (193) 
55

>  <original_smiles>  (193) 
CC12C3=CC(O)C(C)(C(O)C3O)C1CCC2O

>  <smiles>  (193) 
[H]OC1([H])C2=C([H])C([H])(O[H])C(C([H])([H])[H])(C1([H])O[H])C1([H])C([H])([H])C([H])([H])C([H])(O[H])C21C([H])([H])[H]

$$$$
55:0:2
     RDKit          3D

 37 39  0  0  1  0  0  0  0  0999 V2000
    4.2206   -0.7119   -2.1160 C   0  0  0  0  0  0  0  0  0  0  0  0
    4.3690   -2.2077   -1.7723 C   0  0  1  0  0  0  0  0  0  0  0  0
    5.7891   -2.5369   -1.2948 C   0  0  0  0  0  0  0  0  0  0  0  0
    6.0191   -3.8341   -1.0692 C   0  0  0  0  0  0  0  0  0  0  0  0
    4.9850   -4.5170   -0.1972 C   0  0  1  0  0  0  0  0  0  0  0  0
    5.5995   -5.3632    0.7460 O   0  0  0  0  0  0  0  0  0  0  0  0
    4.1498   -3.3862    0.4984 C   0  0  1  0  0  0  0  0  0  0  0  0
    3.1758   -3.9237    1.5789 C   0  0  0  0  0  0  0  0  0  0  0  0
    5.1020   -2.2722    1.0801 C   0  0  1  0  0  0  0  0  0  0  0  0
    5.8103   -2.6723    2.2305 O   0  0  0  0  0  0  0  0  0  0  0  0
    6.0713   -1.7407   -0.0304 C   0  0  1  0  0  0  0  0  0  0  0  0
    7.4418   -1.7798    0.2973 O   0  0  0  0  0  0  0  0  0  0  0  0
    3.3801   -2.6589   -0.6541 C   0  0  2  0  0  0  0  0  0  0  0  0
    2.2591   -3.4656   -1.3512 C   0  0  0  0  0  0  0  0  0  0  0  0
    2.4349   -3.2368   -2.8442 C   0  0  0  0  0  0  0  0  0  0  0  0
    3.9374   -3.0518   -3.0089 C   0  0  1  0  0  0  0  0  0  0  0  0
    4.1560   -2.4095   -4.2521 O   0  0  0  0  0  0  0  0  0  0  0  0
    3.2682   -0.4736   -2.5725 H   0  0  0  0  0  0  0  0  0  0  0  0
    5.0168   -0.3717   -2.7789 H   0  0  0  0  0  0  0  0  0  0  0  0
    4.3110   -0.1044   -1.2239 H   0  0  0  0  0  0  0  0  0  0  0  0
    6.9862   -4.0641   -0.6335 H   0  0  0  0  0  0  0  0  0  0  0  0
    4.3448   -5.1230   -0.8342 H   0  0  0  0  0  0  0  0  0  0  0  0
    5.8506   -6.1612    0.2989 H   0  0  0  0  0  0  0  0  0  0  0  0
    2.5687   -3.1209    1.9946 H   0  0  0  0  0  0  0  0  0  0  0  0
    3.7236   -4.3910    2.4001 H   0  0  0  0  0  0  0  0  0  0  0  0
    2.5165   -4.6883    1.1802 H   0  0  0  0  0  0  0  0  0  0  0  0
    4.4819   -1.4421    1.4220 H   0  0  0  0  0  0  0  0  0  0  0  0
    5.2017   -3.0205    2.8596 H   0  0  0  0  0  0  0  0  0  0  0  0
    5.8991   -0.6758   -0.1394 H   0  0  0  0  0  0  0  0  0  0  0  0
    7.5415   -1.3295    1.1318 H   0  0  0  0  0  0  0  0  0  0  0  0
    2.9173   -1.7693   -0.2140 H   0  0  0  0  0  0  0  0  0  0  0  0
    2.2783   -4.5241   -1.1129 H   0  0  0  0  0  0  0  0  0  0  0  0
    1.2756   -3.1035   -1.0632 H   0  0  0  0  0  0  0  0  0  0  0  0
    2.0948   -4.0820   -3.4350 H   0  0  0  0  0  0  0  0  0  0  0  0
    1.8714   -2.3649   -3.1558 H   0  0  0  0  0  0  0  0  0  0  0  0
    4.4008   -4.0393   -3.0074 H   0  0  0  0  0  0  0  0  0  0  0  0
    3.6411   -1.6246   -4.2312 H   0  0  0  0  0  0  0  0  0  0  0  0
  2  1  1  6
  1 18  1  0
  1 19  1  0
  1 20  1  0
  2 13  1  0
  2 16  1  0
  2  3  1  0
  3 11  1  0
  3  4  2  0
  4  5  1  0
  4 21  1  0
  5  6  1  0
  5  7  1  0
  5 22  1  6
  6 23  1  0
  7  8  1  1
  7  9  1  0
  7 13  1  0
  8 24  1  0
  8 25  1  0
  8 26  1  0
  9 10  1  0
  9 11  1  0
  9 27  1  1
 10 28  1  0
 11 12  1  0
 11 29  1  6
 12 30  1  0
 13 14  1  0
 13 31  1  1
 14 15  1  0
 14 32  1  0
 14 33  1  0
 15 16  1  0
 15 34  1  0
 15 35  1  0
 16 17  1  0
 16 36  1  6
 17 37  1  0
M  END
>  <i_m_ct_stereo_status>  (194) 
1

>  <s_m_source_file>  (194) 
/var/tmp/pbs.5076255.sched01/tmple0dc7g8/88jbw3zpwn.sdf

>  <i_m_source_file_index>  (194) 
9

>  <i_lp_mmshare_version>  (194) 
48012

>  <i_f3d_flags>  (194) 
1

>  <s_epik_input>  (194) 
W0NIM11bQ0BAXTEyQzM9W0NIXVtDQEBIXShbT0hdKVtDQEBdKFtDSDNdKShbQ0BASF0oW09IXSlbQ0BIXTNbT0hdKVtDQEBIXTFbQ0gyXVtDSDJdW0NASF0yW09IXQ==

>  <s_epik_cmdline>  (194) 
J2VwaWtfcHl0aG9uJywgJy1waHQnLCAnMi4wJywgJy1waCcsICc3LjAnLCAnLXRuJywgJzgnLCAnLW1hJywgJzIwMCcsICctaW1hZScsICc8aW5maWxlLm1hZT4nLCAnLW9tYWUnLCAnPG91dGZpbGUubWFlPic=

>  <r_lp_tautomer_probability>  (194) 
1

>  <r_epik_Ionization_Penalty>  (194) 
6.54254e-07

>  <r_epik_Ionization_Penalty_Charging>  (194) 
0

>  <r_epik_Ionization_Penalty_Neutral>  (194) 
6.54254e-07

>  <r_epik_State_Penalty>  (194) 
-0

>  <r_epik_Charging_Adjusted_Penalty>  (194) 
0

>  <i_epik_Tot_Q>  (194) 
0

>  <i_epik_Tot_abs_Q>  (194) 
0

>  <s_lp_Force_Field>  (194) 
OPLS3e

>  <r_lp_Energy>  (194) 
93.3933

>  <b_lp_Chiralities_Consistent>  (194) 
1

>  <s_lp_Variant>  (194) 
55:0-1

>  <s_i_glide_gridfile>  (194) 
pfpi4k_grid

>  <i_i_glide_lignum>  (194) 
9

>  <i_i_glide_rotatable_bonds>  (194) 
4

>  <r_i_docking_score>  (194) 
-4.42601

>  <r_i_glide_ligand_efficiency>  (194) 
-0.260354

>  <r_i_glide_ligand_efficiency_sa>  (194) 
-0.669443

>  <r_i_glide_ligand_efficiency_ln>  (194) 
-1.15465

>  <r_i_glide_gscore>  (194) 
-4.42601

>  <r_i_glide_lipo>  (194) 
-0.394085

>  <r_i_glide_hbond>  (194) 
-0.32

>  <r_i_glide_metal>  (194) 
-0

>  <r_i_glide_rewards>  (194) 
-1.77071

>  <r_i_glide_evdw>  (194) 
-19.1507

>  <r_i_glide_ecoul>  (194) 
-6.55787

>  <r_i_glide_erotb>  (194) 
0

>  <r_i_glide_esite>  (194) 
0

>  <r_i_glide_emodel>  (194) 
-33.0562

>  <r_i_glide_energy>  (194) 
-25.7085

>  <r_i_glide_einternal>  (194) 
1.20856

>  <r_i_glide_intrahb_reward>  (194) 
-0

>  <i_i_glide_confnum>  (194) 
2

>  <i_i_glide_posenum>  (194) 
7

>  <r_i_glide_eff_state_penalty>  (194) 
0

>  <ligand_id>  (194) 
55

>  <original_smiles>  (194) 
CC12C3=CC(O)C(C)(C(O)C3O)C1CCC2O

>  <smiles>  (194) 
[H]OC1([H])C2=C([H])C([H])(O[H])C(C([H])([H])[H])(C1([H])O[H])C1([H])C([H])([H])C([H])([H])C([H])(O[H])C21C([H])([H])[H]

$$$$
56:0:0
     RDKit          3D

 37 41  0  0  1  0  0  0  0  0999 V2000
    3.7872   -0.9235   -2.4228 C   0  0  0  0  0  0  0  0  0  0  0  0
    4.6751   -1.3796   -1.2584 C   0  0  2  0  0  0  0  0  0  0  0  0
    4.5633   -2.8054   -1.1341 O   0  0  0  0  0  0  0  0  0  0  0  0
    4.2484   -3.2359    0.2020 C   0  0  1  0  0  0  0  0  0  0  0  0
    3.2239   -4.3649    0.1491 C   0  0  0  0  0  0  0  0  0  0  0  0
    2.2077   -4.1954   -0.5360 O   0  0  0  0  0  0  0  0  0  0  0  0
    3.4260   -5.5869    0.9434 C   0  0  0  0  0  0  0  0  0  0  0  0
    4.4348   -5.6745    1.8193 C   0  0  0  0  0  0  0  0  0  0  0  0
    5.4450   -4.5825    2.0947 C   0  0  0  0  0  0  0  0  0  0  0  0
    5.5967   -3.5899    0.9236 C   0  0  1  0  0  0  0  0  0  0  0  0
    6.5476   -4.1051    0.0050 O   0  0  0  0  0  0  0  0  0  0  0  0
    7.5886   -3.1976   -0.0555 C   0  0  0  0  0  0  0  0  0  0  0  0
    8.7768   -3.7572    0.7547 C   0  0  0  0  0  0  0  0  0  0  0  0
    7.9731   -3.0148   -1.5235 C   0  0  0  0  0  0  0  0  0  0  0  0
    7.1960   -1.9618    0.4346 O   0  0  0  0  0  0  0  0  0  0  0  0
    6.1743   -2.2306    1.3877 C   0  0  1  0  0  0  0  0  0  0  0  0
    5.0271   -1.2436    1.3569 C   0  0  1  0  0  0  0  0  0  0  0  0
    4.2952   -0.8326    0.0841 C   0  0  2  0  0  0  0  0  0  0  0  0
    3.8358   -1.9764    0.8754 C   0  0  1  0  0  0  0  0  0  0  0  0
    3.8813    0.1415   -2.5898 H   0  0  0  0  0  0  0  0  0  0  0  0
    2.7393   -1.1512   -2.2350 H   0  0  0  0  0  0  0  0  0  0  0  0
    4.0784   -1.4262   -3.3438 H   0  0  0  0  0  0  0  0  0  0  0  0
    5.7076   -1.0986   -1.4620 H   0  0  0  0  0  0  0  0  0  0  0  0
    2.7351   -6.4002    0.7957 H   0  0  0  0  0  0  0  0  0  0  0  0
    4.5483   -6.5762    2.4138 H   0  0  0  0  0  0  0  0  0  0  0  0
    5.1400   -4.0713    3.0095 H   0  0  0  0  0  0  0  0  0  0  0  0
    6.4182   -5.0444    2.3083 H   0  0  0  0  0  0  0  0  0  0  0  0
    8.5038   -3.9165    1.7857 H   0  0  0  0  0  0  0  0  0  0  0  0
    9.6205   -3.0722    0.6912 H   0  0  0  0  0  0  0  0  0  0  0  0
    9.0628   -4.7221    0.3441 H   0  0  0  0  0  0  0  0  0  0  0  0
    7.0961   -2.7456   -2.1203 H   0  0  0  0  0  0  0  0  0  0  0  0
    8.3983   -3.9284   -1.9268 H   0  0  0  0  0  0  0  0  0  0  0  0
    8.7337   -2.2372   -1.6159 H   0  0  0  0  0  0  0  0  0  0  0  0
    6.6033   -2.2792    2.3874 H   0  0  0  0  0  0  0  0  0  0  0  0
    4.9206   -0.5803    2.2181 H   0  0  0  0  0  0  0  0  0  0  0  0
    3.7450    0.1069    0.1550 H   0  0  0  0  0  0  0  0  0  0  0  0
    2.8798   -1.9187    1.4259 H   0  0  0  0  0  0  0  0  0  0  0  0
  1  2  1  0
  1 20  1  0
  1 21  1  0
  1 22  1  0
  2 18  1  0
  2  3  1  0
  2 23  1  6
  4  3  1  6
  4 10  1  0
  4 19  1  0
  4  5  1  0
  5  6  2  0
  5  7  1  0
  7  8  2  0
  7 24  1  0
  8  9  1  0
  8 25  1  0
  9 10  1  0
  9 26  1  0
  9 27  1  0
 10 16  1  0
 10 11  1  6
 11 12  1  0
 12 13  1  0
 12 14  1  0
 12 15  1  0
 13 28  1  0
 13 29  1  0
 13 30  1  0
 14 31  1  0
 14 32  1  0
 14 33  1  0
 15 16  1  0
 16 17  1  0
 16 34  1  1
 17 19  1  0
 17 18  1  0
 17 35  1  1
 18 19  1  0
 18 36  1  6
 19 37  1  1
M  END
>  <i_m_ct_stereo_status>  (195) 
1

>  <s_m_source_file>  (195) 
/var/tmp/pbs.5076255.sched01/tmple0dc7g8/88jbw3zpwn.sdf

>  <i_m_source_file_index>  (195) 
10

>  <i_lp_mmshare_version>  (195) 
48012

>  <i_f3d_flags>  (195) 
0

>  <s_epik_input>  (195) 
W0NIM11bQ0BIXShPMSlbQ0BASF0oW0NAQEhdMjMpW0NAQEhdM1tDQEhdKE9DKE80KShbQ0gzXSlbQ0gzXSlbQ0BdNChDMTI1KVtDSDJdW0NIXT1bQ0hdQzU9Tw==

>  <s_epik_cmdline>  (195) 
J2VwaWtfcHl0aG9uJywgJy1waHQnLCAnMi4wJywgJy1waCcsICc3LjAnLCAnLXRuJywgJzgnLCAnLW1hJywgJzIwMCcsICctaW1hZScsICc8aW5maWxlLm1hZT4nLCAnLW9tYWUnLCAnPG91dGZpbGUubWFlPic=

>  <r_lp_tautomer_probability>  (195) 
1

>  <r_epik_Ionization_Penalty>  (195) 
1.99969e-14

>  <r_epik_Ionization_Penalty_Charging>  (195) 
0

>  <r_epik_Ionization_Penalty_Neutral>  (195) 
1.99969e-14

>  <r_epik_State_Penalty>  (195) 
-0

>  <r_epik_Charging_Adjusted_Penalty>  (195) 
0

>  <i_epik_Tot_Q>  (195) 
0

>  <i_epik_Tot_abs_Q>  (195) 
0

>  <s_lp_Force_Field>  (195) 
OPLS3e

>  <r_lp_Energy>  (195) 
15.6888

>  <b_lp_Chiralities_Consistent>  (195) 
1

>  <s_lp_Variant>  (195) 
56:0-1

>  <s_i_glide_gridfile>  (195) 
pfpi4k_grid

>  <i_i_glide_lignum>  (195) 
10

>  <i_i_glide_rotatable_bonds>  (195) 
0

>  <r_i_docking_score>  (195) 
-3.31692

>  <r_i_glide_ligand_efficiency>  (195) 
-0.174575

>  <r_i_glide_ligand_efficiency_sa>  (195) 
-0.465836

>  <r_i_glide_ligand_efficiency_ln>  (195) 
-0.840911

>  <r_i_glide_gscore>  (195) 
-3.31692

>  <r_i_glide_lipo>  (195) 
-0.405283

>  <r_i_glide_hbond>  (195) 
0

>  <r_i_glide_metal>  (195) 
-0

>  <r_i_glide_rewards>  (195) 
-1.85021

>  <r_i_glide_evdw>  (195) 
-22.7173

>  <r_i_glide_ecoul>  (195) 
0.625085

>  <r_i_glide_erotb>  (195) 
0

>  <r_i_glide_esite>  (195) 
-0.0193276

>  <r_i_glide_emodel>  (195) 
-26.4422

>  <r_i_glide_energy>  (195) 
-22.0922

>  <r_i_glide_einternal>  (195) 
0

>  <r_i_glide_intrahb_reward>  (195) 
-0

>  <i_i_glide_confnum>  (195) 
2

>  <i_i_glide_posenum>  (195) 
24

>  <r_i_glide_eff_state_penalty>  (195) 
0

>  <ligand_id>  (195) 
56

>  <original_smiles>  (195) 
CC1OC23C(=O)C=CCC24OC(C)(C)OC4C2C1C23

>  <smiles>  (195) 
[H]C1=C([H])C([H])([H])C23OC(C([H])([H])[H])(C([H])([H])[H])OC2([H])C2([H])C4([H])C([H])(C([H])([H])[H])OC3(C1=O)C42[H]

$$$$
56:0:1
     RDKit          3D

 37 41  0  0  1  0  0  0  0  0999 V2000
    3.3312   -3.4176   -3.4755 C   0  0  0  0  0  0  0  0  0  0  0  0
    4.1771   -2.8251   -2.3390 C   0  0  2  0  0  0  0  0  0  0  0  0
    4.5016   -3.8584   -1.3936 O   0  0  0  0  0  0  0  0  0  0  0  0
    4.1550   -3.5276   -0.0374 C   0  0  1  0  0  0  0  0  0  0  0  0
    3.5470   -4.7404    0.6630 C   0  0  0  0  0  0  0  0  0  0  0  0
    2.6410   -5.3529    0.0819 O   0  0  0  0  0  0  0  0  0  0  0  0
    4.0093   -5.1169    2.0208 C   0  0  0  0  0  0  0  0  0  0  0  0
    4.8633   -4.3324    2.6952 C   0  0  0  0  0  0  0  0  0  0  0  0
    5.4142   -3.0218    2.1846 C   0  0  0  0  0  0  0  0  0  0  0  0
    5.4170   -2.9305    0.6577 C   0  0  1  0  0  0  0  0  0  0  0  0
    6.5999   -3.5448    0.1698 O   0  0  0  0  0  0  0  0  0  0  0  0
    7.2915   -2.5546   -0.4917 C   0  0  0  0  0  0  0  0  0  0  0  0
    8.4486   -2.0510    0.3751 C   0  0  0  0  0  0  0  0  0  0  0  0
    7.8171   -3.1031   -1.7986 C   0  0  0  0  0  0  0  0  0  0  0  0
    6.4654   -1.5054   -0.8081 O   0  0  0  0  0  0  0  0  0  0  0  0
    5.4836   -1.4552    0.2052 C   0  0  1  0  0  0  0  0  0  0  0  0
    4.1133   -1.1129   -0.3201 C   0  0  1  0  0  0  0  0  0  0  0  0
    3.4789   -1.7733   -1.5479 C   0  0  2  0  0  0  0  0  0  0  0  0
    3.2939   -2.3327   -0.2040 C   0  0  1  0  0  0  0  0  0  0  0  0
    3.0981   -2.6847   -4.2309 H   0  0  0  0  0  0  0  0  0  0  0  0
    2.4002   -3.8351   -3.0986 H   0  0  0  0  0  0  0  0  0  0  0  0
    3.8811   -4.2349   -3.9482 H   0  0  0  0  0  0  0  0  0  0  0  0
    5.0872   -2.3933   -2.7565 H   0  0  0  0  0  0  0  0  0  0  0  0
    3.6425   -6.0385    2.4417 H   0  0  0  0  0  0  0  0  0  0  0  0
    5.1868   -4.6144    3.6948 H   0  0  0  0  0  0  0  0  0  0  0  0
    4.8499   -2.2080    2.6449 H   0  0  0  0  0  0  0  0  0  0  0  0
    6.4596   -2.9070    2.4800 H   0  0  0  0  0  0  0  0  0  0  0  0
    8.0598   -1.5660    1.2572 H   0  0  0  0  0  0  0  0  0  0  0  0
    9.0242   -1.3238   -0.1855 H   0  0  0  0  0  0  0  0  0  0  0  0
    9.0997   -2.8882    0.6301 H   0  0  0  0  0  0  0  0  0  0  0  0
    7.0056   -3.4900   -2.4146 H   0  0  0  0  0  0  0  0  0  0  0  0
    8.5500   -3.8894   -1.6218 H   0  0  0  0  0  0  0  0  0  0  0  0
    8.3197   -2.2787   -2.3160 H   0  0  0  0  0  0  0  0  0  0  0  0
    5.7859   -0.7607    0.9914 H   0  0  0  0  0  0  0  0  0  0  0  0
    3.6791   -0.1863    0.0587 H   0  0  0  0  0  0  0  0  0  0  0  0
    2.6436   -1.2476   -2.0120 H   0  0  0  0  0  0  0  0  0  0  0  0
    2.3121   -2.2792    0.3005 H   0  0  0  0  0  0  0  0  0  0  0  0
  1  2  1  0
  1 20  1  0
  1 21  1  0
  1 22  1  0
  2 18  1  0
  2  3  1  0
  2 23  1  6
  4  3  1  6
  4 10  1  0
  4 19  1  0
  4  5  1  0
  5  6  2  0
  5  7  1  0
  7  8  2  0
  7 24  1  0
  8  9  1  0
  8 25  1  0
  9 10  1  0
  9 26  1  0
  9 27  1  0
 10 16  1  0
 10 11  1  6
 11 12  1  0
 12 13  1  0
 12 14  1  0
 12 15  1  0
 13 28  1  0
 13 29  1  0
 13 30  1  0
 14 31  1  0
 14 32  1  0
 14 33  1  0
 15 16  1  0
 16 17  1  0
 16 34  1  1
 17 19  1  0
 17 18  1  0
 17 35  1  1
 18 19  1  0
 18 36  1  6
 19 37  1  1
M  END
>  <i_m_ct_stereo_status>  (196) 
1

>  <s_m_source_file>  (196) 
/var/tmp/pbs.5076255.sched01/tmple0dc7g8/88jbw3zpwn.sdf

>  <i_m_source_file_index>  (196) 
10

>  <i_lp_mmshare_version>  (196) 
48012

>  <i_f3d_flags>  (196) 
0

>  <s_epik_input>  (196) 
W0NIM11bQ0BIXShPMSlbQ0BASF0oW0NAQEhdMjMpW0NAQEhdM1tDQEhdKE9DKE80KShbQ0gzXSlbQ0gzXSlbQ0BdNChDMTI1KVtDSDJdW0NIXT1bQ0hdQzU9Tw==

>  <s_epik_cmdline>  (196) 
J2VwaWtfcHl0aG9uJywgJy1waHQnLCAnMi4wJywgJy1waCcsICc3LjAnLCAnLXRuJywgJzgnLCAnLW1hJywgJzIwMCcsICctaW1hZScsICc8aW5maWxlLm1hZT4nLCAnLW9tYWUnLCAnPG91dGZpbGUubWFlPic=

>  <r_lp_tautomer_probability>  (196) 
1

>  <r_epik_Ionization_Penalty>  (196) 
1.99969e-14

>  <r_epik_Ionization_Penalty_Charging>  (196) 
0

>  <r_epik_Ionization_Penalty_Neutral>  (196) 
1.99969e-14

>  <r_epik_State_Penalty>  (196) 
-0

>  <r_epik_Charging_Adjusted_Penalty>  (196) 
0

>  <i_epik_Tot_Q>  (196) 
0

>  <i_epik_Tot_abs_Q>  (196) 
0

>  <s_lp_Force_Field>  (196) 
OPLS3e

>  <r_lp_Energy>  (196) 
15.6888

>  <b_lp_Chiralities_Consistent>  (196) 
1

>  <s_lp_Variant>  (196) 
56:0-1

>  <s_i_glide_gridfile>  (196) 
pfpi4k_grid

>  <i_i_glide_lignum>  (196) 
10

>  <i_i_glide_rotatable_bonds>  (196) 
0

>  <r_i_docking_score>  (196) 
-3.21684

>  <r_i_glide_ligand_efficiency>  (196) 
-0.169307

>  <r_i_glide_ligand_efficiency_sa>  (196) 
-0.45178

>  <r_i_glide_ligand_efficiency_ln>  (196) 
-0.815537

>  <r_i_glide_gscore>  (196) 
-3.21684

>  <r_i_glide_lipo>  (196) 
-0.332814

>  <r_i_glide_hbond>  (196) 
-0.129218

>  <r_i_glide_metal>  (196) 
-0

>  <r_i_glide_rewards>  (196) 
-1.62067

>  <r_i_glide_evdw>  (196) 
-18.4742

>  <r_i_glide_ecoul>  (196) 
-1.24053

>  <r_i_glide_erotb>  (196) 
0

>  <r_i_glide_esite>  (196) 
-0.0243434

>  <r_i_glide_emodel>  (196) 
-24.0362

>  <r_i_glide_energy>  (196) 
-19.7147

>  <r_i_glide_einternal>  (196) 
0

>  <r_i_glide_intrahb_reward>  (196) 
-0

>  <i_i_glide_confnum>  (196) 
2

>  <i_i_glide_posenum>  (196) 
16

>  <r_i_glide_eff_state_penalty>  (196) 
0

>  <ligand_id>  (196) 
56

>  <original_smiles>  (196) 
CC1OC23C(=O)C=CCC24OC(C)(C)OC4C2C1C23

>  <smiles>  (196) 
[H]C1=C([H])C([H])([H])C23OC(C([H])([H])[H])(C([H])([H])[H])OC2([H])C2([H])C4([H])C([H])(C([H])([H])[H])OC3(C1=O)C42[H]

$$$$
56:0:2
     RDKit          3D

 37 41  0  0  1  0  0  0  0  0999 V2000
    1.9811   -5.9465    1.0303 C   0  0  0  0  0  0  0  0  0  0  0  0
    3.1305   -4.9410    1.1364 C   0  0  2  0  0  0  0  0  0  0  0  0
    2.7538   -3.7413    0.4459 O   0  0  0  0  0  0  0  0  0  0  0  0
    3.7457   -3.2839   -0.4914 C   0  0  1  0  0  0  0  0  0  0  0  0
    3.0227   -2.7886   -1.7531 C   0  0  0  0  0  0  0  0  0  0  0  0
    2.0982   -3.4540   -2.2120 O   0  0  0  0  0  0  0  0  0  0  0  0
    3.4407   -1.5248   -2.3795 C   0  0  0  0  0  0  0  0  0  0  0  0
    4.5065   -0.8444   -1.9281 C   0  0  0  0  0  0  0  0  0  0  0  0
    5.3860   -1.2765   -0.7705 C   0  0  0  0  0  0  0  0  0  0  0  0
    4.6783   -2.2506    0.1994 C   0  0  1  0  0  0  0  0  0  0  0  0
    3.9725   -1.4974    1.1694 O   0  0  0  0  0  0  0  0  0  0  0  0
    4.4974   -1.8116    2.4156 C   0  0  0  0  0  0  0  0  0  0  0  0
    5.4202   -0.6669    2.8628 C   0  0  0  0  0  0  0  0  0  0  0  0
    3.3314   -2.0078    3.3922 C   0  0  0  0  0  0  0  0  0  0  0  0
    5.2181   -2.9988    2.3363 O   0  0  0  0  0  0  0  0  0  0  0  0
    5.6985   -3.0904    1.0048 C   0  0  1  0  0  0  0  0  0  0  0  0
    5.6411   -4.5020    0.4339 C   0  0  1  0  0  0  0  0  0  0  0  0
    4.4086   -5.3923    0.4844 C   0  0  2  0  0  0  0  0  0  0  0  0
    4.6244   -4.4882   -0.6592 C   0  0  1  0  0  0  0  0  0  0  0  0
    2.2115   -6.8679    1.5613 H   0  0  0  0  0  0  0  0  0  0  0  0
    1.7623   -6.1928   -0.0075 H   0  0  0  0  0  0  0  0  0  0  0  0
    1.0857   -5.5290    1.4773 H   0  0  0  0  0  0  0  0  0  0  0  0
    3.3395   -4.7283    2.1847 H   0  0  0  0  0  0  0  0  0  0  0  0
    2.8426   -1.1419   -3.1935 H   0  0  0  0  0  0  0  0  0  0  0  0
    4.7763    0.0939   -2.3975 H   0  0  0  0  0  0  0  0  0  0  0  0
    6.2804   -1.7359   -1.1968 H   0  0  0  0  0  0  0  0  0  0  0  0
    5.7108   -0.3900   -0.2204 H   0  0  0  0  0  0  0  0  0  0  0  0
    6.2486   -0.5365    2.1690 H   0  0  0  0  0  0  0  0  0  0  0  0
    5.8149   -0.8712    3.8553 H   0  0  0  0  0  0  0  0  0  0  0  0
    4.8495    0.2601    2.9015 H   0  0  0  0  0  0  0  0  0  0  0  0
    2.6307   -2.7487    3.0071 H   0  0  0  0  0  0  0  0  0  0  0  0
    2.7979   -1.0654    3.5198 H   0  0  0  0  0  0  0  0  0  0  0  0
    3.7082   -2.3391    4.3606 H   0  0  0  0  0  0  0  0  0  0  0  0
    6.7169   -2.6942    0.9469 H   0  0  0  0  0  0  0  0  0  0  0  0
    6.5934   -4.9956    0.2406 H   0  0  0  0  0  0  0  0  0  0  0  0
    4.5550   -6.4623    0.3329 H   0  0  0  0  0  0  0  0  0  0  0  0
    4.8687   -4.8840   -1.6411 H   0  0  0  0  0  0  0  0  0  0  0  0
  1  2  1  0
  1 20  1  0
  1 21  1  0
  1 22  1  0
  2 18  1  0
  2  3  1  0
  2 23  1  1
  4  3  1  1
  4 10  1  0
  4 19  1  0
  4  5  1  0
  5  6  2  0
  5  7  1  0
  7  8  2  0
  7 24  1  0
  8  9  1  0
  8 25  1  0
  9 10  1  0
  9 26  1  0
  9 27  1  0
 10 16  1  0
 10 11  1  1
 11 12  1  0
 12 13  1  0
 12 14  1  0
 12 15  1  0
 13 28  1  0
 13 29  1  0
 13 30  1  0
 14 31  1  0
 14 32  1  0
 14 33  1  0
 15 16  1  0
 16 17  1  0
 16 34  1  1
 17 19  1  0
 17 18  1  0
 17 35  1  6
 18 19  1  0
 18 36  1  6
 19 37  1  6
M  END
>  <i_m_ct_stereo_status>  (197) 
1

>  <s_m_source_file>  (197) 
/var/tmp/pbs.5076255.sched01/tmple0dc7g8/88jbw3zpwn.sdf

>  <i_m_source_file_index>  (197) 
10

>  <i_lp_mmshare_version>  (197) 
48012

>  <i_f3d_flags>  (197) 
0

>  <s_epik_input>  (197) 
W0NIM11bQ0BIXShPMSlbQ0BASF0oW0NAQEhdMjMpW0NAQEhdM1tDQEhdKE9DKE80KShbQ0gzXSlbQ0gzXSlbQ0BdNChDMTI1KVtDSDJdW0NIXT1bQ0hdQzU9Tw==

>  <s_epik_cmdline>  (197) 
J2VwaWtfcHl0aG9uJywgJy1waHQnLCAnMi4wJywgJy1waCcsICc3LjAnLCAnLXRuJywgJzgnLCAnLW1hJywgJzIwMCcsICctaW1hZScsICc8aW5maWxlLm1hZT4nLCAnLW9tYWUnLCAnPG91dGZpbGUubWFlPic=

>  <r_lp_tautomer_probability>  (197) 
1

>  <r_epik_Ionization_Penalty>  (197) 
1.99969e-14

>  <r_epik_Ionization_Penalty_Charging>  (197) 
0

>  <r_epik_Ionization_Penalty_Neutral>  (197) 
1.99969e-14

>  <r_epik_State_Penalty>  (197) 
-0

>  <r_epik_Charging_Adjusted_Penalty>  (197) 
0

>  <i_epik_Tot_Q>  (197) 
0

>  <i_epik_Tot_abs_Q>  (197) 
0

>  <s_lp_Force_Field>  (197) 
OPLS3e

>  <r_lp_Energy>  (197) 
15.6888

>  <b_lp_Chiralities_Consistent>  (197) 
1

>  <s_lp_Variant>  (197) 
56:0-1

>  <s_i_glide_gridfile>  (197) 
pfpi4k_grid

>  <i_i_glide_lignum>  (197) 
10

>  <i_i_glide_rotatable_bonds>  (197) 
0

>  <r_i_docking_score>  (197) 
-2.8274

>  <r_i_glide_ligand_efficiency>  (197) 
-0.148811

>  <r_i_glide_ligand_efficiency_sa>  (197) 
-0.397087

>  <r_i_glide_ligand_efficiency_ln>  (197) 
-0.716807

>  <r_i_glide_gscore>  (197) 
-2.8274

>  <r_i_glide_lipo>  (197) 
-0.363457

>  <r_i_glide_hbond>  (197) 
0

>  <r_i_glide_metal>  (197) 
-0

>  <r_i_glide_rewards>  (197) 
-1.66626

>  <r_i_glide_evdw>  (197) 
-23.3759

>  <r_i_glide_ecoul>  (197) 
2.64051

>  <r_i_glide_erotb>  (197) 
0

>  <r_i_glide_esite>  (197) 
-0.0249649

>  <r_i_glide_emodel>  (197) 
-24.5167

>  <r_i_glide_energy>  (197) 
-20.7354

>  <r_i_glide_einternal>  (197) 
0

>  <r_i_glide_intrahb_reward>  (197) 
-0

>  <i_i_glide_confnum>  (197) 
1

>  <i_i_glide_posenum>  (197) 
2

>  <r_i_glide_eff_state_penalty>  (197) 
0

>  <ligand_id>  (197) 
56

>  <original_smiles>  (197) 
CC1OC23C(=O)C=CCC24OC(C)(C)OC4C2C1C23

>  <smiles>  (197) 
[H]C1=C([H])C([H])([H])C23OC(C([H])([H])[H])(C([H])([H])[H])OC2([H])C2([H])C4([H])C([H])(C([H])([H])[H])OC3(C1=O)C42[H]

$$$$
57:0:0
     RDKit          3D

 43 47  0  0  1  0  0  0  0  0999 V2000
    2.8388   -2.5889   -2.7512 C   0  0  0  0  0  0  0  0  0  0  0  0
    3.3378   -2.6483   -1.5034 C   0  0  0  0  0  0  0  0  0  0  0  0
    3.2959   -3.8292   -0.6501 C   0  0  2  0  0  0  0  0  0  0  0  0
    2.8190   -3.5829    0.8566 C   0  0  2  0  0  0  0  0  0  0  0  0
    2.6061   -2.0880    1.4969 C   0  0  0  0  0  0  0  0  0  0  0  0
    3.9324   -1.1480    1.6223 C   0  0  1  0  0  0  0  0  0  0  0  0
    3.6311    0.2718    1.3164 N   0  0  0  0  0  0  0  0  0  0  0  0
    4.5373   -1.1734    3.0115 C   0  0  0  0  0  0  0  0  0  0  0  0
    4.7908   -2.6258    3.2212 C   0  0  0  0  0  0  0  0  0  0  0  0
    4.9560   -3.1941    1.7824 C   0  0  1  0  0  0  0  0  0  0  0  0
    6.1986   -3.8598    2.0523 O   0  0  0  0  0  0  0  0  0  0  0  0
    3.9651   -4.3156    1.5386 C   0  0  2  0  0  0  0  0  0  0  0  0
    4.5635   -5.2921    0.5117 C   0  0  0  0  0  0  0  0  0  0  0  0
    4.6698   -4.4452   -0.6766 N   0  0  2  0  0  0  0  0  0  0  0  0
    5.9570   -3.5734   -0.8415 C   0  0  0  0  0  0  0  0  0  0  0  0
    6.1985   -2.2108    0.0103 C   0  0  0  0  0  0  0  0  0  0  0  0
    4.8300   -1.9531    0.6313 C   0  0  2  0  0  0  0  0  0  0  0  0
    4.0119   -1.5535   -0.7644 C   0  0  1  0  0  0  0  0  0  0  0  0
    4.6776   -0.6631   -1.6591 O   0  0  0  0  0  0  0  0  0  0  0  0
    2.8887   -1.6805   -3.3333 H   0  0  0  0  0  0  0  0  0  0  0  0
    2.3502   -3.4435   -3.2029 H   0  0  0  0  0  0  0  0  0  0  0  0
    2.6085   -4.5499   -1.0992 H   0  0  0  0  0  0  0  0  0  0  0  0
    1.8997   -4.1509    1.0091 H   0  0  0  0  0  0  0  0  0  0  0  0
    1.8227   -1.5869    0.9328 H   0  0  0  0  0  0  0  0  0  0  0  0
    2.1577   -2.1876    2.4868 H   0  0  0  0  0  0  0  0  0  0  0  0
    4.4653    0.8408    1.3336 H   0  0  0  0  0  0  0  0  0  0  0  0
    2.9861    0.6255    2.0074 H   0  0  0  0  0  0  0  0  0  0  0  0
    5.4782   -0.6201    3.0295 H   0  0  0  0  0  0  0  0  0  0  0  0
    3.8837   -0.7623    3.7804 H   0  0  0  0  0  0  0  0  0  0  0  0
    5.6518   -2.7441    3.8835 H   0  0  0  0  0  0  0  0  0  0  0  0
    3.9488   -3.0777    3.7504 H   0  0  0  0  0  0  0  0  0  0  0  0
    6.4445   -4.3890    1.3122 H   0  0  0  0  0  0  0  0  0  0  0  0
    3.6589   -4.8366    2.4489 H   0  0  0  0  0  0  0  0  0  0  0  0
    5.4845   -5.8070    0.7891 H   0  0  0  0  0  0  0  0  0  0  0  0
    3.8356   -6.0829    0.3096 H   0  0  0  0  0  0  0  0  0  0  0  0
    6.8275   -4.2162   -0.7012 H   0  0  0  0  0  0  0  0  0  0  0  0
    5.9985   -3.2918   -1.8971 H   0  0  0  0  0  0  0  0  0  0  0  0
    7.0339   -2.2453    0.7100 H   0  0  0  0  0  0  0  0  0  0  0  0
    6.5774   -1.4175   -0.6256 H   0  0  0  0  0  0  0  0  0  0  0  0
    3.1082   -0.9700   -0.6240 H   0  0  0  0  0  0  0  0  0  0  0  0
    4.6293    0.2309   -1.3457 H   0  0  0  0  0  0  0  0  0  0  0  0
    3.1846    0.3393    0.4142 H   0  0  0  0  0  0  0  0  0  0  0  0
    4.6729   -5.0665   -1.4755 H   0  0  0  0  0  0  0  0  0  0  0  0
  1  2  2  0
  1 20  1  0
  1 21  1  0
  2 18  1  0
  2  3  1  0
  3 14  1  0
  3  4  1  0
  3 22  1  6
  4 12  1  0
  4  5  1  0
  4 23  1  6
  5  6  1  0
  5 24  1  0
  5 25  1  0
  6 17  1  0
  6  7  1  6
  6  8  1  0
  7 26  1  0
  7 27  1  0
  7 42  1  0
  8  9  1  0
  8 28  1  0
  8 29  1  0
  9 10  1  0
  9 30  1  0
  9 31  1  0
 10 17  1  0
 10 11  1  1
 10 12  1  0
 11 32  1  0
 12 13  1  0
 12 33  1  1
 13 14  1  0
 13 34  1  0
 13 35  1  0
 14 15  1  0
 14 43  1  6
 15 16  1  0
 15 36  1  0
 15 37  1  0
 17 16  1  6
 16 38  1  0
 16 39  1  0
 17 18  1  0
 18 19  1  0
 18 40  1  1
 19 41  1  0
M  CHG  2   7   1  14   1
M  END
>  <i_m_ct_stereo_status>  (198) 
1

>  <s_m_source_file>  (198) 
/var/tmp/pbs.5076255.sched01/tmple0dc7g8/88jbw3zpwn.sdf

>  <i_m_source_file_index>  (198) 
11

>  <i_lp_mmshare_version>  (198) 
48012

>  <i_f3d_flags>  (198) 
0

>  <s_epik_input>  (198) 
W05IMl1bQ0BdMShbQ0BdMjM0KVtDSDJdW0NASF01W0NAQEhdKEMoPVtDSDJdKVtDQEBIXTRbT0hdKU4oW0NIMl1bQ0gyXTMpW0NIMl1bQ0BIXTVbQ0BdMihbT0hdKVtDSDJdW0NIMl0x

>  <s_epik_cmdline>  (198) 
J2VwaWtfcHl0aG9uJywgJy1waHQnLCAnMi4wJywgJy1waCcsICc3LjAnLCAnLXRuJywgJzgnLCAnLW1hJywgJzIwMCcsICctaW1hZScsICc8aW5maWxlLm1hZT4nLCAnLW9tYWUnLCAnPG91dGZpbGUubWFlPic=

>  <r_epik_Ionization_Penalty>  (198) 
0.0421567

>  <r_epik_Ionization_Penalty_Charging>  (198) 
0.0411667

>  <r_epik_Ionization_Penalty_Neutral>  (198) 
0.000989907

>  <r_epik_State_Penalty>  (198) 
0.0261879

>  <r_epik_Charging_Adjusted_Penalty>  (198) 
0.0673547

>  <i_epik_Tot_Q>  (198) 
2

>  <i_epik_Tot_abs_Q>  (198) 
2

>  <s_lp_Force_Field>  (198) 
OPLS3e

>  <r_lp_Energy>  (198) 
218.375

>  <b_lp_Chiralities_Consistent>  (198) 
1

>  <s_lp_Variant>  (198) 
57:0-1

>  <s_i_glide_gridfile>  (198) 
pfpi4k_grid

>  <i_i_glide_lignum>  (198) 
11

>  <i_i_glide_rotatable_bonds>  (198) 
2

>  <r_i_docking_score>  (198) 
-4.42051

>  <r_i_glide_ligand_efficiency>  (198) 
-0.232658

>  <r_i_glide_ligand_efficiency_sa>  (198) 
-0.620826

>  <r_i_glide_ligand_efficiency_ln>  (198) 
-1.12069

>  <r_i_glide_gscore>  (198) 
-4.42051

>  <r_i_glide_lipo>  (198) 
-0.304264

>  <r_i_glide_hbond>  (198) 
-0.307356

>  <r_i_glide_metal>  (198) 
-0

>  <r_i_glide_rewards>  (198) 
-1.60661

>  <r_i_glide_evdw>  (198) 
-18.5961

>  <r_i_glide_ecoul>  (198) 
-8.43029

>  <r_i_glide_erotb>  (198) 
0

>  <r_i_glide_esite>  (198) 
-0.00792784

>  <r_i_glide_emodel>  (198) 
-35.1212

>  <r_i_glide_energy>  (198) 
-27.0264

>  <r_i_glide_einternal>  (198) 
0.443495

>  <r_i_glide_intrahb_reward>  (198) 
-0

>  <i_i_glide_confnum>  (198) 
2

>  <i_i_glide_posenum>  (198) 
17

>  <r_i_glide_eff_state_penalty>  (198) 
0

>  <ligand_id>  (198) 
57

>  <original_smiles>  (198) 
C=C1C2C3CC4(N)CCC5(O)C3CN2CCC45C1O

>  <smiles>  (198) 
[H]OC1([H])C(=C([H])[H])C2([H])C3([H])C([H])([H])C4([N+]([H])([H])[H])C([H])([H])C([H])([H])C5(O[H])C3([H])C([H])([H])[N+]2([H])C([H])([H])C([H])([H])C154

$$$$
57:0:1
     RDKit          3D

 43 47  0  0  1  0  0  0  0  0999 V2000
    4.7116   -2.8736   -2.7138 C   0  0  0  0  0  0  0  0  0  0  0  0
    4.5531   -2.9845   -1.3825 C   0  0  0  0  0  0  0  0  0  0  0  0
    3.4954   -3.7559   -0.7359 C   0  0  2  0  0  0  0  0  0  0  0  0
    2.7361   -3.0075    0.4480 C   0  0  2  0  0  0  0  0  0  0  0  0
    3.2214   -1.5726    1.0728 C   0  0  0  0  0  0  0  0  0  0  0  0
    4.6602   -1.5688    1.8305 C   0  0  1  0  0  0  0  0  0  0  0  0
    5.4189   -0.3236    1.5622 N   0  0  0  0  0  0  0  0  0  0  0  0
    4.5293   -1.6783    3.3355 C   0  0  0  0  0  0  0  0  0  0  0  0
    3.7668   -2.9472    3.4980 C   0  0  0  0  0  0  0  0  0  0  0  0
    4.1046   -3.7589    2.2183 C   0  0  1  0  0  0  0  0  0  0  0  0
    4.4862   -4.9493    2.9259 O   0  0  0  0  0  0  0  0  0  0  0  0
    2.8347   -4.1278    1.4774 C   0  0  2  0  0  0  0  0  0  0  0  0
    3.0733   -5.4395    0.7110 C   0  0  0  0  0  0  0  0  0  0  0  0
    4.1051   -5.0381   -0.2432 N   0  0  2  0  0  0  0  0  0  0  0  0
    5.5930   -5.1132    0.2258 C   0  0  0  0  0  0  0  0  0  0  0  0
    6.2492   -4.0060    1.2153 C   0  0  0  0  0  0  0  0  0  0  0  0
    5.1969   -2.9059    1.2384 C   0  0  2  0  0  0  0  0  0  0  0  0
    5.3877   -2.3663   -0.3264 C   0  0  1  0  0  0  0  0  0  0  0  0
    6.7223   -2.1398   -0.7661 O   0  0  0  0  0  0  0  0  0  0  0  0
    5.5146   -2.2869   -3.1321 H   0  0  0  0  0  0  0  0  0  0  0  0
    4.0346   -3.3620   -3.4031 H   0  0  0  0  0  0  0  0  0  0  0  0
    2.7513   -4.0182   -1.4916 H   0  0  0  0  0  0  0  0  0  0  0  0
    1.7144   -2.8801    0.1145 H   0  0  0  0  0  0  0  0  0  0  0  0
    3.1743   -0.8247    0.2790 H   0  0  0  0  0  0  0  0  0  0  0  0
    2.4565   -1.2230    1.7708 H   0  0  0  0  0  0  0  0  0  0  0  0
    6.3350   -0.3482    1.9860 H   0  0  0  0  0  0  0  0  0  0  0  0
    4.8733    0.4363    1.9469 H   0  0  0  0  0  0  0  0  0  0  0  0
    5.5127   -1.7727    3.7976 H   0  0  0  0  0  0  0  0  0  0  0  0
    4.0132   -0.8362    3.7973 H   0  0  0  0  0  0  0  0  0  0  0  0
    4.0513   -3.4133    4.4450 H   0  0  0  0  0  0  0  0  0  0  0  0
    2.6996   -2.7335    3.5822 H   0  0  0  0  0  0  0  0  0  0  0  0
    4.6776   -5.6362    2.3090 H   0  0  0  0  0  0  0  0  0  0  0  0
    1.9566   -4.2018    2.1229 H   0  0  0  0  0  0  0  0  0  0  0  0
    3.3122   -6.3282    1.2962 H   0  0  0  0  0  0  0  0  0  0  0  0
    2.1686   -5.6917    0.1486 H   0  0  0  0  0  0  0  0  0  0  0  0
    5.7820   -6.1091    0.6367 H   0  0  0  0  0  0  0  0  0  0  0  0
    6.1790   -5.0676   -0.6892 H   0  0  0  0  0  0  0  0  0  0  0  0
    6.5487   -4.3857    2.1939 H   0  0  0  0  0  0  0  0  0  0  0  0
    7.2316   -3.6989    0.8684 H   0  0  0  0  0  0  0  0  0  0  0  0
    5.0414   -1.3574   -0.5181 H   0  0  0  0  0  0  0  0  0  0  0  0
    7.1675   -2.9771   -0.8087 H   0  0  0  0  0  0  0  0  0  0  0  0
    5.5196   -0.1802    0.5670 H   0  0  0  0  0  0  0  0  0  0  0  0
    4.0389   -5.6781   -1.0269 H   0  0  0  0  0  0  0  0  0  0  0  0
  1  2  2  0
  1 20  1  0
  1 21  1  0
  2 18  1  0
  2  3  1  0
  3 14  1  0
  3  4  1  0
  3 22  1  6
  4 12  1  0
  4  5  1  0
  4 23  1  6
  5  6  1  0
  5 24  1  0
  5 25  1  0
  6 17  1  0
  6  7  1  1
  6  8  1  0
  7 26  1  0
  7 27  1  0
  7 42  1  0
  8  9  1  0
  8 28  1  0
  8 29  1  0
  9 10  1  0
  9 30  1  0
  9 31  1  0
 10 17  1  0
 10 11  1  1
 10 12  1  0
 11 32  1  0
 12 13  1  0
 12 33  1  1
 13 14  1  0
 13 34  1  0
 13 35  1  0
 14 15  1  0
 14 43  1  6
 15 16  1  0
 15 36  1  0
 15 37  1  0
 17 16  1  1
 16 38  1  0
 16 39  1  0
 17 18  1  0
 18 19  1  0
 18 40  1  1
 19 41  1  0
M  CHG  2   7   1  14   1
M  END
>  <i_m_ct_stereo_status>  (199) 
1

>  <s_m_source_file>  (199) 
/var/tmp/pbs.5076255.sched01/tmple0dc7g8/88jbw3zpwn.sdf

>  <i_m_source_file_index>  (199) 
11

>  <i_lp_mmshare_version>  (199) 
48012

>  <i_f3d_flags>  (199) 
0

>  <s_epik_input>  (199) 
W05IMl1bQ0BdMShbQ0BdMjM0KVtDSDJdW0NASF01W0NAQEhdKEMoPVtDSDJdKVtDQEBIXTRbT0hdKU4oW0NIMl1bQ0gyXTMpW0NIMl1bQ0BIXTVbQ0BdMihbT0hdKVtDSDJdW0NIMl0x

>  <s_epik_cmdline>  (199) 
J2VwaWtfcHl0aG9uJywgJy1waHQnLCAnMi4wJywgJy1waCcsICc3LjAnLCAnLXRuJywgJzgnLCAnLW1hJywgJzIwMCcsICctaW1hZScsICc8aW5maWxlLm1hZT4nLCAnLW9tYWUnLCAnPG91dGZpbGUubWFlPic=

>  <r_epik_Ionization_Penalty>  (199) 
0.0421567

>  <r_epik_Ionization_Penalty_Charging>  (199) 
0.0411667

>  <r_epik_Ionization_Penalty_Neutral>  (199) 
0.000989907

>  <r_epik_State_Penalty>  (199) 
0.0261879

>  <r_epik_Charging_Adjusted_Penalty>  (199) 
0.0673547

>  <i_epik_Tot_Q>  (199) 
2

>  <i_epik_Tot_abs_Q>  (199) 
2

>  <s_lp_Force_Field>  (199) 
OPLS3e

>  <r_lp_Energy>  (199) 
218.375

>  <b_lp_Chiralities_Consistent>  (199) 
1

>  <s_lp_Variant>  (199) 
57:0-1

>  <s_i_glide_gridfile>  (199) 
pfpi4k_grid

>  <i_i_glide_lignum>  (199) 
11

>  <i_i_glide_rotatable_bonds>  (199) 
2

>  <r_i_docking_score>  (199) 
-4.28458

>  <r_i_glide_ligand_efficiency>  (199) 
-0.225504

>  <r_i_glide_ligand_efficiency_sa>  (199) 
-0.601736

>  <r_i_glide_ligand_efficiency_ln>  (199) 
-1.08623

>  <r_i_glide_gscore>  (199) 
-4.28458

>  <r_i_glide_lipo>  (199) 
-0.413557

>  <r_i_glide_hbond>  (199) 
-0.147676

>  <r_i_glide_metal>  (199) 
-0

>  <r_i_glide_rewards>  (199) 
-1.60661

>  <r_i_glide_evdw>  (199) 
-16.8132

>  <r_i_glide_ecoul>  (199) 
-8.30868

>  <r_i_glide_erotb>  (199) 
0

>  <r_i_glide_esite>  (199) 
-0.0297719

>  <r_i_glide_emodel>  (199) 
-33.2351

>  <r_i_glide_energy>  (199) 
-25.1219

>  <r_i_glide_einternal>  (199) 
0.0108263

>  <r_i_glide_intrahb_reward>  (199) 
-0

>  <i_i_glide_confnum>  (199) 
1

>  <i_i_glide_posenum>  (199) 
27

>  <r_i_glide_eff_state_penalty>  (199) 
0

>  <ligand_id>  (199) 
57

>  <original_smiles>  (199) 
C=C1C2C3CC4(N)CCC5(O)C3CN2CCC45C1O

>  <smiles>  (199) 
[H]OC1([H])C(=C([H])[H])C2([H])C3([H])C([H])([H])C4([N+]([H])([H])[H])C([H])([H])C([H])([H])C5(O[H])C3([H])C([H])([H])[N+]2([H])C([H])([H])C([H])([H])C154

$$$$
57:0:2
     RDKit          3D

 43 47  0  0  1  0  0  0  0  0999 V2000
    4.5068   -1.0263   -1.8548 C   0  0  0  0  0  0  0  0  0  0  0  0
    4.4462   -1.7047   -0.6967 C   0  0  0  0  0  0  0  0  0  0  0  0
    3.4759   -2.7546   -0.4073 C   0  0  2  0  0  0  0  0  0  0  0  0
    2.7704   -2.6507    1.0233 C   0  0  2  0  0  0  0  0  0  0  0  0
    3.2324   -1.5931    2.1877 C   0  0  0  0  0  0  0  0  0  0  0  0
    4.7264   -1.8063    2.8097 C   0  0  1  0  0  0  0  0  0  0  0  0
    5.4033   -0.5174    3.0868 N   0  0  0  0  0  0  0  0  0  0  0  0
    4.7132   -2.5702    4.1180 C   0  0  0  0  0  0  0  0  0  0  0  0
    4.0300   -3.8369    3.7438 C   0  0  0  0  0  0  0  0  0  0  0  0
    4.3118   -3.9822    2.2217 C   0  0  1  0  0  0  0  0  0  0  0  0
    4.8052   -5.3281    2.3221 O   0  0  0  0  0  0  0  0  0  0  0  0
    3.0100   -4.0932    1.4550 C   0  0  2  0  0  0  0  0  0  0  0  0
    3.2543   -4.9238    0.1875 C   0  0  0  0  0  0  0  0  0  0  0  0
    4.1905   -4.0757   -0.5497 N   0  0  2  0  0  0  0  0  0  0  0  0
    5.7134   -4.2267   -0.2353 C   0  0  0  0  0  0  0  0  0  0  0  0
    6.3840   -3.6103    1.1101 C   0  0  0  0  0  0  0  0  0  0  0  0
    5.2834   -2.7091    1.6620 C   0  0  2  0  0  0  0  0  0  0  0  0
    5.3255   -1.5329    0.4827 C   0  0  1  0  0  0  0  0  0  0  0  0
    6.6099   -1.0603    0.0947 O   0  0  0  0  0  0  0  0  0  0  0  0
    5.2413   -0.2529   -2.0120 H   0  0  0  0  0  0  0  0  0  0  0  0
    3.8047   -1.2159   -2.6542 H   0  0  0  0  0  0  0  0  0  0  0  0
    2.6962   -2.7236   -1.1705 H   0  0  0  0  0  0  0  0  0  0  0  0
    1.7108   -2.4821    0.8490 H   0  0  0  0  0  0  0  0  0  0  0  0
    3.0955   -0.5820    1.8029 H   0  0  0  0  0  0  0  0  0  0  0  0
    2.5112   -1.6399    3.0050 H   0  0  0  0  0  0  0  0  0  0  0  0
    6.3502   -0.6636    3.4072 H   0  0  0  0  0  0  0  0  0  0  0  0
    4.8789   -0.0303    3.7988 H   0  0  0  0  0  0  0  0  0  0  0  0
    5.7332   -2.7790    4.4450 H   0  0  0  0  0  0  0  0  0  0  0  0
    4.1936   -2.0530    4.9238 H   0  0  0  0  0  0  0  0  0  0  0  0
    4.4078   -4.6437    4.3779 H   0  0  0  0  0  0  0  0  0  0  0  0
    2.9622   -3.7638    3.9622 H   0  0  0  0  0  0  0  0  0  0  0  0
    4.9786   -5.6697    1.4612 H   0  0  0  0  0  0  0  0  0  0  0  0
    2.1892   -4.5089    2.0433 H   0  0  0  0  0  0  0  0  0  0  0  0
    3.5831   -5.9557    0.3139 H   0  0  0  0  0  0  0  0  0  0  0  0
    2.3229   -4.9799   -0.3826 H   0  0  0  0  0  0  0  0  0  0  0  0
    5.9691   -5.2869   -0.2939 H   0  0  0  0  0  0  0  0  0  0  0  0
    6.2428   -3.7712   -1.0769 H   0  0  0  0  0  0  0  0  0  0  0  0
    6.7749   -4.3493    1.8092 H   0  0  0  0  0  0  0  0  0  0  0  0
    7.3207   -3.1089    0.8833 H   0  0  0  0  0  0  0  0  0  0  0  0
    4.9249   -0.5658    0.7677 H   0  0  0  0  0  0  0  0  0  0  0  0
    6.9998   -0.5430    0.7880 H   0  0  0  0  0  0  0  0  0  0  0  0
    5.3976    0.0444    2.2502 H   0  0  0  0  0  0  0  0  0  0  0  0
    4.1014   -4.3512   -1.5212 H   0  0  0  0  0  0  0  0  0  0  0  0
  1  2  2  0
  1 20  1  0
  1 21  1  0
  2 18  1  0
  2  3  1  0
  3 14  1  0
  3  4  1  0
  3 22  1  6
  4 12  1  0
  4  5  1  0
  4 23  1  6
  5  6  1  0
  5 24  1  0
  5 25  1  0
  6 17  1  0
  6  7  1  1
  6  8  1  0
  7 26  1  0
  7 27  1  0
  7 42  1  0
  8  9  1  0
  8 28  1  0
  8 29  1  0
  9 10  1  0
  9 30  1  0
  9 31  1  0
 10 17  1  0
 10 11  1  1
 10 12  1  0
 11 32  1  0
 12 13  1  0
 12 33  1  1
 13 14  1  0
 13 34  1  0
 13 35  1  0
 14 15  1  0
 14 43  1  6
 15 16  1  0
 15 36  1  0
 15 37  1  0
 17 16  1  1
 16 38  1  0
 16 39  1  0
 17 18  1  0
 18 19  1  0
 18 40  1  1
 19 41  1  0
M  CHG  2   7   1  14   1
M  END
>  <i_m_ct_stereo_status>  (200) 
1

>  <s_m_source_file>  (200) 
/var/tmp/pbs.5076255.sched01/tmple0dc7g8/88jbw3zpwn.sdf

>  <i_m_source_file_index>  (200) 
11

>  <i_lp_mmshare_version>  (200) 
48012

>  <i_f3d_flags>  (200) 
0

>  <s_epik_input>  (200) 
W05IMl1bQ0BdMShbQ0BdMjM0KVtDSDJdW0NASF01W0NAQEhdKEMoPVtDSDJdKVtDQEBIXTRbT0hdKU4oW0NIMl1bQ0gyXTMpW0NIMl1bQ0BIXTVbQ0BdMihbT0hdKVtDSDJdW0NIMl0x

>  <s_epik_cmdline>  (200) 
J2VwaWtfcHl0aG9uJywgJy1waHQnLCAnMi4wJywgJy1waCcsICc3LjAnLCAnLXRuJywgJzgnLCAnLW1hJywgJzIwMCcsICctaW1hZScsICc8aW5maWxlLm1hZT4nLCAnLW9tYWUnLCAnPG91dGZpbGUubWFlPic=

>  <r_epik_Ionization_Penalty>  (200) 
0.0421567

>  <r_epik_Ionization_Penalty_Charging>  (200) 
0.0411667

>  <r_epik_Ionization_Penalty_Neutral>  (200) 
0.000989907

>  <r_epik_State_Penalty>  (200) 
0.0261879

>  <r_epik_Charging_Adjusted_Penalty>  (200) 
0.0673547

>  <i_epik_Tot_Q>  (200) 
2

>  <i_epik_Tot_abs_Q>  (200) 
2

>  <s_lp_Force_Field>  (200) 
OPLS3e

>  <r_lp_Energy>  (200) 
218.375

>  <b_lp_Chiralities_Consistent>  (200) 
1

>  <s_lp_Variant>  (200) 
57:0-1

>  <s_i_glide_gridfile>  (200) 
pfpi4k_grid

>  <i_i_glide_lignum>  (200) 
11

>  <i_i_glide_rotatable_bonds>  (200) 
2

>  <r_i_docking_score>  (200) 
-4.13512

>  <r_i_glide_ligand_efficiency>  (200) 
-0.217638

>  <r_i_glide_ligand_efficiency_sa>  (200) 
-0.580745

>  <r_i_glide_ligand_efficiency_ln>  (200) 
-1.04834

>  <r_i_glide_gscore>  (200) 
-4.13512

>  <r_i_glide_lipo>  (200) 
-0.347499

>  <r_i_glide_hbond>  (200) 
-0.180895

>  <r_i_glide_metal>  (200) 
-0

>  <r_i_glide_rewards>  (200) 
-1.60661

>  <r_i_glide_evdw>  (200) 
-17.6373

>  <r_i_glide_ecoul>  (200) 
-7.36021

>  <r_i_glide_erotb>  (200) 
0

>  <r_i_glide_esite>  (200) 
-0.0142148

>  <r_i_glide_emodel>  (200) 
-32.6007

>  <r_i_glide_energy>  (200) 
-24.9975

>  <r_i_glide_einternal>  (200) 
0.421719

>  <r_i_glide_intrahb_reward>  (200) 
-0

>  <i_i_glide_confnum>  (200) 
2

>  <i_i_glide_posenum>  (200) 
5

>  <r_i_glide_eff_state_penalty>  (200) 
0

>  <ligand_id>  (200) 
57

>  <original_smiles>  (200) 
C=C1C2C3CC4(N)CCC5(O)C3CN2CCC45C1O

>  <smiles>  (200) 
[H]OC1([H])C(=C([H])[H])C2([H])C3([H])C([H])([H])C4([N+]([H])([H])[H])C([H])([H])C([H])([H])C5(O[H])C3([H])C([H])([H])[N+]2([H])C([H])([H])C([H])([H])C154

$$$$
57:1:0
     RDKit          3D

 42 46  0  0  1  0  0  0  0  0999 V2000
    5.2880   -3.1099   -2.7838 C   0  0  0  0  0  0  0  0  0  0  0  0
    5.0626   -3.2210   -1.4639 C   0  0  0  0  0  0  0  0  0  0  0  0
    4.9851   -4.4844   -0.7279 C   0  0  2  0  0  0  0  0  0  0  0  0
    3.6865   -4.6197    0.1918 C   0  0  2  0  0  0  0  0  0  0  0  0
    2.6854   -3.3648    0.5253 C   0  0  0  0  0  0  0  0  0  0  0  0
    3.3241   -2.1208    1.3672 C   0  0  1  0  0  0  0  0  0  0  0  0
    2.8203   -0.7970    0.9143 N   0  0  0  0  0  0  0  0  0  0  0  0
    3.0085   -2.1996    2.8520 C   0  0  0  0  0  0  0  0  0  0  0  0
    3.5523   -3.5323    3.2237 C   0  0  0  0  0  0  0  0  0  0  0  0
    4.6688   -3.7763    2.1713 C   0  0  1  0  0  0  0  0  0  0  0  0
    5.6816   -4.0927    3.1353 O   0  0  0  0  0  0  0  0  0  0  0  0
    4.4226   -5.0768    1.4311 C   0  0  2  0  0  0  0  0  0  0  0  0
    5.7716   -5.6564    0.9757 C   0  0  0  0  0  0  0  0  0  0  0  0
    6.2323   -4.6307    0.0734 N   0  0  0  0  0  0  0  0  0  0  0  0
    7.0087   -3.4337    0.6299 C   0  0  0  0  0  0  0  0  0  0  0  0
    6.2891   -2.2016    1.4003 C   0  0  0  0  0  0  0  0  0  0  0  0
    4.8145   -2.4599    1.1084 C   0  0  2  0  0  0  0  0  0  0  0  0
    4.8262   -2.1076   -0.5172 C   0  0  1  0  0  0  0  0  0  0  0  0
    5.5387   -0.9458   -0.9216 O   0  0  0  0  0  0  0  0  0  0  0  0
    5.3312   -2.1502   -3.2717 H   0  0  0  0  0  0  0  0  0  0  0  0
    5.4439   -3.9866   -3.3902 H   0  0  0  0  0  0  0  0  0  0  0  0
    4.9771   -5.2972   -1.4561 H   0  0  0  0  0  0  0  0  0  0  0  0
    3.0933   -5.4413   -0.2090 H   0  0  0  0  0  0  0  0  0  0  0  0
    2.2332   -3.0236   -0.4052 H   0  0  0  0  0  0  0  0  0  0  0  0
    1.8332   -3.7477    1.0897 H   0  0  0  0  0  0  0  0  0  0  0  0
    3.2572   -0.0368    1.4090 H   0  0  0  0  0  0  0  0  0  0  0  0
    1.8183   -0.7688    1.0566 H   0  0  0  0  0  0  0  0  0  0  0  0
    3.5369   -1.4119    3.3974 H   0  0  0  0  0  0  0  0  0  0  0  0
    1.9435   -2.1211    3.0775 H   0  0  0  0  0  0  0  0  0  0  0  0
    3.8741   -3.4989    4.2699 H   0  0  0  0  0  0  0  0  0  0  0  0
    2.7669   -4.2898    3.1741 H   0  0  0  0  0  0  0  0  0  0  0  0
    5.4321   -4.8875    3.5832 H   0  0  0  0  0  0  0  0  0  0  0  0
    3.8613   -5.8112    2.0110 H   0  0  0  0  0  0  0  0  0  0  0  0
    6.4949   -5.8903    1.7594 H   0  0  0  0  0  0  0  0  0  0  0  0
    5.5993   -6.5737    0.4138 H   0  0  0  0  0  0  0  0  0  0  0  0
    7.8255   -3.8176    1.2452 H   0  0  0  0  0  0  0  0  0  0  0  0
    7.5052   -3.0001   -0.2413 H   0  0  0  0  0  0  0  0  0  0  0  0
    6.5518   -2.1169    2.4509 H   0  0  0  0  0  0  0  0  0  0  0  0
    6.6835   -1.2506    1.0550 H   0  0  0  0  0  0  0  0  0  0  0  0
    3.8706   -1.8115   -0.9370 H   0  0  0  0  0  0  0  0  0  0  0  0
    5.0452   -0.1619   -0.7283 H   0  0  0  0  0  0  0  0  0  0  0  0
    2.9419   -0.6982   -0.0833 H   0  0  0  0  0  0  0  0  0  0  0  0
  1  2  2  0
  1 20  1  0
  1 21  1  0
  2 18  1  0
  2  3  1  0
  3 14  1  0
  3  4  1  0
  3 22  1  6
  4 12  1  0
  4  5  1  0
  4 23  1  6
  5  6  1  0
  5 24  1  0
  5 25  1  0
  6 17  1  0
  6  7  1  6
  6  8  1  0
  7 26  1  0
  7 27  1  0
  7 42  1  0
  8  9  1  0
  8 28  1  0
  8 29  1  0
  9 10  1  0
  9 30  1  0
  9 31  1  0
 10 17  1  0
 10 11  1  1
 10 12  1  0
 11 32  1  0
 12 13  1  0
 12 33  1  1
 13 14  1  0
 13 34  1  0
 13 35  1  0
 14 15  1  0
 15 16  1  0
 15 36  1  0
 15 37  1  0
 17 16  1  1
 16 38  1  0
 16 39  1  0
 17 18  1  0
 18 19  1  0
 18 40  1  6
 19 41  1  0
M  CHG  1   7   1
M  END
>  <i_m_ct_stereo_status>  (201) 
1

>  <s_m_source_file>  (201) 
/var/tmp/pbs.5076255.sched01/tmple0dc7g8/88jbw3zpwn.sdf

>  <i_m_source_file_index>  (201) 
12

>  <i_lp_mmshare_version>  (201) 
48012

>  <i_f3d_flags>  (201) 
0

>  <s_epik_input>  (201) 
W05IMl1bQ0BdMShbQ0BdMjM0KVtDSDJdW0NASF01W0NAQEhdKEMoPVtDSDJdKVtDQEBIXTRbT0hdKU4oW0NIMl1bQ0gyXTMpW0NIMl1bQ0BIXTVbQ0BdMihbT0hdKVtDSDJdW0NIMl0x

>  <s_epik_cmdline>  (201) 
J2VwaWtfcHl0aG9uJywgJy1waHQnLCAnMi4wJywgJy1waCcsICc3LjAnLCAnLXRuJywgJzgnLCAnLW1hJywgJzIwMCcsICctaW1hZScsICc8aW5maWxlLm1hZT4nLCAnLW9tYWUnLCAnPG91dGZpbGUubWFlPic=

>  <r_epik_Ionization_Penalty>  (201) 
1.75146

>  <r_epik_Ionization_Penalty_Charging>  (201) 
0.000302532

>  <r_epik_Ionization_Penalty_Neutral>  (201) 
1.75116

>  <r_epik_State_Penalty>  (201) 
1.86103

>  <r_epik_Charging_Adjusted_Penalty>  (201) 
1.86133

>  <i_epik_Tot_Q>  (201) 
1

>  <i_epik_Tot_abs_Q>  (201) 
1

>  <s_lp_Force_Field>  (201) 
OPLS3e

>  <r_lp_Energy>  (201) 
214.704

>  <b_lp_Chiralities_Consistent>  (201) 
1

>  <s_lp_Variant>  (201) 
57:0-2

>  <s_i_glide_gridfile>  (201) 
pfpi4k_grid

>  <i_i_glide_lignum>  (201) 
12

>  <i_i_glide_rotatable_bonds>  (201) 
2

>  <r_i_docking_score>  (201) 
-4.53239

>  <r_i_glide_ligand_efficiency>  (201) 
-0.238547

>  <r_i_glide_ligand_efficiency_sa>  (201) 
-0.636539

>  <r_i_glide_ligand_efficiency_ln>  (201) 
-1.14906

>  <r_i_glide_gscore>  (201) 
-4.53239

>  <r_i_glide_lipo>  (201) 
-0.65869

>  <r_i_glide_hbond>  (201) 
-0.144097

>  <r_i_glide_metal>  (201) 
-0

>  <r_i_glide_rewards>  (201) 
-1.61349

>  <r_i_glide_evdw>  (201) 
-15.8986

>  <r_i_glide_ecoul>  (201) 
-8.38277

>  <r_i_glide_erotb>  (201) 
0

>  <r_i_glide_esite>  (201) 
-0.0637743

>  <r_i_glide_emodel>  (201) 
-32.1459

>  <r_i_glide_energy>  (201) 
-24.2814

>  <r_i_glide_einternal>  (201) 
0.472426

>  <r_i_glide_intrahb_reward>  (201) 
-0

>  <i_i_glide_confnum>  (201) 
2

>  <i_i_glide_posenum>  (201) 
38

>  <r_i_glide_eff_state_penalty>  (201) 
0

>  <ligand_id>  (201) 
57

>  <original_smiles>  (201) 
C=C1C2C3CC4(N)CCC5(O)C3CN2CCC45C1O

>  <smiles>  (201) 
[H]OC1([H])C(=C([H])[H])C2([H])N3C([H])([H])C([H])([H])C14C1(O[H])C([H])([H])C([H])([H])C4([N+]([H])([H])[H])C([H])([H])C2([H])C1([H])C3([H])[H]

$$$$
57:1:1
     RDKit          3D

 42 46  0  0  1  0  0  0  0  0999 V2000
    5.1435   -3.2961   -2.7944 C   0  0  0  0  0  0  0  0  0  0  0  0
    4.9667   -3.3628   -1.4636 C   0  0  0  0  0  0  0  0  0  0  0  0
    4.9492   -4.6062   -0.6865 C   0  0  2  0  0  0  0  0  0  0  0  0
    3.6854   -4.7475    0.2811 C   0  0  2  0  0  0  0  0  0  0  0  0
    2.6625   -3.5067    0.6075 C   0  0  0  0  0  0  0  0  0  0  0  0
    3.2945   -2.2196    1.3913 C   0  0  1  0  0  0  0  0  0  0  0  0
    2.7327   -0.9274    0.9122 N   0  0  0  0  0  0  0  0  0  0  0  0
    3.0280   -2.2607    2.8858 C   0  0  0  0  0  0  0  0  0  0  0  0
    3.6251   -3.5667    3.2808 C   0  0  0  0  0  0  0  0  0  0  0  0
    4.7059   -3.8158    2.1951 C   0  0  1  0  0  0  0  0  0  0  0  0
    5.7544   -4.0926    3.1238 O   0  0  0  0  0  0  0  0  0  0  0  0
    4.4720   -5.1459    1.5093 C   0  0  2  0  0  0  0  0  0  0  0  0
    5.8197   -5.7097    1.0230 C   0  0  0  0  0  0  0  0  0  0  0  0
    6.2272   -4.6939    0.0814 N   0  0  0  0  0  0  0  0  0  0  0  0
    6.9890   -3.4570    0.5684 C   0  0  0  0  0  0  0  0  0  0  0  0
    6.2630   -2.2238    1.3270 C   0  0  0  0  0  0  0  0  0  0  0  0
    4.7856   -2.5288    1.0915 C   0  0  2  0  0  0  0  0  0  0  0  0
    4.7383   -2.2234   -0.5450 C   0  0  1  0  0  0  0  0  0  0  0  0
    5.4143   -1.0552   -1.0112 O   0  0  0  0  0  0  0  0  0  0  0  0
    5.1492   -2.3505   -3.3123 H   0  0  0  0  0  0  0  0  0  0  0  0
    5.3047   -4.1896   -3.3754 H   0  0  0  0  0  0  0  0  0  0  0  0
    4.9426   -5.4467   -1.3826 H   0  0  0  0  0  0  0  0  0  0  0  0
    3.0991   -5.5970   -0.0699 H   0  0  0  0  0  0  0  0  0  0  0  0
    2.1792   -3.2077   -0.3206 H   0  0  0  0  0  0  0  0  0  0  0  0
    1.8437   -3.9005    1.2091 H   0  0  0  0  0  0  0  0  0  0  0  0
    3.1632   -0.1357    1.3704 H   0  0  0  0  0  0  0  0  0  0  0  0
    1.7377   -0.9205    1.0822 H   0  0  0  0  0  0  0  0  0  0  0  0
    3.5491   -1.4441    3.3923 H   0  0  0  0  0  0  0  0  0  0  0  0
    1.9694   -2.2085    3.1492 H   0  0  0  0  0  0  0  0  0  0  0  0
    3.9882   -3.4978    4.3103 H   0  0  0  0  0  0  0  0  0  0  0  0
    2.8599   -4.3462    3.2830 H   0  0  0  0  0  0  0  0  0  0  0  0
    6.4951   -4.4009    2.6221 H   0  0  0  0  0  0  0  0  0  0  0  0
    3.9510   -5.8727    2.1356 H   0  0  0  0  0  0  0  0  0  0  0  0
    6.5675   -5.9198    1.7863 H   0  0  0  0  0  0  0  0  0  0  0  0
    5.6470   -6.6444    0.4911 H   0  0  0  0  0  0  0  0  0  0  0  0
    7.8440   -3.7935    1.1581 H   0  0  0  0  0  0  0  0  0  0  0  0
    7.4377   -3.0394   -0.3340 H   0  0  0  0  0  0  0  0  0  0  0  0
    6.5610   -2.1013    2.3671 H   0  0  0  0  0  0  0  0  0  0  0  0
    6.6171   -1.2716    0.9443 H   0  0  0  0  0  0  0  0  0  0  0  0
    3.7601   -1.9668   -0.9389 H   0  0  0  0  0  0  0  0  0  0  0  0
    4.9479   -0.2806   -0.7374 H   0  0  0  0  0  0  0  0  0  0  0  0
    2.8174   -0.8601   -0.0885 H   0  0  0  0  0  0  0  0  0  0  0  0
  1  2  2  0
  1 20  1  0
  1 21  1  0
  2 18  1  0
  2  3  1  0
  3 14  1  0
  3  4  1  0
  3 22  1  6
  4 12  1  0
  4  5  1  0
  4 23  1  6
  5  6  1  0
  5 24  1  0
  5 25  1  0
  6 17  1  0
  6  7  1  6
  6  8  1  0
  7 26  1  0
  7 27  1  0
  7 42  1  0
  8  9  1  0
  8 28  1  0
  8 29  1  0
  9 10  1  0
  9 30  1  0
  9 31  1  0
 10 17  1  0
 10 11  1  1
 10 12  1  0
 11 32  1  0
 12 13  1  0
 12 33  1  1
 13 14  1  0
 13 34  1  0
 13 35  1  0
 14 15  1  0
 15 16  1  0
 15 36  1  0
 15 37  1  0
 17 16  1  1
 16 38  1  0
 16 39  1  0
 17 18  1  0
 18 19  1  0
 18 40  1  6
 19 41  1  0
M  CHG  1   7   1
M  END
>  <i_m_ct_stereo_status>  (202) 
1

>  <s_m_source_file>  (202) 
/var/tmp/pbs.5076255.sched01/tmple0dc7g8/88jbw3zpwn.sdf

>  <i_m_source_file_index>  (202) 
12

>  <i_lp_mmshare_version>  (202) 
48012

>  <i_f3d_flags>  (202) 
0

>  <s_epik_input>  (202) 
W05IMl1bQ0BdMShbQ0BdMjM0KVtDSDJdW0NASF01W0NAQEhdKEMoPVtDSDJdKVtDQEBIXTRbT0hdKU4oW0NIMl1bQ0gyXTMpW0NIMl1bQ0BIXTVbQ0BdMihbT0hdKVtDSDJdW0NIMl0x

>  <s_epik_cmdline>  (202) 
J2VwaWtfcHl0aG9uJywgJy1waHQnLCAnMi4wJywgJy1waCcsICc3LjAnLCAnLXRuJywgJzgnLCAnLW1hJywgJzIwMCcsICctaW1hZScsICc8aW5maWxlLm1hZT4nLCAnLW9tYWUnLCAnPG91dGZpbGUubWFlPic=

>  <r_epik_Ionization_Penalty>  (202) 
1.75146

>  <r_epik_Ionization_Penalty_Charging>  (202) 
0.000302532

>  <r_epik_Ionization_Penalty_Neutral>  (202) 
1.75116

>  <r_epik_State_Penalty>  (202) 
1.86103

>  <r_epik_Charging_Adjusted_Penalty>  (202) 
1.86133

>  <i_epik_Tot_Q>  (202) 
1

>  <i_epik_Tot_abs_Q>  (202) 
1

>  <s_lp_Force_Field>  (202) 
OPLS3e

>  <r_lp_Energy>  (202) 
214.704

>  <b_lp_Chiralities_Consistent>  (202) 
1

>  <s_lp_Variant>  (202) 
57:0-2

>  <s_i_glide_gridfile>  (202) 
pfpi4k_grid

>  <i_i_glide_lignum>  (202) 
12

>  <i_i_glide_rotatable_bonds>  (202) 
2

>  <r_i_docking_score>  (202) 
-4.44166

>  <r_i_glide_ligand_efficiency>  (202) 
-0.233772

>  <r_i_glide_ligand_efficiency_sa>  (202) 
-0.623797

>  <r_i_glide_ligand_efficiency_ln>  (202) 
-1.12606

>  <r_i_glide_gscore>  (202) 
-4.44166

>  <r_i_glide_lipo>  (202) 
-0.675848

>  <r_i_glide_hbond>  (202) 
-0.0663441

>  <r_i_glide_metal>  (202) 
-0

>  <r_i_glide_rewards>  (202) 
-1.61349

>  <r_i_glide_evdw>  (202) 
-16.4661

>  <r_i_glide_ecoul>  (202) 
-7.99702

>  <r_i_glide_erotb>  (202) 
0

>  <r_i_glide_esite>  (202) 
-0.0631299

>  <r_i_glide_emodel>  (202) 
-32.178

>  <r_i_glide_energy>  (202) 
-24.4631

>  <r_i_glide_einternal>  (202) 
0.450832

>  <r_i_glide_intrahb_reward>  (202) 
-0

>  <i_i_glide_confnum>  (202) 
1

>  <i_i_glide_posenum>  (202) 
3

>  <r_i_glide_eff_state_penalty>  (202) 
0

>  <ligand_id>  (202) 
57

>  <original_smiles>  (202) 
C=C1C2C3CC4(N)CCC5(O)C3CN2CCC45C1O

>  <smiles>  (202) 
[H]OC1([H])C(=C([H])[H])C2([H])N3C([H])([H])C([H])([H])C14C1(O[H])C([H])([H])C([H])([H])C4([N+]([H])([H])[H])C([H])([H])C2([H])C1([H])C3([H])[H]

$$$$
57:1:2
     RDKit          3D

 42 46  0  0  1  0  0  0  0  0999 V2000
    4.9450   -3.3850   -2.7767 C   0  0  0  0  0  0  0  0  0  0  0  0
    4.7690   -3.2657   -1.4497 C   0  0  0  0  0  0  0  0  0  0  0  0
    3.7247   -3.9503   -0.6808 C   0  0  2  0  0  0  0  0  0  0  0  0
    2.8778   -3.0072    0.2811 C   0  0  2  0  0  0  0  0  0  0  0  0
    3.2904   -1.4591    0.6038 C   0  0  0  0  0  0  0  0  0  0  0  0
    4.6909   -1.2363    1.3962 C   0  0  1  0  0  0  0  0  0  0  0  0
    5.4175   -0.0492    0.8987 N   0  0  0  0  0  0  0  0  0  0  0  0
    4.4912   -1.0247    2.8850 C   0  0  0  0  0  0  0  0  0  0  0  0
    3.7615   -2.2592    3.2820 C   0  0  0  0  0  0  0  0  0  0  0  0
    4.2011   -3.3056    2.2171 C   0  0  1  0  0  0  0  0  0  0  0  0
    4.5871   -4.3118    3.1735 O   0  0  0  0  0  0  0  0  0  0  0  0
    2.9924   -3.8806    1.5101 C   0  0  2  0  0  0  0  0  0  0  0  0
    3.3124   -5.3038    1.0257 C   0  0  0  0  0  0  0  0  0  0  0  0
    4.3727   -5.0586    0.0771 N   0  0  0  0  0  0  0  0  0  0  0  0
    5.8106   -4.9743    0.5932 C   0  0  0  0  0  0  0  0  0  0  0  0
    6.3932   -3.6722    1.3568 C   0  0  0  0  0  0  0  0  0  0  0  0
    5.3030   -2.6349    1.1162 C   0  0  2  0  0  0  0  0  0  0  0  0
    5.5427   -2.4147   -0.5178 C   0  0  1  0  0  0  0  0  0  0  0  0
    6.8867   -2.2287   -0.9463 O   0  0  0  0  0  0  0  0  0  0  0  0
    5.7239   -2.8531   -3.2991 H   0  0  0  0  0  0  0  0  0  0  0  0
    4.3072   -4.0324   -3.3575 H   0  0  0  0  0  0  0  0  0  0  0  0
    3.0134   -4.3750   -1.3825 H   0  0  0  0  0  0  0  0  0  0  0  0
    1.8531   -3.0238   -0.0869 H   0  0  0  0  0  0  0  0  0  0  0  0
    3.2619   -0.8981   -0.3304 H   0  0  0  0  0  0  0  0  0  0  0  0
    2.4853   -0.9984    1.1794 H   0  0  0  0  0  0  0  0  0  0  0  0
    6.3198    0.0445    1.3462 H   0  0  0  0  0  0  0  0  0  0  0  0
    4.8386    0.7603    1.0794 H   0  0  0  0  0  0  0  0  0  0  0  0
    5.4552   -0.9730    3.3995 H   0  0  0  0  0  0  0  0  0  0  0  0
    3.9220   -0.1247    3.1293 H   0  0  0  0  0  0  0  0  0  0  0  0
    4.0104   -2.4938    4.3209 H   0  0  0  0  0  0  0  0  0  0  0  0
    2.6837   -2.0812    3.2615 H   0  0  0  0  0  0  0  0  0  0  0  0
    3.8252   -4.5666    3.6708 H   0  0  0  0  0  0  0  0  0  0  0  0
    2.0871   -3.8704    2.1207 H   0  0  0  0  0  0  0  0  0  0  0  0
    3.5845   -6.0254    1.7976 H   0  0  0  0  0  0  0  0  0  0  0  0
    2.4545   -5.7119    0.4926 H   0  0  0  0  0  0  0  0  0  0  0  0
    6.0104   -5.8591    1.2010 H   0  0  0  0  0  0  0  0  0  0  0  0
    6.4304   -5.1066   -0.2958 H   0  0  0  0  0  0  0  0  0  0  0  0
    6.6256   -3.8602    2.3987 H   0  0  0  0  0  0  0  0  0  0  0  0
    7.3850   -3.4085    1.0000 H   0  0  0  0  0  0  0  0  0  0  0  0
    5.1752   -1.4808   -0.9301 H   0  0  0  0  0  0  0  0  0  0  0  0
    7.3467   -3.0475   -0.8270 H   0  0  0  0  0  0  0  0  0  0  0  0
    5.5538   -0.1155   -0.1003 H   0  0  0  0  0  0  0  0  0  0  0  0
  1  2  2  0
  1 20  1  0
  1 21  1  0
  2 18  1  0
  2  3  1  0
  3 14  1  0
  3  4  1  0
  3 22  1  6
  4 12  1  0
  4  5  1  0
  4 23  1  6
  5  6  1  0
  5 24  1  0
  5 25  1  0
  6 17  1  0
  6  7  1  6
  6  8  1  0
  7 26  1  0
  7 27  1  0
  7 42  1  0
  8  9  1  0
  8 28  1  0
  8 29  1  0
  9 10  1  0
  9 30  1  0
  9 31  1  0
 10 17  1  0
 10 11  1  1
 10 12  1  0
 11 32  1  0
 12 13  1  0
 12 33  1  1
 13 14  1  0
 13 34  1  0
 13 35  1  0
 14 15  1  0
 15 16  1  0
 15 36  1  0
 15 37  1  0
 17 16  1  1
 16 38  1  0
 16 39  1  0
 17 18  1  0
 18 19  1  0
 18 40  1  6
 19 41  1  0
M  CHG  1   7   1
M  END
>  <i_m_ct_stereo_status>  (203) 
1

>  <s_m_source_file>  (203) 
/var/tmp/pbs.5076255.sched01/tmple0dc7g8/88jbw3zpwn.sdf

>  <i_m_source_file_index>  (203) 
12

>  <i_lp_mmshare_version>  (203) 
48012

>  <i_f3d_flags>  (203) 
0

>  <s_epik_input>  (203) 
W05IMl1bQ0BdMShbQ0BdMjM0KVtDSDJdW0NASF01W0NAQEhdKEMoPVtDSDJdKVtDQEBIXTRbT0hdKU4oW0NIMl1bQ0gyXTMpW0NIMl1bQ0BIXTVbQ0BdMihbT0hdKVtDSDJdW0NIMl0x

>  <s_epik_cmdline>  (203) 
J2VwaWtfcHl0aG9uJywgJy1waHQnLCAnMi4wJywgJy1waCcsICc3LjAnLCAnLXRuJywgJzgnLCAnLW1hJywgJzIwMCcsICctaW1hZScsICc8aW5maWxlLm1hZT4nLCAnLW9tYWUnLCAnPG91dGZpbGUubWFlPic=

>  <r_epik_Ionization_Penalty>  (203) 
1.75146

>  <r_epik_Ionization_Penalty_Charging>  (203) 
0.000302532

>  <r_epik_Ionization_Penalty_Neutral>  (203) 
1.75116

>  <r_epik_State_Penalty>  (203) 
1.86103

>  <r_epik_Charging_Adjusted_Penalty>  (203) 
1.86133

>  <i_epik_Tot_Q>  (203) 
1

>  <i_epik_Tot_abs_Q>  (203) 
1

>  <s_lp_Force_Field>  (203) 
OPLS3e

>  <r_lp_Energy>  (203) 
214.704

>  <b_lp_Chiralities_Consistent>  (203) 
1

>  <s_lp_Variant>  (203) 
57:0-2

>  <s_i_glide_gridfile>  (203) 
pfpi4k_grid

>  <i_i_glide_lignum>  (203) 
12

>  <i_i_glide_rotatable_bonds>  (203) 
2

>  <r_i_docking_score>  (203) 
-4.0499

>  <r_i_glide_ligand_efficiency>  (203) 
-0.213153

>  <r_i_glide_ligand_efficiency_sa>  (203) 
-0.568777

>  <r_i_glide_ligand_efficiency_ln>  (203) 
-1.02674

>  <r_i_glide_gscore>  (203) 
-4.0499

>  <r_i_glide_lipo>  (203) 
-0.540409

>  <r_i_glide_hbond>  (203) 
-0.16

>  <r_i_glide_metal>  (203) 
-0

>  <r_i_glide_rewards>  (203) 
-1.61349

>  <r_i_glide_evdw>  (203) 
-17.7081

>  <r_i_glide_ecoul>  (203) 
-5.67066

>  <r_i_glide_erotb>  (203) 
0

>  <r_i_glide_esite>  (203) 
0

>  <r_i_glide_emodel>  (203) 
-30.6056

>  <r_i_glide_energy>  (203) 
-23.3788

>  <r_i_glide_einternal>  (203) 
0.0361647

>  <r_i_glide_intrahb_reward>  (203) 
-0

>  <i_i_glide_confnum>  (203) 
1

>  <i_i_glide_posenum>  (203) 
13

>  <r_i_glide_eff_state_penalty>  (203) 
0

>  <ligand_id>  (203) 
57

>  <original_smiles>  (203) 
C=C1C2C3CC4(N)CCC5(O)C3CN2CCC45C1O

>  <smiles>  (203) 
[H]OC1([H])C(=C([H])[H])C2([H])N3C([H])([H])C([H])([H])C14C1(O[H])C([H])([H])C([H])([H])C4([N+]([H])([H])[H])C([H])([H])C2([H])C1([H])C3([H])[H]

$$$$
58:0:0
     RDKit          3D

 35 38  0  0  1  0  0  0  0  0999 V2000
    4.2324   -6.4222    0.6149 C   0  0  0  0  0  0  0  0  0  0  0  0
    3.9949   -5.2472    1.2212 C   0  0  0  0  0  0  0  0  0  0  0  0
    2.6901   -4.8262    1.7627 C   0  0  0  0  0  0  0  0  0  0  0  0
    1.6792   -5.5212    1.8699 O   0  0  0  0  0  0  0  0  0  0  0  0
    2.7999   -3.5312    2.1585 O   0  0  0  0  0  0  0  0  0  0  0  0
    3.9607   -2.9259    1.6117 C   0  0  2  0  0  0  0  0  0  0  0  0
    4.8060   -1.9861    2.4204 C   0  0  0  0  0  0  0  0  0  0  0  0
    4.8623   -1.7900    3.7472 C   0  0  0  0  0  0  0  0  0  0  0  0
    5.4651   -1.2158    1.3039 C   0  0  2  0  0  0  0  0  0  0  0  0
    4.1325   -0.6590    0.8007 C   0  0  0  0  0  0  0  0  0  0  0  0
    3.6818   -2.0369    0.2998 C   0  0  1  0  0  0  0  0  0  0  0  0
    4.7418   -2.2553   -0.8186 C   0  0  0  0  0  0  0  0  0  0  0  0
    4.4681   -3.5170   -1.6752 C   0  0  0  0  0  0  0  0  0  0  0  0
    4.8651   -1.1361   -1.8937 C   0  0  0  0  0  0  0  0  0  0  0  0
    5.9652   -2.2259    0.1391 C   0  0  2  0  0  0  0  0  0  0  0  0
    6.1597   -3.6993    0.6426 C   0  0  0  0  0  0  0  0  0  0  0  0
    4.9274   -4.1046    1.4971 C   0  0  2  0  0  0  0  0  0  0  0  0
    5.2108   -6.6738    0.2329 H   0  0  0  0  0  0  0  0  0  0  0  0
    3.4418   -7.1477    0.4910 H   0  0  0  0  0  0  0  0  0  0  0  0
    4.2819   -2.4026    4.4193 H   0  0  0  0  0  0  0  0  0  0  0  0
    5.4852   -1.0146    4.1705 H   0  0  0  0  0  0  0  0  0  0  0  0
    6.1822   -0.4655    1.6424 H   0  0  0  0  0  0  0  0  0  0  0  0
    3.4735   -0.2627    1.5803 H   0  0  0  0  0  0  0  0  0  0  0  0
    4.2053    0.1449    0.0762 H   0  0  0  0  0  0  0  0  0  0  0  0
    2.6489   -2.0663   -0.0512 H   0  0  0  0  0  0  0  0  0  0  0  0
    5.3498   -3.8278   -2.2365 H   0  0  0  0  0  0  0  0  0  0  0  0
    3.6776   -3.3210   -2.4017 H   0  0  0  0  0  0  0  0  0  0  0  0
    4.1166   -4.3729   -1.1163 H   0  0  0  0  0  0  0  0  0  0  0  0
    5.4110   -1.4975   -2.7634 H   0  0  0  0  0  0  0  0  0  0  0  0
    5.4220   -0.2622   -1.5569 H   0  0  0  0  0  0  0  0  0  0  0  0
    3.8844   -0.8002   -2.2361 H   0  0  0  0  0  0  0  0  0  0  0  0
    6.8633   -1.8648   -0.3617 H   0  0  0  0  0  0  0  0  0  0  0  0
    6.3639   -4.4086   -0.1593 H   0  0  0  0  0  0  0  0  0  0  0  0
    7.0451   -3.7206    1.2792 H   0  0  0  0  0  0  0  0  0  0  0  0
    5.3160   -4.3673    2.4867 H   0  0  0  0  0  0  0  0  0  0  0  0
  1  2  2  0
  1 18  1  0
  1 19  1  0
  2 17  1  0
  2  3  1  0
  3  4  2  0
  3  5  1  0
  6  5  1  1
  6 11  1  0
  6 17  1  0
  6  7  1  0
  7  8  2  0
  7  9  1  0
  8 20  1  0
  8 21  1  0
  9 15  1  0
  9 10  1  0
  9 22  1  1
 10 11  1  0
 10 23  1  0
 10 24  1  0
 11 12  1  0
 11 25  1  6
 12 13  1  0
 12 14  1  0
 12 15  1  0
 13 26  1  0
 13 27  1  0
 13 28  1  0
 14 29  1  0
 14 30  1  0
 14 31  1  0
 15 16  1  0
 15 32  1  6
 16 17  1  0
 16 33  1  0
 16 34  1  0
 17 35  1  1
M  END
>  <i_m_ct_stereo_status>  (204) 
1

>  <s_m_source_file>  (204) 
/var/tmp/pbs.5076255.sched01/tmple0dc7g8/88jbw3zpwn.sdf

>  <i_m_source_file_index>  (204) 
13

>  <i_lp_mmshare_version>  (204) 
48012

>  <i_f3d_flags>  (204) 
0

>  <s_epik_input>  (204) 
Tz1DKE8xKUMoPVtDSDJdKVtDQEhdMltDSDJdW0NAQEhdKEMzKFtDSDNdKVtDSDNdKVtDQEhdKEM0PVtDSDJdKVtDSDJdW0NAQEhdM1tDQEBdMTI0

>  <s_epik_cmdline>  (204) 
J2VwaWtfcHl0aG9uJywgJy1waHQnLCAnMi4wJywgJy1waCcsICc3LjAnLCAnLXRuJywgJzgnLCAnLW1hJywgJzIwMCcsICctaW1hZScsICc8aW5maWxlLm1hZT4nLCAnLW9tYWUnLCAnPG91dGZpbGUubWFlPic=

>  <r_lp_tautomer_probability>  (204) 
1

>  <r_epik_Ionization_Penalty>  (204) 
0

>  <r_epik_Ionization_Penalty_Charging>  (204) 
0

>  <r_epik_Ionization_Penalty_Neutral>  (204) 
0

>  <r_epik_State_Penalty>  (204) 
-0

>  <r_epik_Charging_Adjusted_Penalty>  (204) 
0

>  <i_epik_Tot_Q>  (204) 
0

>  <i_epik_Tot_abs_Q>  (204) 
0

>  <s_epik_Chemistry_Notes>  (204) 
This compound has an ester and may undergo hydrolysis at high or low pH.

>  <s_lp_Force_Field>  (204) 
OPLS3e

>  <r_lp_Energy>  (204) 
82.096

>  <b_lp_Chiralities_Consistent>  (204) 
1

>  <s_lp_Variant>  (204) 
58:0-1

>  <s_i_glide_gridfile>  (204) 
pfpi4k_grid

>  <i_i_glide_lignum>  (204) 
13

>  <i_i_glide_rotatable_bonds>  (204) 
0

>  <r_i_docking_score>  (204) 
-3.59401

>  <r_i_glide_ligand_efficiency>  (204) 
-0.211412

>  <r_i_glide_ligand_efficiency_sa>  (204) 
-0.5436

>  <r_i_glide_ligand_efficiency_ln>  (204) 
-0.937597

>  <r_i_glide_gscore>  (204) 
-3.59401

>  <r_i_glide_lipo>  (204) 
-0.60356

>  <r_i_glide_hbond>  (204) 
-0.0390383

>  <r_i_glide_metal>  (204) 
-0

>  <r_i_glide_rewards>  (204) 
-1.83885

>  <r_i_glide_evdw>  (204) 
-19.9515

>  <r_i_glide_ecoul>  (204) 
-0.686587

>  <r_i_glide_erotb>  (204) 
0

>  <r_i_glide_esite>  (204) 
-0.0119997

>  <r_i_glide_emodel>  (204) 
-25.5694

>  <r_i_glide_energy>  (204) 
-20.6381

>  <r_i_glide_einternal>  (204) 
0

>  <r_i_glide_intrahb_reward>  (204) 
-0

>  <i_i_glide_confnum>  (204) 
1

>  <i_i_glide_posenum>  (204) 
2

>  <r_i_glide_eff_state_penalty>  (204) 
0

>  <ligand_id>  (204) 
58

>  <original_smiles>  (204) 
C=C1C(=O)OC23C(=C)C4CC2C(C)(C)C4CC13

>  <smiles>  (204) 
[H]C([H])=C1C(=O)OC23C(=C([H])[H])C4([H])C([H])([H])C2([H])C(C([H])([H])[H])(C([H])([H])[H])C4([H])C([H])([H])C13[H]

$$$$
58:0:1
     RDKit          3D

 35 38  0  0  1  0  0  0  0  0999 V2000
    4.1346   -4.3679    3.0184 C   0  0  0  0  0  0  0  0  0  0  0  0
    4.8579   -3.5231    2.2632 C   0  0  0  0  0  0  0  0  0  0  0  0
    5.0577   -2.0908    2.5516 C   0  0  0  0  0  0  0  0  0  0  0  0
    4.7421   -1.5014    3.5842 O   0  0  0  0  0  0  0  0  0  0  0  0
    5.7138   -1.5376    1.4982 O   0  0  0  0  0  0  0  0  0  0  0  0
    5.6650   -2.3911    0.3657 C   0  0  2  0  0  0  0  0  0  0  0  0
    6.8580   -2.5591   -0.5297 C   0  0  0  0  0  0  0  0  0  0  0  0
    8.1562   -2.2819   -0.3220 C   0  0  0  0  0  0  0  0  0  0  0  0
    6.1560   -3.0029   -1.7904 C   0  0  2  0  0  0  0  0  0  0  0  0
    5.3823   -1.6899   -1.9193 C   0  0  0  0  0  0  0  0  0  0  0  0
    4.5203   -2.0006   -0.6965 C   0  0  1  0  0  0  0  0  0  0  0  0
    3.7561   -3.2365   -1.2528 C   0  0  0  0  0  0  0  0  0  0  0  0
    2.6376   -3.7189   -0.3028 C   0  0  0  0  0  0  0  0  0  0  0  0
    3.0059   -3.0537   -2.6097 C   0  0  0  0  0  0  0  0  0  0  0  0
    5.0244   -4.1076   -1.4474 C   0  0  2  0  0  0  0  0  0  0  0  0
    5.2645   -4.8395   -0.0809 C   0  0  0  0  0  0  0  0  0  0  0  0
    5.6194   -3.7810    0.9996 C   0  0  2  0  0  0  0  0  0  0  0  0
    4.0281   -5.4109    2.7560 H   0  0  0  0  0  0  0  0  0  0  0  0
    3.6391   -4.0228    3.9144 H   0  0  0  0  0  0  0  0  0  0  0  0
    8.4917   -1.9167    0.6381 H   0  0  0  0  0  0  0  0  0  0  0  0
    8.8951   -2.4096   -1.1009 H   0  0  0  0  0  0  0  0  0  0  0  0
    6.8278   -3.2343   -2.6196 H   0  0  0  0  0  0  0  0  0  0  0  0
    5.9670   -0.7831   -1.7691 H   0  0  0  0  0  0  0  0  0  0  0  0
    4.8789   -1.5300   -2.8662 H   0  0  0  0  0  0  0  0  0  0  0  0
    3.8772   -1.1733   -0.3915 H   0  0  0  0  0  0  0  0  0  0  0  0
    2.3118   -4.7313   -0.5433 H   0  0  0  0  0  0  0  0  0  0  0  0
    1.7789   -3.0594   -0.4066 H   0  0  0  0  0  0  0  0  0  0  0  0
    2.8853   -3.6845    0.7481 H   0  0  0  0  0  0  0  0  0  0  0  0
    2.2782   -3.8504   -2.7718 H   0  0  0  0  0  0  0  0  0  0  0  0
    3.6598   -3.1036   -3.4804 H   0  0  0  0  0  0  0  0  0  0  0  0
    2.4589   -2.1088   -2.6395 H   0  0  0  0  0  0  0  0  0  0  0  0
    4.9095   -4.8235   -2.2608 H   0  0  0  0  0  0  0  0  0  0  0  0
    4.4399   -5.4886    0.2146 H   0  0  0  0  0  0  0  0  0  0  0  0
    6.1184   -5.5047   -0.2055 H   0  0  0  0  0  0  0  0  0  0  0  0
    6.6082   -4.0543    1.3810 H   0  0  0  0  0  0  0  0  0  0  0  0
  1  2  2  0
  1 18  1  0
  1 19  1  0
  2 17  1  0
  2  3  1  0
  3  4  2  0
  3  5  1  0
  6  5  1  1
  6 11  1  0
  6 17  1  0
  6  7  1  0
  7  8  2  0
  7  9  1  0
  8 20  1  0
  8 21  1  0
  9 15  1  0
  9 10  1  0
  9 22  1  6
 10 11  1  0
 10 23  1  0
 10 24  1  0
 11 12  1  0
 11 25  1  1
 12 13  1  0
 12 14  1  0
 12 15  1  0
 13 26  1  0
 13 27  1  0
 13 28  1  0
 14 29  1  0
 14 30  1  0
 14 31  1  0
 15 16  1  0
 15 32  1  6
 16 17  1  0
 16 33  1  0
 16 34  1  0
 17 35  1  1
M  END
>  <i_m_ct_stereo_status>  (205) 
1

>  <s_m_source_file>  (205) 
/var/tmp/pbs.5076255.sched01/tmple0dc7g8/88jbw3zpwn.sdf

>  <i_m_source_file_index>  (205) 
13

>  <i_lp_mmshare_version>  (205) 
48012

>  <i_f3d_flags>  (205) 
0

>  <s_epik_input>  (205) 
Tz1DKE8xKUMoPVtDSDJdKVtDQEhdMltDSDJdW0NAQEhdKEMzKFtDSDNdKVtDSDNdKVtDQEhdKEM0PVtDSDJdKVtDSDJdW0NAQEhdM1tDQEBdMTI0

>  <s_epik_cmdline>  (205) 
J2VwaWtfcHl0aG9uJywgJy1waHQnLCAnMi4wJywgJy1waCcsICc3LjAnLCAnLXRuJywgJzgnLCAnLW1hJywgJzIwMCcsICctaW1hZScsICc8aW5maWxlLm1hZT4nLCAnLW9tYWUnLCAnPG91dGZpbGUubWFlPic=

>  <r_lp_tautomer_probability>  (205) 
1

>  <r_epik_Ionization_Penalty>  (205) 
0

>  <r_epik_Ionization_Penalty_Charging>  (205) 
0

>  <r_epik_Ionization_Penalty_Neutral>  (205) 
0

>  <r_epik_State_Penalty>  (205) 
-0

>  <r_epik_Charging_Adjusted_Penalty>  (205) 
0

>  <i_epik_Tot_Q>  (205) 
0

>  <i_epik_Tot_abs_Q>  (205) 
0

>  <s_epik_Chemistry_Notes>  (205) 
This compound has an ester and may undergo hydrolysis at high or low pH.

>  <s_lp_Force_Field>  (205) 
OPLS3e

>  <r_lp_Energy>  (205) 
82.096

>  <b_lp_Chiralities_Consistent>  (205) 
1

>  <s_lp_Variant>  (205) 
58:0-1

>  <s_i_glide_gridfile>  (205) 
pfpi4k_grid

>  <i_i_glide_lignum>  (205) 
13

>  <i_i_glide_rotatable_bonds>  (205) 
0

>  <r_i_docking_score>  (205) 
-3.41234

>  <r_i_glide_ligand_efficiency>  (205) 
-0.200726

>  <r_i_glide_ligand_efficiency_sa>  (205) 
-0.516123

>  <r_i_glide_ligand_efficiency_ln>  (205) 
-0.890204

>  <r_i_glide_gscore>  (205) 
-3.41234

>  <r_i_glide_lipo>  (205) 
-0.261395

>  <r_i_glide_hbond>  (205) 
0

>  <r_i_glide_metal>  (205) 
-0

>  <r_i_glide_rewards>  (205) 
-1.93453

>  <r_i_glide_evdw>  (205) 
-21.7364

>  <r_i_glide_ecoul>  (205) 
-0.863996

>  <r_i_glide_erotb>  (205) 
0

>  <r_i_glide_esite>  (205) 
0

>  <r_i_glide_emodel>  (205) 
-27.2741

>  <r_i_glide_energy>  (205) 
-22.6004

>  <r_i_glide_einternal>  (205) 
0

>  <r_i_glide_intrahb_reward>  (205) 
-0

>  <i_i_glide_confnum>  (205) 
1

>  <i_i_glide_posenum>  (205) 
13

>  <r_i_glide_eff_state_penalty>  (205) 
0

>  <ligand_id>  (205) 
58

>  <original_smiles>  (205) 
C=C1C(=O)OC23C(=C)C4CC2C(C)(C)C4CC13

>  <smiles>  (205) 
[H]C([H])=C1C(=O)OC23C(=C([H])[H])C4([H])C([H])([H])C2([H])C(C([H])([H])[H])(C([H])([H])[H])C4([H])C([H])([H])C13[H]

$$$$
58:0:2
     RDKit          3D

 35 38  0  0  1  0  0  0  0  0999 V2000
    2.5435   -4.0720    2.3792 C   0  0  0  0  0  0  0  0  0  0  0  0
    3.3866   -3.1823    1.8288 C   0  0  0  0  0  0  0  0  0  0  0  0
    3.3809   -1.7328    2.1016 C   0  0  0  0  0  0  0  0  0  0  0  0
    2.7306   -1.1569    2.9728 O   0  0  0  0  0  0  0  0  0  0  0  0
    4.2710   -1.1461    1.2585 O   0  0  0  0  0  0  0  0  0  0  0  0
    4.6252   -2.0199    0.1991 C   0  0  2  0  0  0  0  0  0  0  0  0
    6.0383   -2.1116   -0.2986 C   0  0  0  0  0  0  0  0  0  0  0  0
    7.1904   -1.7271    0.2760 C   0  0  0  0  0  0  0  0  0  0  0  0
    5.7818   -2.6370   -1.6884 C   0  0  2  0  0  0  0  0  0  0  0  0
    4.9884   -1.3913   -2.0959 C   0  0  0  0  0  0  0  0  0  0  0  0
    3.8247   -1.7535   -1.1691 C   0  0  1  0  0  0  0  0  0  0  0  0
    3.3509   -3.0611   -1.8656 C   0  0  0  0  0  0  0  0  0  0  0  0
    2.0373   -3.6134   -1.2595 C   0  0  0  0  0  0  0  0  0  0  0  0
    3.0230   -2.9705   -3.3869 C   0  0  0  0  0  0  0  0  0  0  0  0
    4.6863   -3.8268   -1.6450 C   0  0  2  0  0  0  0  0  0  0  0  0
    4.5668   -4.5057   -0.2356 C   0  0  0  0  0  0  0  0  0  0  0  0
    4.5022   -3.3968    0.8520 C   0  0  2  0  0  0  0  0  0  0  0  0
    2.6017   -5.1253    2.1460 H   0  0  0  0  0  0  0  0  0  0  0  0
    1.7822   -3.7497    3.0755 H   0  0  0  0  0  0  0  0  0  0  0  0
    7.1926   -1.3098    1.2723 H   0  0  0  0  0  0  0  0  0  0  0  0
    8.1361   -1.8251   -0.2415 H   0  0  0  0  0  0  0  0  0  0  0  0
    6.6882   -2.8259   -2.2672 H   0  0  0  0  0  0  0  0  0  0  0  0
    5.4472   -0.4367   -1.8197 H   0  0  0  0  0  0  0  0  0  0  0  0
    4.7702   -1.2910   -3.1535 H   0  0  0  0  0  0  0  0  0  0  0  0
    3.0532   -0.9903   -1.0954 H   0  0  0  0  0  0  0  0  0  0  0  0
    1.8394   -4.6500   -1.5179 H   0  0  0  0  0  0  0  0  0  0  0  0
    1.1871   -3.0553   -1.6490 H   0  0  0  0  0  0  0  0  0  0  0  0
    1.9696   -3.5221   -0.1876 H   0  0  0  0  0  0  0  0  0  0  0  0
    2.4376   -3.8335   -3.7099 H   0  0  0  0  0  0  0  0  0  0  0  0
    3.9064   -2.9811   -4.0245 H   0  0  0  0  0  0  0  0  0  0  0  0
    2.4371   -2.0782   -3.6148 H   0  0  0  0  0  0  0  0  0  0  0  0
    4.8572   -4.5708   -2.4256 H   0  0  0  0  0  0  0  0  0  0  0  0
    3.7401   -5.2139   -0.1675 H   0  0  0  0  0  0  0  0  0  0  0  0
    5.4687   -5.0983   -0.0758 H   0  0  0  0  0  0  0  0  0  0  0  0
    5.3505   -3.5767    1.5205 H   0  0  0  0  0  0  0  0  0  0  0  0
  1  2  2  0
  1 18  1  0
  1 19  1  0
  2 17  1  0
  2  3  1  0
  3  4  2  0
  3  5  1  0
  6  5  1  1
  6 11  1  0
  6 17  1  0
  6  7  1  0
  7  8  2  0
  7  9  1  0
  8 20  1  0
  8 21  1  0
  9 15  1  0
  9 10  1  0
  9 22  1  6
 10 11  1  0
 10 23  1  0
 10 24  1  0
 11 12  1  0
 11 25  1  1
 12 13  1  0
 12 14  1  0
 12 15  1  0
 13 26  1  0
 13 27  1  0
 13 28  1  0
 14 29  1  0
 14 30  1  0
 14 31  1  0
 15 16  1  0
 15 32  1  6
 16 17  1  0
 16 33  1  0
 16 34  1  0
 17 35  1  1
M  END
>  <i_m_ct_stereo_status>  (206) 
1

>  <s_m_source_file>  (206) 
/var/tmp/pbs.5076255.sched01/tmple0dc7g8/88jbw3zpwn.sdf

>  <i_m_source_file_index>  (206) 
13

>  <i_lp_mmshare_version>  (206) 
48012

>  <i_f3d_flags>  (206) 
0

>  <s_epik_input>  (206) 
Tz1DKE8xKUMoPVtDSDJdKVtDQEhdMltDSDJdW0NAQEhdKEMzKFtDSDNdKVtDSDNdKVtDQEhdKEM0PVtDSDJdKVtDSDJdW0NAQEhdM1tDQEBdMTI0

>  <s_epik_cmdline>  (206) 
J2VwaWtfcHl0aG9uJywgJy1waHQnLCAnMi4wJywgJy1waCcsICc3LjAnLCAnLXRuJywgJzgnLCAnLW1hJywgJzIwMCcsICctaW1hZScsICc8aW5maWxlLm1hZT4nLCAnLW9tYWUnLCAnPG91dGZpbGUubWFlPic=

>  <r_lp_tautomer_probability>  (206) 
1

>  <r_epik_Ionization_Penalty>  (206) 
0

>  <r_epik_Ionization_Penalty_Charging>  (206) 
0

>  <r_epik_Ionization_Penalty_Neutral>  (206) 
0

>  <r_epik_State_Penalty>  (206) 
-0

>  <r_epik_Charging_Adjusted_Penalty>  (206) 
0

>  <i_epik_Tot_Q>  (206) 
0

>  <i_epik_Tot_abs_Q>  (206) 
0

>  <s_epik_Chemistry_Notes>  (206) 
This compound has an ester and may undergo hydrolysis at high or low pH.

>  <s_lp_Force_Field>  (206) 
OPLS3e

>  <r_lp_Energy>  (206) 
82.096

>  <b_lp_Chiralities_Consistent>  (206) 
1

>  <s_lp_Variant>  (206) 
58:0-1

>  <s_i_glide_gridfile>  (206) 
pfpi4k_grid

>  <i_i_glide_lignum>  (206) 
13

>  <i_i_glide_rotatable_bonds>  (206) 
0

>  <r_i_docking_score>  (206) 
-3.1825

>  <r_i_glide_ligand_efficiency>  (206) 
-0.187206

>  <r_i_glide_ligand_efficiency_sa>  (206) 
-0.48136

>  <r_i_glide_ligand_efficiency_ln>  (206) 
-0.830244

>  <r_i_glide_gscore>  (206) 
-3.1825

>  <r_i_glide_lipo>  (206) 
-0.181531

>  <r_i_glide_hbond>  (206) 
0

>  <r_i_glide_metal>  (206) 
-0

>  <r_i_glide_rewards>  (206) 
-1.83885

>  <r_i_glide_evdw>  (206) 
-22.0086

>  <r_i_glide_ecoul>  (206) 
-0.363149

>  <r_i_glide_erotb>  (206) 
0

>  <r_i_glide_esite>  (206) 
-0.00722048

>  <r_i_glide_emodel>  (206) 
-26.7343

>  <r_i_glide_energy>  (206) 
-22.3718

>  <r_i_glide_einternal>  (206) 
0

>  <r_i_glide_intrahb_reward>  (206) 
-0

>  <i_i_glide_confnum>  (206) 
1

>  <i_i_glide_posenum>  (206) 
17

>  <r_i_glide_eff_state_penalty>  (206) 
0

>  <ligand_id>  (206) 
58

>  <original_smiles>  (206) 
C=C1C(=O)OC23C(=C)C4CC2C(C)(C)C4CC13

>  <smiles>  (206) 
[H]C([H])=C1C(=O)OC23C(=C([H])[H])C4([H])C([H])([H])C2([H])C(C([H])([H])[H])(C([H])([H])[H])C4([H])C([H])([H])C13[H]

$$$$
60:0:0
     RDKit          3D

 60 65  0  0  1  0  0  0  0  0999 V2000
    3.7365   -2.8769    2.4228 C   0  0  0  0  0  0  0  0  0  0  0  0
    4.7693   -3.2923    1.6816 C   0  0  0  0  0  0  0  0  0  0  0  0
    5.8467   -4.2943    2.0870 C   0  0  1  0  0  0  0  0  0  0  0  0
    5.7352   -5.2853    3.3058 C   0  0  1  0  0  0  0  0  0  0  0  0
    5.5313   -4.7245    4.7264 C   0  0  0  0  0  0  0  0  0  0  0  0
    4.6591   -5.7509    5.4564 C   0  0  0  0  0  0  0  0  0  0  0  0
    3.8548   -6.4884    4.3737 C   0  0  1  0  0  0  0  0  0  0  0  0
    2.4339   -5.9627    4.1919 C   0  0  0  0  0  0  0  0  0  0  0  0
    1.9207   -4.6694    4.5266 C   0  0  0  0  0  0  0  0  0  0  0  0
    0.6170   -4.6559    4.1243 C   0  0  0  0  0  0  0  0  0  0  0  0
    0.2378   -5.8751    3.6583 O   0  0  0  0  0  0  0  0  0  0  0  0
    1.3454   -6.6653    3.7449 C   0  0  0  0  0  0  0  0  0  0  0  0
    4.8000   -6.5126    3.1227 C   0  0  2  0  0  0  0  0  0  0  0  0
    5.6162   -7.8361    3.2066 C   0  0  0  0  0  0  0  0  0  0  0  0
    4.1297   -6.4411    1.7267 C   0  0  0  0  0  0  0  0  0  0  0  0
    5.1669   -6.2325    0.5840 C   0  0  0  0  0  0  0  0  0  0  0  0
    6.1455   -5.0315    0.7854 C   0  0  1  0  0  0  0  0  0  0  0  0
    6.1053   -3.8688   -0.2502 C   0  0  1  0  0  0  0  0  0  0  0  0
    7.5314   -3.3077   -0.4857 C   0  0  0  0  0  0  0  0  0  0  0  0
    5.6760   -4.2555   -1.5359 O   0  0  0  0  0  0  0  0  0  0  0  0
    4.7318   -3.3811   -1.9702 C   0  0  0  0  0  0  0  0  0  0  0  0
    4.7196   -2.9497   -3.2293 C   0  0  0  0  0  0  0  0  0  0  0  0
    3.9601   -1.7362   -3.5634 C   0  0  0  0  0  0  0  0  0  0  0  0
    3.8343   -1.3547   -4.7221 O   0  0  0  0  0  0  0  0  0  0  0  0
    3.4222   -0.9436   -2.4608 C   0  0  0  0  0  0  0  0  0  0  0  0
    3.4576   -1.4042   -1.1970 C   0  0  0  0  0  0  0  0  0  0  0  0
    3.9808   -2.7860   -0.7995 C   0  0  1  0  0  0  0  0  0  0  0  0
    2.7535   -3.6721   -0.5596 C   0  0  0  0  0  0  0  0  0  0  0  0
    5.0888   -2.8070    0.2800 C   0  0  1  0  0  0  0  0  0  0  0  0
    5.6650   -1.5202    0.3787 O   0  0  0  0  0  0  0  0  0  0  0  0
    3.0056   -2.1626    2.0358 H   0  0  0  0  0  0  0  0  0  0  0  0
    3.6277   -3.2365    3.4138 H   0  0  0  0  0  0  0  0  0  0  0  0
    6.6920   -3.6509    2.2916 H   0  0  0  0  0  0  0  0  0  0  0  0
    6.7377   -5.7113    3.3714 H   0  0  0  0  0  0  0  0  0  0  0  0
    6.4755   -4.5911    5.2579 H   0  0  0  0  0  0  0  0  0  0  0  0
    5.0616   -3.7493    4.7428 H   0  0  0  0  0  0  0  0  0  0  0  0
    5.3231   -6.4783    5.9275 H   0  0  0  0  0  0  0  0  0  0  0  0
    4.0460   -5.3301    6.2568 H   0  0  0  0  0  0  0  0  0  0  0  0
    3.7000   -7.5136    4.7148 H   0  0  0  0  0  0  0  0  0  0  0  0
    2.4249   -3.8275    4.9783 H   0  0  0  0  0  0  0  0  0  0  0  0
   -0.1503   -3.8984    4.1145 H   0  0  0  0  0  0  0  0  0  0  0  0
    1.1908   -7.6930    3.4493 H   0  0  0  0  0  0  0  0  0  0  0  0
    4.9876   -8.7076    3.0087 H   0  0  0  0  0  0  0  0  0  0  0  0
    6.0594   -7.9776    4.1946 H   0  0  0  0  0  0  0  0  0  0  0  0
    6.4442   -7.8651    2.4979 H   0  0  0  0  0  0  0  0  0  0  0  0
    3.5573   -7.3495    1.5400 H   0  0  0  0  0  0  0  0  0  0  0  0
    3.4072   -5.6304    1.7051 H   0  0  0  0  0  0  0  0  0  0  0  0
    5.7769   -7.1317    0.5170 H   0  0  0  0  0  0  0  0  0  0  0  0
    4.6587   -6.1777   -0.3748 H   0  0  0  0  0  0  0  0  0  0  0  0
    7.1561   -5.4475    0.8300 H   0  0  0  0  0  0  0  0  0  0  0  0
    7.9890   -2.9513    0.4380 H   0  0  0  0  0  0  0  0  0  0  0  0
    7.5110   -2.4832   -1.2015 H   0  0  0  0  0  0  0  0  0  0  0  0
    8.1792   -4.0836   -0.9025 H   0  0  0  0  0  0  0  0  0  0  0  0
    5.4005   -3.3675   -3.9363 H   0  0  0  0  0  0  0  0  0  0  0  0
    2.9907    0.0080   -2.7211 H   0  0  0  0  0  0  0  0  0  0  0  0
    3.0192   -0.7903   -0.4093 H   0  0  0  0  0  0  0  0  0  0  0  0
    2.1249   -3.7029   -1.4522 H   0  0  0  0  0  0  0  0  0  0  0  0
    2.1255   -3.3093    0.2522 H   0  0  0  0  0  0  0  0  0  0  0  0
    3.0295   -4.7007   -0.3555 H   0  0  0  0  0  0  0  0  0  0  0  0
    4.9969   -0.9074    0.6416 H   0  0  0  0  0  0  0  0  0  0  0  0
  1  2  2  0
  1 31  1  0
  1 32  1  0
  2 29  1  0
  2  3  1  0
  3 17  1  0
  3  4  1  0
  3 33  1  1
  4 13  1  0
  4  5  1  0
  4 34  1  1
  5  6  1  0
  5 35  1  0
  5 36  1  0
  6  7  1  0
  6 37  1  0
  6 38  1  0
  7  8  1  0
  7 13  1  0
  7 39  1  1
  8 12  2  0
  8  9  1  0
  9 10  2  0
  9 40  1  0
 10 11  1  0
 10 41  1  0
 11 12  1  0
 12 42  1  0
 13 14  1  6
 13 15  1  0
 14 43  1  0
 14 44  1  0
 14 45  1  0
 15 16  1  0
 15 46  1  0
 15 47  1  0
 16 17  1  0
 16 48  1  0
 16 49  1  0
 17 18  1  0
 17 50  1  1
 18 29  1  0
 18 19  1  6
 18 20  1  0
 19 51  1  0
 19 52  1  0
 19 53  1  0
 20 21  1  0
 21 27  1  0
 21 22  2  0
 22 23  1  0
 22 54  1  0
 23 24  2  0
 23 25  1  0
 25 26  2  0
 25 55  1  0
 26 27  1  0
 26 56  1  0
 27 28  1  1
 27 29  1  0
 28 57  1  0
 28 58  1  0
 28 59  1  0
 29 30  1  1
 30 60  1  0
M  END
>  <i_m_ct_stereo_status>  (207) 
1

>  <s_m_source_file>  (207) 
/var/tmp/pbs.5076255.sched01/tmple0dc7g8/88jbw3zpwn.sdf

>  <i_m_source_file_index>  (207) 
15

>  <i_lp_mmshare_version>  (207) 
48012

>  <i_f3d_flags>  (207) 
0

>  <s_epik_input>  (207) 
W0NIXTE9W0NIXUMoPU8pW0NIXT1DKE8yKVtDQEBdMShbQ0gzXSlbQ0BAXShbT0hdKShDMz1bQ0gyXSlbQ0BAXTIoW0NIM10pW0NASF0oW0NIMl1bQ0gyXTQpW0NAQEhdM1tDQEhdKFtDQF00NVtDSDNdKVtDSDJdW0NIMl1bQ0BIXTVjNltjSF1bY0hdb1tjSF02

>  <s_epik_cmdline>  (207) 
J2VwaWtfcHl0aG9uJywgJy1waHQnLCAnMi4wJywgJy1waCcsICc3LjAnLCAnLXRuJywgJzgnLCAnLW1hJywgJzIwMCcsICctaW1hZScsICc8aW5maWxlLm1hZT4nLCAnLW9tYWUnLCAnPG91dGZpbGUubWFlPic=

>  <r_lp_tautomer_probability>  (207) 
1

>  <r_epik_Ionization_Penalty>  (207) 
1.56847e-05

>  <r_epik_Ionization_Penalty_Charging>  (207) 
0

>  <r_epik_Ionization_Penalty_Neutral>  (207) 
1.56847e-05

>  <r_epik_State_Penalty>  (207) 
-0

>  <r_epik_Charging_Adjusted_Penalty>  (207) 
0

>  <i_epik_Tot_Q>  (207) 
0

>  <i_epik_Tot_abs_Q>  (207) 
0

>  <s_lp_Force_Field>  (207) 
OPLS3e

>  <r_lp_Energy>  (207) 
61.5739

>  <b_lp_Chiralities_Consistent>  (207) 
1

>  <s_lp_Variant>  (207) 
60:0-1

>  <s_i_glide_gridfile>  (207) 
pfpi4k_grid

>  <i_i_glide_lignum>  (207) 
15

>  <i_i_glide_rotatable_bonds>  (207) 
2

>  <r_i_docking_score>  (207) 
-3.97815

>  <r_i_glide_ligand_efficiency>  (207) 
-0.132605

>  <r_i_glide_ligand_efficiency_sa>  (207) 
-0.412035

>  <r_i_glide_ligand_efficiency_ln>  (207) 
-0.90388

>  <r_i_glide_gscore>  (207) 
-3.97815

>  <r_i_glide_lipo>  (207) 
-0.8167

>  <r_i_glide_hbond>  (207) 
-0.360246

>  <r_i_glide_metal>  (207) 
-0

>  <r_i_glide_rewards>  (207) 
-0.92808

>  <r_i_glide_evdw>  (207) 
-25.9607

>  <r_i_glide_ecoul>  (207) 
-4.6272

>  <r_i_glide_erotb>  (207) 
0.118987

>  <r_i_glide_esite>  (207) 
0

>  <r_i_glide_emodel>  (207) 
-36.598

>  <r_i_glide_energy>  (207) 
-30.5879

>  <r_i_glide_einternal>  (207) 
0.0534313

>  <r_i_glide_intrahb_reward>  (207) 
-0

>  <i_i_glide_confnum>  (207) 
1

>  <i_i_glide_posenum>  (207) 
1

>  <r_i_glide_eff_state_penalty>  (207) 
0

>  <ligand_id>  (207) 
60

>  <original_smiles>  (207) 
C=C1C2C3CCC(c4ccoc4)C3(C)CCC2C2(C)OC3=CC(=O)C=CC3(C)C12O

>  <smiles>  (207) 
[H]OC12C(=C([H])[H])C3([H])C([H])(C([H])([H])C([H])([H])C4(C([H])([H])[H])C([H])(c5c([H])oc([H])c5[H])C([H])([H])C([H])([H])C34[H])C1(C([H])([H])[H])OC1=C([H])C(=O)C([H])=C([H])C12C([H])([H])[H]

$$$$
61:0:0
     RDKit          3D

 60 64  0  0  1  0  0  0  0  0999 V2000
    3.8500   -3.1343   -3.8108 C   0  0  0  0  0  0  0  0  0  0  0  0
    4.5964   -2.7012   -2.5554 C   0  0  0  0  0  0  0  0  0  0  0  0
    6.0417   -3.1439   -2.5936 C   0  0  0  0  0  0  0  0  0  0  0  0
    4.2292   -1.3814   -1.9091 C   0  0  0  0  0  0  0  0  0  0  0  0
    3.9062   -2.6954   -1.2077 C   0  0  1  0  0  0  0  0  0  0  0  0
    2.4820   -3.0555   -1.2308 N   0  0  0  0  0  0  0  0  0  0  0  0
    4.6511   -3.0637    0.0501 C   0  0  0  0  0  0  0  0  0  0  0  0
    5.3920   -2.2631    0.6206 O   0  0  0  0  0  0  0  0  0  0  0  0
    4.5059   -4.3235    0.4860 N   0  0  0  0  0  0  0  0  0  0  0  0
    5.2240   -4.8885    1.6261 C   0  0  2  0  0  0  0  0  0  0  0  0
    5.2678   -6.4280    1.5462 C   0  0  1  0  0  0  0  0  0  0  0  0
    6.0970   -6.9936    2.7147 C   0  0  0  0  0  0  0  0  0  0  0  0
    5.4304   -6.5913    4.0423 C   0  0  1  0  0  0  0  0  0  0  0  0
    5.3790   -5.0542    4.1457 C   0  0  0  0  0  0  0  0  0  0  0  0
    4.5668   -4.4841    2.9644 C   0  0  2  0  0  0  0  0  0  0  0  0
    3.1290   -5.0361    3.0373 C   0  0  0  0  0  0  0  0  0  0  0  0
    3.1338   -6.5927    2.9378 C   0  0  2  0  0  0  0  0  0  0  0  0
    1.6945   -7.1947    3.0132 C   0  0  0  0  0  0  0  0  0  0  0  0
    0.9079   -7.1462    1.6859 C   0  0  0  0  0  0  0  0  0  0  0  0
   -0.4710   -7.7782    1.8588 C   0  0  0  0  0  0  0  0  0  0  0  0
   -1.1919   -7.0944    2.8787 O   0  0  0  0  0  0  0  0  0  0  0  0
   -0.5701   -7.2328    4.1546 C   0  0  0  0  0  0  0  0  0  0  0  0
    0.8076   -6.5649    4.1150 C   0  0  0  0  0  0  0  0  0  0  0  0
    3.9958   -7.1574    4.1047 C   0  0  0  0  0  0  0  0  0  0  0  0
    3.8371   -6.9960    1.6072 C   0  0  0  0  0  0  0  0  0  0  0  0
    4.3546   -2.7605   -4.6979 H   0  0  0  0  0  0  0  0  0  0  0  0
    2.8328   -2.7333   -3.8306 H   0  0  0  0  0  0  0  0  0  0  0  0
    3.7952   -4.2219   -3.8793 H   0  0  0  0  0  0  0  0  0  0  0  0
    6.6307   -2.6526   -1.8206 H   0  0  0  0  0  0  0  0  0  0  0  0
    6.5133   -2.8947   -3.5226 H   0  0  0  0  0  0  0  0  0  0  0  0
    6.0978   -4.2219   -2.4665 H   0  0  0  0  0  0  0  0  0  0  0  0
    5.0430   -0.7728   -1.5151 H   0  0  0  0  0  0  0  0  0  0  0  0
    3.4007   -0.8184   -2.3411 H   0  0  0  0  0  0  0  0  0  0  0  0
    2.0940   -2.7555   -2.1166 H   0  0  0  0  0  0  0  0  0  0  0  0
    1.9944   -2.5216   -0.5181 H   0  0  0  0  0  0  0  0  0  0  0  0
    3.8896   -4.9446   -0.0186 H   0  0  0  0  0  0  0  0  0  0  0  0
    6.2479   -4.5181    1.5966 H   0  0  0  0  0  0  0  0  0  0  0  0
    5.7236   -6.7249    0.5996 H   0  0  0  0  0  0  0  0  0  0  0  0
    6.1614   -8.0798    2.6400 H   0  0  0  0  0  0  0  0  0  0  0  0
    7.1158   -6.6114    2.6720 H   0  0  0  0  0  0  0  0  0  0  0  0
    6.0064   -7.0018    4.8721 H   0  0  0  0  0  0  0  0  0  0  0  0
    4.9262   -4.7625    5.0906 H   0  0  0  0  0  0  0  0  0  0  0  0
    6.3873   -4.6515    4.1459 H   0  0  0  0  0  0  0  0  0  0  0  0
    4.5313   -3.3945    3.0524 H   0  0  0  0  0  0  0  0  0  0  0  0
    2.7196   -4.6991    3.9892 H   0  0  0  0  0  0  0  0  0  0  0  0
    2.5011   -4.6013    2.2555 H   0  0  0  0  0  0  0  0  0  0  0  0
    1.8025   -8.2578    3.2509 H   0  0  0  0  0  0  0  0  0  0  0  0
    0.8150   -6.1195    1.3414 H   0  0  0  0  0  0  0  0  0  0  0  0
    1.4033   -7.7146    0.9016 H   0  0  0  0  0  0  0  0  0  0  0  0
   -0.9949   -7.7302    0.9109 H   0  0  0  0  0  0  0  0  0  0  0  0
   -0.3627   -8.8351    2.1034 H   0  0  0  0  0  0  0  0  0  0  0  0
   -1.1977   -6.7543    4.9047 H   0  0  0  0  0  0  0  0  0  0  0  0
   -0.4737   -8.2843    4.4312 H   0  0  0  0  0  0  0  0  0  0  0  0
    1.2797   -6.6344    5.0942 H   0  0  0  0  0  0  0  0  0  0  0  0
    0.6427   -5.5077    3.9165 H   0  0  0  0  0  0  0  0  0  0  0  0
    4.0333   -8.2505    4.0589 H   0  0  0  0  0  0  0  0  0  0  0  0
    3.5582   -6.9023    5.0731 H   0  0  0  0  0  0  0  0  0  0  0  0
    3.3033   -6.6112    0.7379 H   0  0  0  0  0  0  0  0  0  0  0  0
    3.8657   -8.0833    1.4905 H   0  0  0  0  0  0  0  0  0  0  0  0
    2.3520   -4.0438   -1.1376 H   0  0  0  0  0  0  0  0  0  0  0  0
  1  2  1  0
  1 26  1  0
  1 27  1  0
  1 28  1  0
  2  5  1  0
  2  3  1  0
  2  4  1  0
  3 29  1  0
  3 30  1  0
  3 31  1  0
  4  5  1  0
  4 32  1  0
  4 33  1  0
  5  6  1  6
  5  7  1  0
  6 34  1  0
  6 35  1  0
  6 60  1  0
  7  8  2  0
  7  9  1  0
  9 10  1  0
  9 36  1  0
 10 15  1  0
 10 11  1  0
 10 37  1  1
 11 25  1  0
 11 12  1  0
 11 38  1  6
 12 13  1  0
 12 39  1  0
 12 40  1  0
 13 24  1  0
 13 14  1  0
 13 41  1  1
 14 15  1  0
 14 42  1  0
 14 43  1  0
 15 16  1  0
 15 44  1  1
 16 17  1  0
 16 45  1  0
 16 46  1  0
 17 18  1  6
 17 24  1  0
 17 25  1  0
 18 23  1  0
 18 19  1  0
 18 47  1  0
 19 20  1  0
 19 48  1  0
 19 49  1  0
 20 21  1  0
 20 50  1  0
 20 51  1  0
 21 22  1  0
 22 23  1  0
 22 52  1  0
 22 53  1  0
 23 54  1  0
 23 55  1  0
 24 56  1  0
 24 57  1  0
 25 58  1  0
 25 59  1  0
M  CHG  1   6   1
M  END
>  <i_m_ct_stereo_status>  (208) 
1

>  <s_m_source_file>  (208) 
/var/tmp/pbs.5076255.sched01/tmple0dc7g8/88jbw3zpwn.sdf

>  <i_m_source_file_index>  (208) 
16

>  <i_lp_mmshare_version>  (208) 
48012

>  <i_f3d_flags>  (208) 
0

>  <s_epik_input>  (208) 
W0NIM11DMShbQ0gzXSlbQ0gyXVtDQF0xKFtOSDJdKUMoPU8pW05IXVtDQEhdKFtDQEhdKFtDSDJdMilbQ0gyXVtDQEBIXShbQ0gyXTMpW0NIMl00KVtDQEhdM1tDSDJdW0NAQF0yNFtDSF01W0NIMl1bQ0gyXU9bQ0gyXVtDSDJdNQ==

>  <s_epik_cmdline>  (208) 
J2VwaWtfcHl0aG9uJywgJy1waHQnLCAnMi4wJywgJy1waCcsICc3LjAnLCAnLXRuJywgJzgnLCAnLW1hJywgJzIwMCcsICctaW1hZScsICc8aW5maWxlLm1hZT4nLCAnLW9tYWUnLCAnPG91dGZpbGUubWFlPic=

>  <r_epik_Ionization_Penalty>  (208) 
0.0408643

>  <r_epik_Ionization_Penalty_Charging>  (208) 
0.0408639

>  <r_epik_Ionization_Penalty_Neutral>  (208) 
3.53988e-07

>  <r_epik_State_Penalty>  (208) 
0.0344218

>  <r_epik_Charging_Adjusted_Penalty>  (208) 
0.0752858

>  <i_epik_Tot_Q>  (208) 
1

>  <i_epik_Tot_abs_Q>  (208) 
1

>  <s_lp_Force_Field>  (208) 
OPLS3e

>  <r_lp_Energy>  (208) 
18.3277

>  <b_lp_Chiralities_Consistent>  (208) 
1

>  <s_lp_Variant>  (208) 
61:0-1

>  <s_i_glide_gridfile>  (208) 
pfpi4k_grid

>  <i_i_glide_lignum>  (208) 
16

>  <i_i_glide_rotatable_bonds>  (208) 
4

>  <r_i_docking_score>  (208) 
-3.99081

>  <r_i_glide_ligand_efficiency>  (208) 
-0.159632

>  <r_i_glide_ligand_efficiency_sa>  (208) 
-0.466768

>  <r_i_glide_ligand_efficiency_ln>  (208) 
-0.945941

>  <r_i_glide_gscore>  (208) 
-3.99081

>  <r_i_glide_lipo>  (208) 
-0.668293

>  <r_i_glide_hbond>  (208) 
-0.267378

>  <r_i_glide_metal>  (208) 
-0

>  <r_i_glide_rewards>  (208) 
-1.06637

>  <r_i_glide_evdw>  (208) 
-27.3403

>  <r_i_glide_ecoul>  (208) 
-8.2354

>  <r_i_glide_erotb>  (208) 
0.630152

>  <r_i_glide_esite>  (208) 
-0.0165923

>  <r_i_glide_emodel>  (208) 
-47.0303

>  <r_i_glide_energy>  (208) 
-35.5757

>  <r_i_glide_einternal>  (208) 
1.58494

>  <r_i_glide_intrahb_reward>  (208) 
-0

>  <i_i_glide_confnum>  (208) 
3

>  <i_i_glide_posenum>  (208) 
20

>  <r_i_glide_eff_state_penalty>  (208) 
0

>  <ligand_id>  (208) 
61

>  <original_smiles>  (208) 
CC1(C)CC1(N)C(=O)NC1C2CC3CC1CC(C1CCOCC1)(C3)C2

>  <smiles>  (208) 
[H]N(C(=O)C1([N+]([H])([H])[H])C([H])([H])C1(C([H])([H])[H])C([H])([H])[H])C1([H])C2([H])C([H])([H])C3([H])C([H])([H])C1([H])C([H])([H])C(C1([H])C([H])([H])C([H])([H])OC([H])([H])C1([H])[H])(C3([H])[H])C2([H])[H]

$$$$
61:0:1
     RDKit          3D

 60 64  0  0  1  0  0  0  0  0999 V2000
    4.2544   -3.5948   -3.8817 C   0  0  0  0  0  0  0  0  0  0  0  0
    4.6432   -2.7968   -2.6444 C   0  0  0  0  0  0  0  0  0  0  0  0
    6.0815   -3.0695   -2.2616 C   0  0  0  0  0  0  0  0  0  0  0  0
    4.0630   -1.4113   -2.4515 C   0  0  0  0  0  0  0  0  0  0  0  0
    3.6336   -2.5546   -1.5351 C   0  0  1  0  0  0  0  0  0  0  0  0
    2.2646   -3.0502   -1.7786 N   0  0  0  0  0  0  0  0  0  0  0  0
    4.0623   -2.5226   -0.0924 C   0  0  0  0  0  0  0  0  0  0  0  0
    4.4073   -1.4836    0.4622 O   0  0  0  0  0  0  0  0  0  0  0  0
    4.1205   -3.7154    0.5222 N   0  0  0  0  0  0  0  0  0  0  0  0
    4.7277   -3.9383    1.8352 C   0  0  2  0  0  0  0  0  0  0  0  0
    5.0598   -5.4328    2.0458 C   0  0  1  0  0  0  0  0  0  0  0  0
    5.7742   -5.6296    3.3984 C   0  0  0  0  0  0  0  0  0  0  0  0
    4.8447   -5.1628    4.5291 C   0  0  1  0  0  0  0  0  0  0  0  0
    4.5086   -3.6694    4.3366 C   0  0  0  0  0  0  0  0  0  0  0  0
    3.8026   -3.4704    2.9794 C   0  0  2  0  0  0  0  0  0  0  0  0
    2.4933   -4.2858    2.9663 C   0  0  0  0  0  0  0  0  0  0  0  0
    2.7922   -5.8057    3.1557 C   0  0  2  0  0  0  0  0  0  0  0  0
    1.4962   -6.6753    3.1490 C   0  0  0  0  0  0  0  0  0  0  0  0
    0.8366   -6.8382    1.7571 C   0  0  0  0  0  0  0  0  0  0  0  0
   -0.4238   -7.6963    1.8502 C   0  0  0  0  0  0  0  0  0  0  0  0
   -1.3398   -7.1182    2.7752 O   0  0  0  0  0  0  0  0  0  0  0  0
   -0.8196   -7.1013    4.1005 C   0  0  0  0  0  0  0  0  0  0  0  0
    0.4101   -6.1901    4.1440 C   0  0  0  0  0  0  0  0  0  0  0  0
    3.5433   -5.9904    4.5091 C   0  0  0  0  0  0  0  0  0  0  0  0
    3.7614   -6.2634    2.0244 C   0  0  0  0  0  0  0  0  0  0  0  0
    4.9617   -3.4421   -4.6963 H   0  0  0  0  0  0  0  0  0  0  0  0
    3.2568   -3.3184   -4.2378 H   0  0  0  0  0  0  0  0  0  0  0  0
    4.2647   -4.6515   -3.6590 H   0  0  0  0  0  0  0  0  0  0  0  0
    6.4340   -2.3558   -1.5207 H   0  0  0  0  0  0  0  0  0  0  0  0
    6.7309   -3.0184   -3.1277 H   0  0  0  0  0  0  0  0  0  0  0  0
    6.1646   -4.0634   -1.8300 H   0  0  0  0  0  0  0  0  0  0  0  0
    4.7284   -0.6480   -2.0432 H   0  0  0  0  0  0  0  0  0  0  0  0
    3.3446   -1.0514   -3.1889 H   0  0  0  0  0  0  0  0  0  0  0  0
    2.0823   -3.0090   -2.7689 H   0  0  0  0  0  0  0  0  0  0  0  0
    1.6204   -2.4130   -1.3211 H   0  0  0  0  0  0  0  0  0  0  0  0
    3.8195   -4.5282    0.0097 H   0  0  0  0  0  0  0  0  0  0  0  0
    5.6601   -3.3768    1.8645 H   0  0  0  0  0  0  0  0  0  0  0  0
    5.7129   -5.7783    1.2428 H   0  0  0  0  0  0  0  0  0  0  0  0
    6.0347   -6.6799    3.5409 H   0  0  0  0  0  0  0  0  0  0  0  0
    6.7035   -5.0630    3.4187 H   0  0  0  0  0  0  0  0  0  0  0  0
    5.3404   -5.3143    5.4899 H   0  0  0  0  0  0  0  0  0  0  0  0
    3.8625   -3.3300    5.1429 H   0  0  0  0  0  0  0  0  0  0  0  0
    5.4162   -3.0696    4.3849 H   0  0  0  0  0  0  0  0  0  0  0  0
    3.5600   -2.4101    2.8606 H   0  0  0  0  0  0  0  0  0  0  0  0
    1.8729   -3.8948    3.7718 H   0  0  0  0  0  0  0  0  0  0  0  0
    1.9465   -4.1062    2.0378 H   0  0  0  0  0  0  0  0  0  0  0  0
    1.7832   -7.6869    3.4553 H   0  0  0  0  0  0  0  0  0  0  0  0
    0.5761   -5.8669    1.3466 H   0  0  0  0  0  0  0  0  0  0  0  0
    1.4988   -7.3211    1.0393 H   0  0  0  0  0  0  0  0  0  0  0  0
   -0.8871   -7.7676    0.8673 H   0  0  0  0  0  0  0  0  0  0  0  0
   -0.1530   -8.7093    2.1470 H   0  0  0  0  0  0  0  0  0  0  0  0
   -1.5882   -6.7297    4.7775 H   0  0  0  0  0  0  0  0  0  0  0  0
   -0.5544   -8.1076    4.4282 H   0  0  0  0  0  0  0  0  0  0  0  0
    0.7812   -6.1495    5.1678 H   0  0  0  0  0  0  0  0  0  0  0  0
    0.0864   -5.1829    3.8891 H   0  0  0  0  0  0  0  0  0  0  0  0
    3.7784   -7.0477    4.6715 H   0  0  0  0  0  0  0  0  0  0  0  0
    2.9322   -5.6697    5.3557 H   0  0  0  0  0  0  0  0  0  0  0  0
    3.3195   -6.1459    1.0334 H   0  0  0  0  0  0  0  0  0  0  0  0
    4.0049   -7.3262    2.1230 H   0  0  0  0  0  0  0  0  0  0  0  0
    2.1517   -4.0048   -1.4571 H   0  0  0  0  0  0  0  0  0  0  0  0
  1  2  1  0
  1 26  1  0
  1 27  1  0
  1 28  1  0
  2  5  1  0
  2  3  1  0
  2  4  1  0
  3 29  1  0
  3 30  1  0
  3 31  1  0
  4  5  1  0
  4 32  1  0
  4 33  1  0
  5  6  1  1
  5  7  1  0
  6 34  1  0
  6 35  1  0
  6 60  1  0
  7  8  2  0
  7  9  1  0
  9 10  1  0
  9 36  1  0
 10 15  1  0
 10 11  1  0
 10 37  1  6
 11 25  1  0
 11 12  1  0
 11 38  1  6
 12 13  1  0
 12 39  1  0
 12 40  1  0
 13 24  1  0
 13 14  1  0
 13 41  1  1
 14 15  1  0
 14 42  1  0
 14 43  1  0
 15 16  1  0
 15 44  1  6
 16 17  1  0
 16 45  1  0
 16 46  1  0
 17 18  1  1
 17 24  1  0
 17 25  1  0
 18 23  1  0
 18 19  1  0
 18 47  1  0
 19 20  1  0
 19 48  1  0
 19 49  1  0
 20 21  1  0
 20 50  1  0
 20 51  1  0
 21 22  1  0
 22 23  1  0
 22 52  1  0
 22 53  1  0
 23 54  1  0
 23 55  1  0
 24 56  1  0
 24 57  1  0
 25 58  1  0
 25 59  1  0
M  CHG  1   6   1
M  END
>  <i_m_ct_stereo_status>  (209) 
1

>  <s_m_source_file>  (209) 
/var/tmp/pbs.5076255.sched01/tmple0dc7g8/88jbw3zpwn.sdf

>  <i_m_source_file_index>  (209) 
16

>  <i_lp_mmshare_version>  (209) 
48012

>  <i_f3d_flags>  (209) 
0

>  <s_epik_input>  (209) 
W0NIM11DMShbQ0gzXSlbQ0gyXVtDQF0xKFtOSDJdKUMoPU8pW05IXVtDQEhdKFtDQEhdKFtDSDJdMilbQ0gyXVtDQEBIXShbQ0gyXTMpW0NIMl00KVtDQEhdM1tDSDJdW0NAQF0yNFtDSF01W0NIMl1bQ0gyXU9bQ0gyXVtDSDJdNQ==

>  <s_epik_cmdline>  (209) 
J2VwaWtfcHl0aG9uJywgJy1waHQnLCAnMi4wJywgJy1waCcsICc3LjAnLCAnLXRuJywgJzgnLCAnLW1hJywgJzIwMCcsICctaW1hZScsICc8aW5maWxlLm1hZT4nLCAnLW9tYWUnLCAnPG91dGZpbGUubWFlPic=

>  <r_epik_Ionization_Penalty>  (209) 
0.0408643

>  <r_epik_Ionization_Penalty_Charging>  (209) 
0.0408639

>  <r_epik_Ionization_Penalty_Neutral>  (209) 
3.53988e-07

>  <r_epik_State_Penalty>  (209) 
0.0344218

>  <r_epik_Charging_Adjusted_Penalty>  (209) 
0.0752858

>  <i_epik_Tot_Q>  (209) 
1

>  <i_epik_Tot_abs_Q>  (209) 
1

>  <s_lp_Force_Field>  (209) 
OPLS3e

>  <r_lp_Energy>  (209) 
18.3277

>  <b_lp_Chiralities_Consistent>  (209) 
1

>  <s_lp_Variant>  (209) 
61:0-1

>  <s_i_glide_gridfile>  (209) 
pfpi4k_grid

>  <i_i_glide_lignum>  (209) 
16

>  <i_i_glide_rotatable_bonds>  (209) 
4

>  <r_i_docking_score>  (209) 
-3.92745

>  <r_i_glide_ligand_efficiency>  (209) 
-0.157098

>  <r_i_glide_ligand_efficiency_sa>  (209) 
-0.459358

>  <r_i_glide_ligand_efficiency_ln>  (209) 
-0.930924

>  <r_i_glide_gscore>  (209) 
-3.92745

>  <r_i_glide_lipo>  (209) 
-0.380096

>  <r_i_glide_hbond>  (209) 
-0.36

>  <r_i_glide_metal>  (209) 
-0

>  <r_i_glide_rewards>  (209) 
-1.03967

>  <r_i_glide_evdw>  (209) 
-27.9785

>  <r_i_glide_ecoul>  (209) 
-9.10633

>  <r_i_glide_erotb>  (209) 
0.630152

>  <r_i_glide_esite>  (209) 
-0.012964

>  <r_i_glide_emodel>  (209) 
-48.6788

>  <r_i_glide_energy>  (209) 
-37.0848

>  <r_i_glide_einternal>  (209) 
1.08772

>  <r_i_glide_intrahb_reward>  (209) 
-0

>  <i_i_glide_confnum>  (209) 
3

>  <i_i_glide_posenum>  (209) 
3

>  <r_i_glide_eff_state_penalty>  (209) 
0

>  <ligand_id>  (209) 
61

>  <original_smiles>  (209) 
CC1(C)CC1(N)C(=O)NC1C2CC3CC1CC(C1CCOCC1)(C3)C2

>  <smiles>  (209) 
[H]N(C(=O)C1([N+]([H])([H])[H])C([H])([H])C1(C([H])([H])[H])C([H])([H])[H])C1([H])C2([H])C([H])([H])C3([H])C([H])([H])C1([H])C([H])([H])C(C1([H])C([H])([H])C([H])([H])OC([H])([H])C1([H])[H])(C3([H])[H])C2([H])[H]

$$$$
61:0:2
     RDKit          3D

 60 64  0  0  1  0  0  0  0  0999 V2000
    2.7851   -2.3470   -3.3299 C   0  0  0  0  0  0  0  0  0  0  0  0
    4.1249   -2.5981   -2.6579 C   0  0  0  0  0  0  0  0  0  0  0  0
    4.9168   -3.6265   -3.4526 C   0  0  0  0  0  0  0  0  0  0  0  0
    4.8347   -1.4187   -2.0154 C   0  0  0  0  0  0  0  0  0  0  0  0
    4.2622   -2.5113   -1.1433 C   0  0  1  0  0  0  0  0  0  0  0  0
    3.0310   -2.1096   -0.4063 N   0  0  0  0  0  0  0  0  0  0  0  0
    5.2242   -3.3921   -0.3772 C   0  0  0  0  0  0  0  0  0  0  0  0
    6.4420   -3.3334   -0.5411 O   0  0  0  0  0  0  0  0  0  0  0  0
    4.6742   -4.2782    0.4728 N   0  0  0  0  0  0  0  0  0  0  0  0
    5.4058   -5.2997    1.1955 C   0  0  2  0  0  0  0  0  0  0  0  0
    4.8413   -6.6868    0.8576 C   0  0  1  0  0  0  0  0  0  0  0  0
    5.6623   -7.7818    1.5817 C   0  0  0  0  0  0  0  0  0  0  0  0
    5.5723   -7.5637    3.0950 C   0  0  1  0  0  0  0  0  0  0  0  0
    6.1207   -6.1652    3.4523 C   0  0  0  0  0  0  0  0  0  0  0  0
    5.3000   -5.0868    2.7092 C   0  0  2  0  0  0  0  0  0  0  0  0
    3.8272   -5.1935    3.1684 C   0  0  0  0  0  0  0  0  0  0  0  0
    3.2184   -6.5972    2.8343 C   0  0  2  0  0  0  0  0  0  0  0  0
    1.7221   -6.6590    3.2602 C   0  0  0  0  0  0  0  0  0  0  0  0
    1.4545   -6.3608    4.7605 C   0  0  0  0  0  0  0  0  0  0  0  0
   -0.0329   -6.3982    5.0708 C   0  0  0  0  0  0  0  0  0  0  0  0
   -0.5943   -7.6542    4.7189 O   0  0  0  0  0  0  0  0  0  0  0  0
   -0.4578   -7.9586    3.3328 C   0  0  0  0  0  0  0  0  0  0  0  0
    1.0101   -8.0019    2.9305 C   0  0  0  0  0  0  0  0  0  0  0  0
    4.1012   -7.6757    3.5444 C   0  0  0  0  0  0  0  0  0  0  0  0
    3.3670   -6.8017    1.2984 C   0  0  0  0  0  0  0  0  0  0  0  0
    2.9279   -2.0892   -4.3857 H   0  0  0  0  0  0  0  0  0  0  0  0
    2.2615   -1.5119   -2.8657 H   0  0  0  0  0  0  0  0  0  0  0  0
    2.1523   -3.2380   -3.2698 H   0  0  0  0  0  0  0  0  0  0  0  0
    5.9584   -3.6259   -3.1623 H   0  0  0  0  0  0  0  0  0  0  0  0
    4.8637   -3.4509   -4.5317 H   0  0  0  0  0  0  0  0  0  0  0  0
    4.5248   -4.6237   -3.2725 H   0  0  0  0  0  0  0  0  0  0  0  0
    5.9156   -1.3573   -2.1410 H   0  0  0  0  0  0  0  0  0  0  0  0
    4.3339   -0.4419   -2.0206 H   0  0  0  0  0  0  0  0  0  0  0  0
    2.4246   -1.4961   -0.9321 H   0  0  0  0  0  0  0  0  0  0  0  0
    3.2749   -1.6352    0.4490 H   0  0  0  0  0  0  0  0  0  0  0  0
    3.6804   -4.2709    0.6216 H   0  0  0  0  0  0  0  0  0  0  0  0
    6.4561   -5.3172    0.9245 H   0  0  0  0  0  0  0  0  0  0  0  0
    4.8819   -6.8462   -0.2052 H   0  0  0  0  0  0  0  0  0  0  0  0
    5.2895   -8.7796    1.3242 H   0  0  0  0  0  0  0  0  0  0  0  0
    6.7026   -7.7415    1.2681 H   0  0  0  0  0  0  0  0  0  0  0  0
    6.1464   -8.3366    3.6114 H   0  0  0  0  0  0  0  0  0  0  0  0
    6.0570   -6.0060    4.5302 H   0  0  0  0  0  0  0  0  0  0  0  0
    7.1736   -6.0956    3.1809 H   0  0  0  0  0  0  0  0  0  0  0  0
    5.6873   -4.1008    2.9661 H   0  0  0  0  0  0  0  0  0  0  0  0
    3.8466   -4.9924    4.2412 H   0  0  0  0  0  0  0  0  0  0  0  0
    3.2209   -4.4018    2.7196 H   0  0  0  0  0  0  0  0  0  0  0  0
    1.2029   -5.8787    2.6899 H   0  0  0  0  0  0  0  0  0  0  0  0
    1.9744   -7.0809    5.3877 H   0  0  0  0  0  0  0  0  0  0  0  0
    1.8122   -5.3747    5.0484 H   0  0  0  0  0  0  0  0  0  0  0  0
   -0.1829   -6.2264    6.1349 H   0  0  0  0  0  0  0  0  0  0  0  0
   -0.5391   -5.5988    4.5371 H   0  0  0  0  0  0  0  0  0  0  0  0
   -0.9303   -8.9232    3.1288 H   0  0  0  0  0  0  0  0  0  0  0  0
   -0.9783   -7.2113    2.7344 H   0  0  0  0  0  0  0  0  0  0  0  0
    1.0439   -8.2509    1.8658 H   0  0  0  0  0  0  0  0  0  0  0  0
    1.5015   -8.8177    3.4573 H   0  0  0  0  0  0  0  0  0  0  0  0
    3.7577   -8.6862    3.3146 H   0  0  0  0  0  0  0  0  0  0  0  0
    4.0664   -7.5674    4.6266 H   0  0  0  0  0  0  0  0  0  0  0  0
    2.7485   -6.0814    0.7557 H   0  0  0  0  0  0  0  0  0  0  0  0
    3.0375   -7.7931    0.9630 H   0  0  0  0  0  0  0  0  0  0  0  0
    2.4852   -2.9269   -0.2008 H   0  0  0  0  0  0  0  0  0  0  0  0
  1  2  1  0
  1 26  1  0
  1 27  1  0
  1 28  1  0
  2  5  1  0
  2  3  1  0
  2  4  1  0
  3 29  1  0
  3 30  1  0
  3 31  1  0
  4  5  1  0
  4 32  1  0
  4 33  1  0
  5  6  1  1
  5  7  1  0
  6 34  1  0
  6 35  1  0
  6 60  1  0
  7  8  2  0
  7  9  1  0
  9 10  1  0
  9 36  1  0
 10 15  1  0
 10 11  1  0
 10 37  1  6
 11 25  1  0
 11 12  1  0
 11 38  1  6
 12 13  1  0
 12 39  1  0
 12 40  1  0
 13 24  1  0
 13 14  1  0
 13 41  1  1
 14 15  1  0
 14 42  1  0
 14 43  1  0
 15 16  1  0
 15 44  1  6
 16 17  1  0
 16 45  1  0
 16 46  1  0
 17 18  1  1
 17 24  1  0
 17 25  1  0
 18 23  1  0
 18 19  1  0
 18 47  1  0
 19 20  1  0
 19 48  1  0
 19 49  1  0
 20 21  1  0
 20 50  1  0
 20 51  1  0
 21 22  1  0
 22 23  1  0
 22 52  1  0
 22 53  1  0
 23 54  1  0
 23 55  1  0
 24 56  1  0
 24 57  1  0
 25 58  1  0
 25 59  1  0
M  CHG  1   6   1
M  END
>  <i_m_ct_stereo_status>  (210) 
1

>  <s_m_source_file>  (210) 
/var/tmp/pbs.5076255.sched01/tmple0dc7g8/88jbw3zpwn.sdf

>  <i_m_source_file_index>  (210) 
16

>  <i_lp_mmshare_version>  (210) 
48012

>  <i_f3d_flags>  (210) 
0

>  <s_epik_input>  (210) 
W0NIM11DMShbQ0gzXSlbQ0gyXVtDQF0xKFtOSDJdKUMoPU8pW05IXVtDQEhdKFtDQEhdKFtDSDJdMilbQ0gyXVtDQEBIXShbQ0gyXTMpW0NIMl00KVtDQEhdM1tDSDJdW0NAQF0yNFtDSF01W0NIMl1bQ0gyXU9bQ0gyXVtDSDJdNQ==

>  <s_epik_cmdline>  (210) 
J2VwaWtfcHl0aG9uJywgJy1waHQnLCAnMi4wJywgJy1waCcsICc3LjAnLCAnLXRuJywgJzgnLCAnLW1hJywgJzIwMCcsICctaW1hZScsICc8aW5maWxlLm1hZT4nLCAnLW9tYWUnLCAnPG91dGZpbGUubWFlPic=

>  <r_epik_Ionization_Penalty>  (210) 
0.0408643

>  <r_epik_Ionization_Penalty_Charging>  (210) 
0.0408639

>  <r_epik_Ionization_Penalty_Neutral>  (210) 
3.53988e-07

>  <r_epik_State_Penalty>  (210) 
0.0344218

>  <r_epik_Charging_Adjusted_Penalty>  (210) 
0.0752858

>  <i_epik_Tot_Q>  (210) 
1

>  <i_epik_Tot_abs_Q>  (210) 
1

>  <s_lp_Force_Field>  (210) 
OPLS3e

>  <r_lp_Energy>  (210) 
18.3277

>  <b_lp_Chiralities_Consistent>  (210) 
1

>  <s_lp_Variant>  (210) 
61:0-1

>  <s_i_glide_gridfile>  (210) 
pfpi4k_grid

>  <i_i_glide_lignum>  (210) 
16

>  <i_i_glide_rotatable_bonds>  (210) 
4

>  <r_i_docking_score>  (210) 
-3.92487

>  <r_i_glide_ligand_efficiency>  (210) 
-0.156995

>  <r_i_glide_ligand_efficiency_sa>  (210) 
-0.459056

>  <r_i_glide_ligand_efficiency_ln>  (210) 
-0.930312

>  <r_i_glide_gscore>  (210) 
-3.92487

>  <r_i_glide_lipo>  (210) 
-0.689132

>  <r_i_glide_hbond>  (210) 
-0.142705

>  <r_i_glide_metal>  (210) 
-0

>  <r_i_glide_rewards>  (210) 
-1.10964

>  <r_i_glide_evdw>  (210) 
-28.9617

>  <r_i_glide_ecoul>  (210) 
-7.16082

>  <r_i_glide_erotb>  (210) 
0.630152

>  <r_i_glide_esite>  (210) 
-0.0913361

>  <r_i_glide_emodel>  (210) 
-48.0202

>  <r_i_glide_energy>  (210) 
-36.1225

>  <r_i_glide_einternal>  (210) 
0.548363

>  <r_i_glide_intrahb_reward>  (210) 
-0

>  <i_i_glide_confnum>  (210) 
4

>  <i_i_glide_posenum>  (210) 
27

>  <r_i_glide_eff_state_penalty>  (210) 
0

>  <ligand_id>  (210) 
61

>  <original_smiles>  (210) 
CC1(C)CC1(N)C(=O)NC1C2CC3CC1CC(C1CCOCC1)(C3)C2

>  <smiles>  (210) 
[H]N(C(=O)C1([N+]([H])([H])[H])C([H])([H])C1(C([H])([H])[H])C([H])([H])[H])C1([H])C2([H])C([H])([H])C3([H])C([H])([H])C1([H])C([H])([H])C(C1([H])C([H])([H])C([H])([H])OC([H])([H])C1([H])[H])(C3([H])[H])C2([H])[H]

$$$$
61:1:0
     RDKit          3D

 59 63  0  0  1  0  0  0  0  0999 V2000
   -0.0279    2.8651    3.7151 C   0  0  0  0  0  0  0  0  0  0  0  0
    0.7277    1.7626    4.4377 C   0  0  0  0  0  0  0  0  0  0  0  0
    1.9393    2.3350    5.1512 C   0  0  0  0  0  0  0  0  0  0  0  0
   -0.0675    0.6390    5.0747 C   0  0  0  0  0  0  0  0  0  0  0  0
    0.7532    0.3607    3.8312 C   0  0  1  0  0  0  0  0  0  0  0  0
    0.0160    0.1425    2.5881 N   0  0  0  0  0  0  0  0  0  0  0  0
    1.9653   -0.5259    3.9808 C   0  0  0  0  0  0  0  0  0  0  0  0
    2.4142   -0.8358    5.0902 O   0  0  0  0  0  0  0  0  0  0  0  0
    2.5473   -0.9385    2.8450 N   0  0  0  0  0  0  0  0  0  0  0  0
    3.8399   -1.6021    2.7407 C   0  0  2  0  0  0  0  0  0  0  0  0
    4.8224   -0.7504    1.9133 C   0  0  1  0  0  0  0  0  0  0  0  0
    6.1976   -1.4305    1.8605 C   0  0  0  0  0  0  0  0  0  0  0  0
    6.0686   -2.8309    1.2244 C   0  0  1  0  0  0  0  0  0  0  0  0
    5.0808   -3.6880    2.0354 C   0  0  0  0  0  0  0  0  0  0  0  0
    3.7017   -2.9861    2.0767 C   0  0  2  0  0  0  0  0  0  0  0  0
    3.1741   -2.8240    0.6300 C   0  0  0  0  0  0  0  0  0  0  0  0
    4.1678   -1.9816   -0.2188 C   0  0  2  0  0  0  0  0  0  0  0  0
    3.6254   -1.8099   -1.6564 C   0  0  0  0  0  0  0  0  0  0  0  0
    3.4004   -3.1320   -2.4366 C   0  0  0  0  0  0  0  0  0  0  0  0
    2.7821   -2.8640   -3.8010 C   0  0  0  0  0  0  0  0  0  0  0  0
    3.6206   -1.9756   -4.5348 O   0  0  0  0  0  0  0  0  0  0  0  0
    3.7070   -0.6961   -3.9285 C   0  0  0  0  0  0  0  0  0  0  0  0
    4.4050   -0.8452   -2.5742 C   0  0  0  0  0  0  0  0  0  0  0  0
    5.5526   -2.6777   -0.2180 C   0  0  0  0  0  0  0  0  0  0  0  0
    4.2983   -0.5949    0.4755 C   0  0  0  0  0  0  0  0  0  0  0  0
   -0.2930    3.6689    4.4041 H   0  0  0  0  0  0  0  0  0  0  0  0
   -0.9483    2.4920    3.2727 H   0  0  0  0  0  0  0  0  0  0  0  0
    0.5848    3.2823    2.9171 H   0  0  0  0  0  0  0  0  0  0  0  0
    2.4313    1.5870    5.7768 H   0  0  0  0  0  0  0  0  0  0  0  0
    1.6525    3.1835    5.7870 H   0  0  0  0  0  0  0  0  0  0  0  0
    2.6609    2.7003    4.4174 H   0  0  0  0  0  0  0  0  0  0  0  0
    0.2759    0.2516    6.0310 H   0  0  0  0  0  0  0  0  0  0  0  0
   -1.1506    0.6593    4.9617 H   0  0  0  0  0  0  0  0  0  0  0  0
    0.5567    0.4125    1.7693 H   0  0  0  0  0  0  0  0  0  0  0  0
   -0.2262   -0.8283    2.4824 H   0  0  0  0  0  0  0  0  0  0  0  0
    2.0718   -0.7202    1.9733 H   0  0  0  0  0  0  0  0  0  0  0  0
    4.2841   -1.7467    3.7252 H   0  0  0  0  0  0  0  0  0  0  0  0
    4.9193    0.2288    2.3806 H   0  0  0  0  0  0  0  0  0  0  0  0
    6.8977   -0.8228    1.2833 H   0  0  0  0  0  0  0  0  0  0  0  0
    6.5895   -1.5004    2.8685 H   0  0  0  0  0  0  0  0  0  0  0  0
    7.0393   -3.3224    1.1920 H   0  0  0  0  0  0  0  0  0  0  0  0
    4.9790   -4.6742    1.5856 H   0  0  0  0  0  0  0  0  0  0  0  0
    5.4566   -3.8358    3.0418 H   0  0  0  0  0  0  0  0  0  0  0  0
    3.0039   -3.5847    2.6492 H   0  0  0  0  0  0  0  0  0  0  0  0
    3.0187   -3.8311    0.2394 H   0  0  0  0  0  0  0  0  0  0  0  0
    2.1948   -2.3496    0.6478 H   0  0  0  0  0  0  0  0  0  0  0  0
    2.6773   -1.3189   -1.5510 H   0  0  0  0  0  0  0  0  0  0  0  0
    4.3500   -3.6493   -2.5817 H   0  0  0  0  0  0  0  0  0  0  0  0
    2.7361   -3.8142   -1.9057 H   0  0  0  0  0  0  0  0  0  0  0  0
    2.6804   -3.8085   -4.3323 H   0  0  0  0  0  0  0  0  0  0  0  0
    1.7807   -2.4482   -3.6960 H   0  0  0  0  0  0  0  0  0  0  0  0
    4.2895   -0.0401   -4.5633 H   0  0  0  0  0  0  0  0  0  0  0  0
    2.7196   -0.2464   -3.8140 H   0  0  0  0  0  0  0  0  0  0  0  0
    4.4528    0.1429   -2.1244 H   0  0  0  0  0  0  0  0  0  0  0  0
    5.4193   -1.2045   -2.7162 H   0  0  0  0  0  0  0  0  0  0  0  0
    6.2737   -2.0875   -0.7872 H   0  0  0  0  0  0  0  0  0  0  0  0
    5.5091   -3.6685   -0.6729 H   0  0  0  0  0  0  0  0  0  0  0  0
    3.3442   -0.0625    0.4813 H   0  0  0  0  0  0  0  0  0  0  0  0
    5.0191    0.0501   -0.0280 H   0  0  0  0  0  0  0  0  0  0  0  0
  1  2  1  0
  1 26  1  0
  1 27  1  0
  1 28  1  0
  2  5  1  0
  2  3  1  0
  2  4  1  0
  3 29  1  0
  3 30  1  0
  3 31  1  0
  4  5  1  0
  4 32  1  0
  4 33  1  0
  5  6  1  6
  5  7  1  0
  6 34  1  0
  6 35  1  0
  7  8  2  0
  7  9  1  0
  9 10  1  0
  9 36  1  0
 10 15  1  0
 10 11  1  0
 10 37  1  1
 11 25  1  0
 11 12  1  0
 11 38  1  1
 12 13  1  0
 12 39  1  0
 12 40  1  0
 13 24  1  0
 13 14  1  0
 13 41  1  6
 14 15  1  0
 14 42  1  0
 14 43  1  0
 15 16  1  0
 15 44  1  1
 16 17  1  0
 16 45  1  0
 16 46  1  0
 17 18  1  6
 17 24  1  0
 17 25  1  0
 18 23  1  0
 18 19  1  0
 18 47  1  0
 19 20  1  0
 19 48  1  0
 19 49  1  0
 20 21  1  0
 20 50  1  0
 20 51  1  0
 21 22  1  0
 22 23  1  0
 22 52  1  0
 22 53  1  0
 23 54  1  0
 23 55  1  0
 24 56  1  0
 24 57  1  0
 25 58  1  0
 25 59  1  0
M  END
>  <i_m_ct_stereo_status>  (211) 
1

>  <s_m_source_file>  (211) 
/var/tmp/pbs.5076255.sched01/tmple0dc7g8/88jbw3zpwn.sdf

>  <i_m_source_file_index>  (211) 
17

>  <i_lp_mmshare_version>  (211) 
48012

>  <i_f3d_flags>  (211) 
0

>  <s_epik_input>  (211) 
W0NIM11DMShbQ0gzXSlbQ0gyXVtDQF0xKFtOSDJdKUMoPU8pW05IXVtDQEhdKFtDQEhdKFtDSDJdMilbQ0gyXVtDQEBIXShbQ0gyXTMpW0NIMl00KVtDQEhdM1tDSDJdW0NAQF0yNFtDSF01W0NIMl1bQ0gyXU9bQ0gyXVtDSDJdNQ==

>  <s_epik_cmdline>  (211) 
J2VwaWtfcHl0aG9uJywgJy1waHQnLCAnMi4wJywgJy1waCcsICc3LjAnLCAnLXRuJywgJzgnLCAnLW1hJywgJzIwMCcsICctaW1hZScsICc8aW5maWxlLm1hZT4nLCAnLW9tYWUnLCAnPG91dGZpbGUubWFlPic=

>  <r_epik_Ionization_Penalty>  (211) 
1.60467

>  <r_epik_Ionization_Penalty_Charging>  (211) 
0

>  <r_epik_Ionization_Penalty_Neutral>  (211) 
1.60467

>  <r_epik_State_Penalty>  (211) 
1.70313

>  <r_epik_Charging_Adjusted_Penalty>  (211) 
1.70313

>  <i_epik_Tot_Q>  (211) 
0

>  <i_epik_Tot_abs_Q>  (211) 
0

>  <s_lp_Force_Field>  (211) 
OPLS3e

>  <r_lp_Energy>  (211) 
10.0432

>  <b_lp_Chiralities_Consistent>  (211) 
1

>  <s_lp_Variant>  (211) 
61:0-2

>  <s_i_glide_gridfile>  (211) 
pfpi4k_grid

>  <i_i_glide_lignum>  (211) 
17

>  <i_i_glide_rotatable_bonds>  (211) 
4

>  <r_i_docking_score>  (211) 
-3.97398

>  <r_i_glide_ligand_efficiency>  (211) 
-0.158959

>  <r_i_glide_ligand_efficiency_sa>  (211) 
-0.4648

>  <r_i_glide_ligand_efficiency_ln>  (211) 
-0.941953

>  <r_i_glide_gscore>  (211) 
-3.97398

>  <r_i_glide_lipo>  (211) 
-0.916629

>  <r_i_glide_hbond>  (211) 
-0.32

>  <r_i_glide_metal>  (211) 
-0

>  <r_i_glide_rewards>  (211) 
-1.04654

>  <r_i_glide_evdw>  (211) 
-27.3253

>  <r_i_glide_ecoul>  (211) 
-6.32088

>  <r_i_glide_erotb>  (211) 
0.633412

>  <r_i_glide_esite>  (211) 
-0.00982338

>  <r_i_glide_emodel>  (211) 
-42.5273

>  <r_i_glide_energy>  (211) 
-33.6462

>  <r_i_glide_einternal>  (211) 
0.765193

>  <r_i_glide_intrahb_reward>  (211) 
-0

>  <i_i_glide_confnum>  (211) 
3

>  <i_i_glide_posenum>  (211) 
10

>  <r_i_glide_eff_state_penalty>  (211) 
0

>  <ligand_id>  (211) 
61

>  <original_smiles>  (211) 
CC1(C)CC1(N)C(=O)NC1C2CC3CC1CC(C1CCOCC1)(C3)C2

>  <smiles>  (211) 
[H]N(C(=O)C1(N([H])[H])C([H])([H])C1(C([H])([H])[H])C([H])([H])[H])C1([H])C2([H])C([H])([H])C3([H])C([H])([H])C1([H])C([H])([H])C(C1([H])C([H])([H])C([H])([H])OC([H])([H])C1([H])[H])(C3([H])[H])C2([H])[H]

$$$$
61:1:1
     RDKit          3D

 59 63  0  0  1  0  0  0  0  0999 V2000
   -0.7121    2.2618    5.0304 C   0  0  0  0  0  0  0  0  0  0  0  0
   -0.2865    0.8028    5.0495 C   0  0  0  0  0  0  0  0  0  0  0  0
    0.4858    0.5068    6.3278 C   0  0  0  0  0  0  0  0  0  0  0  0
   -1.2316   -0.2386    4.4896 C   0  0  0  0  0  0  0  0  0  0  0  0
    0.0387    0.0987    3.7244 C   0  0  1  0  0  0  0  0  0  0  0  0
   -0.0966    0.8590    2.4760 N   0  0  0  0  0  0  0  0  0  0  0  0
    1.1273   -0.9340    3.6834 C   0  0  0  0  0  0  0  0  0  0  0  0
    1.0914   -1.9450    4.3860 O   0  0  0  0  0  0  0  0  0  0  0  0
    2.1660   -0.6669    2.8749 N   0  0  0  0  0  0  0  0  0  0  0  0
    3.4502   -1.3552    2.8971 C   0  0  2  0  0  0  0  0  0  0  0  0
    4.4971   -0.5468    2.1089 C   0  0  1  0  0  0  0  0  0  0  0  0
    5.8730   -1.2292    2.2158 C   0  0  0  0  0  0  0  0  0  0  0  0
    5.8015   -2.6582    1.6317 C   0  0  1  0  0  0  0  0  0  0  0  0
    4.7543   -3.4778    2.4043 C   0  0  0  0  0  0  0  0  0  0  0  0
    3.3794   -2.7829    2.2954 C   0  0  2  0  0  0  0  0  0  0  0  0
    2.9748   -2.7060    0.8070 C   0  0  0  0  0  0  0  0  0  0  0  0
    4.0209   -1.8956   -0.0104 C   0  0  2  0  0  0  0  0  0  0  0  0
    3.5865   -1.7967   -1.5014 C   0  0  0  0  0  0  0  0  0  0  0  0
    3.3767   -3.1657   -2.2003 C   0  0  0  0  0  0  0  0  0  0  0  0
    2.8714   -2.9747   -3.6292 C   0  0  0  0  0  0  0  0  0  0  0  0
    3.8044   -2.1737   -4.3391 O   0  0  0  0  0  0  0  0  0  0  0  0
    3.9151   -0.8596   -3.8201 C   0  0  0  0  0  0  0  0  0  0  0  0
    4.4968   -0.9311   -2.4046 C   0  0  0  0  0  0  0  0  0  0  0  0
    5.4042   -2.5792    0.1418 C   0  0  0  0  0  0  0  0  0  0  0  0
    4.1057   -0.4724    0.6135 C   0  0  0  0  0  0  0  0  0  0  0  0
   -1.2672    2.5131    5.9333 H   0  0  0  0  0  0  0  0  0  0  0  0
   -1.3524    2.4728    4.1748 H   0  0  0  0  0  0  0  0  0  0  0  0
    0.1618    2.9093    4.9735 H   0  0  0  0  0  0  0  0  0  0  0  0
    0.7045   -0.5610    6.4324 H   0  0  0  0  0  0  0  0  0  0  0  0
   -0.0708    0.8522    7.2040 H   0  0  0  0  0  0  0  0  0  0  0  0
    1.4274    1.0561    6.3262 H   0  0  0  0  0  0  0  0  0  0  0  0
   -1.2943   -1.1969    5.0004 H   0  0  0  0  0  0  0  0  0  0  0  0
   -2.1730    0.1158    4.0807 H   0  0  0  0  0  0  0  0  0  0  0  0
    0.7058    1.4544    2.3144 H   0  0  0  0  0  0  0  0  0  0  0  0
   -0.2121    0.2903    1.6423 H   0  0  0  0  0  0  0  0  0  0  0  0
    2.0603    0.1017    2.2235 H   0  0  0  0  0  0  0  0  0  0  0  0
    3.7845   -1.4229    3.9312 H   0  0  0  0  0  0  0  0  0  0  0  0
    4.5575    0.4650    2.5257 H   0  0  0  0  0  0  0  0  0  0  0  0
    6.6130   -0.6507    1.6626 H   0  0  0  0  0  0  0  0  0  0  0  0
    6.1923   -1.2602    3.2551 H   0  0  0  0  0  0  0  0  0  0  0  0
    6.7786   -3.1455    1.6969 H   0  0  0  0  0  0  0  0  0  0  0  0
    4.6947   -4.4853    1.9981 H   0  0  0  0  0  0  0  0  0  0  0  0
    5.0476   -3.5725    3.4441 H   0  0  0  0  0  0  0  0  0  0  0  0
    2.6383   -3.3783    2.8283 H   0  0  0  0  0  0  0  0  0  0  0  0
    2.8665   -3.7318    0.4506 H   0  0  0  0  0  0  0  0  0  0  0  0
    1.9900   -2.2500    0.7305 H   0  0  0  0  0  0  0  0  0  0  0  0
    2.6305   -1.2854   -1.5261 H   0  0  0  0  0  0  0  0  0  0  0  0
    4.3067   -3.7318   -2.2278 H   0  0  0  0  0  0  0  0  0  0  0  0
    2.6383   -3.7763   -1.6805 H   0  0  0  0  0  0  0  0  0  0  0  0
    2.7698   -3.9419   -4.1243 H   0  0  0  0  0  0  0  0  0  0  0  0
    1.8909   -2.5062   -3.6322 H   0  0  0  0  0  0  0  0  0  0  0  0
    4.5803   -0.2830   -4.4581 H   0  0  0  0  0  0  0  0  0  0  0  0
    2.9491   -0.3628   -3.8187 H   0  0  0  0  0  0  0  0  0  0  0  0
    4.5718    0.0878   -2.0266 H   0  0  0  0  0  0  0  0  0  0  0  0
    5.4989   -1.3490   -2.4407 H   0  0  0  0  0  0  0  0  0  0  0  0
    6.1831   -2.0192   -0.3882 H   0  0  0  0  0  0  0  0  0  0  0  0
    5.4029   -3.5966   -0.2659 H   0  0  0  0  0  0  0  0  0  0  0  0
    3.1519    0.0465    0.4980 H   0  0  0  0  0  0  0  0  0  0  0  0
    4.8633    0.1403    0.1208 H   0  0  0  0  0  0  0  0  0  0  0  0
  1  2  1  0
  1 26  1  0
  1 27  1  0
  1 28  1  0
  2  5  1  0
  2  3  1  0
  2  4  1  0
  3 29  1  0
  3 30  1  0
  3 31  1  0
  4  5  1  0
  4 32  1  0
  4 33  1  0
  5  6  1  6
  5  7  1  0
  6 34  1  0
  6 35  1  0
  7  8  2  0
  7  9  1  0
  9 10  1  0
  9 36  1  0
 10 15  1  0
 10 11  1  0
 10 37  1  1
 11 25  1  0
 11 12  1  0
 11 38  1  1
 12 13  1  0
 12 39  1  0
 12 40  1  0
 13 24  1  0
 13 14  1  0
 13 41  1  6
 14 15  1  0
 14 42  1  0
 14 43  1  0
 15 16  1  0
 15 44  1  1
 16 17  1  0
 16 45  1  0
 16 46  1  0
 17 18  1  6
 17 24  1  0
 17 25  1  0
 18 23  1  0
 18 19  1  0
 18 47  1  0
 19 20  1  0
 19 48  1  0
 19 49  1  0
 20 21  1  0
 20 50  1  0
 20 51  1  0
 21 22  1  0
 22 23  1  0
 22 52  1  0
 22 53  1  0
 23 54  1  0
 23 55  1  0
 24 56  1  0
 24 57  1  0
 25 58  1  0
 25 59  1  0
M  END
>  <i_m_ct_stereo_status>  (212) 
1

>  <s_m_source_file>  (212) 
/var/tmp/pbs.5076255.sched01/tmple0dc7g8/88jbw3zpwn.sdf

>  <i_m_source_file_index>  (212) 
17

>  <i_lp_mmshare_version>  (212) 
48012

>  <i_f3d_flags>  (212) 
0

>  <s_epik_input>  (212) 
W0NIM11DMShbQ0gzXSlbQ0gyXVtDQF0xKFtOSDJdKUMoPU8pW05IXVtDQEhdKFtDQEhdKFtDSDJdMilbQ0gyXVtDQEBIXShbQ0gyXTMpW0NIMl00KVtDQEhdM1tDSDJdW0NAQF0yNFtDSF01W0NIMl1bQ0gyXU9bQ0gyXVtDSDJdNQ==

>  <s_epik_cmdline>  (212) 
J2VwaWtfcHl0aG9uJywgJy1waHQnLCAnMi4wJywgJy1waCcsICc3LjAnLCAnLXRuJywgJzgnLCAnLW1hJywgJzIwMCcsICctaW1hZScsICc8aW5maWxlLm1hZT4nLCAnLW9tYWUnLCAnPG91dGZpbGUubWFlPic=

>  <r_epik_Ionization_Penalty>  (212) 
1.60467

>  <r_epik_Ionization_Penalty_Charging>  (212) 
0

>  <r_epik_Ionization_Penalty_Neutral>  (212) 
1.60467

>  <r_epik_State_Penalty>  (212) 
1.70313

>  <r_epik_Charging_Adjusted_Penalty>  (212) 
1.70313

>  <i_epik_Tot_Q>  (212) 
0

>  <i_epik_Tot_abs_Q>  (212) 
0

>  <s_lp_Force_Field>  (212) 
OPLS3e

>  <r_lp_Energy>  (212) 
10.0432

>  <b_lp_Chiralities_Consistent>  (212) 
1

>  <s_lp_Variant>  (212) 
61:0-2

>  <s_i_glide_gridfile>  (212) 
pfpi4k_grid

>  <i_i_glide_lignum>  (212) 
17

>  <i_i_glide_rotatable_bonds>  (212) 
4

>  <r_i_docking_score>  (212) 
-3.74864

>  <r_i_glide_ligand_efficiency>  (212) 
-0.149946

>  <r_i_glide_ligand_efficiency_sa>  (212) 
-0.438443

>  <r_i_glide_ligand_efficiency_ln>  (212) 
-0.88854

>  <r_i_glide_gscore>  (212) 
-3.74864

>  <r_i_glide_lipo>  (212) 
-0.904853

>  <r_i_glide_hbond>  (212) 
-0.32

>  <r_i_glide_metal>  (212) 
-0

>  <r_i_glide_rewards>  (212) 
-1.04654

>  <r_i_glide_evdw>  (212) 
-31.1341

>  <r_i_glide_ecoul>  (212) 
-3.5633

>  <r_i_glide_erotb>  (212) 
0.633412

>  <r_i_glide_esite>  (212) 
-0.0194552

>  <r_i_glide_emodel>  (212) 
-42.9084

>  <r_i_glide_energy>  (212) 
-34.6974

>  <r_i_glide_einternal>  (212) 
0.945887

>  <r_i_glide_intrahb_reward>  (212) 
-0

>  <i_i_glide_confnum>  (212) 
3

>  <i_i_glide_posenum>  (212) 
2

>  <r_i_glide_eff_state_penalty>  (212) 
0

>  <ligand_id>  (212) 
61

>  <original_smiles>  (212) 
CC1(C)CC1(N)C(=O)NC1C2CC3CC1CC(C1CCOCC1)(C3)C2

>  <smiles>  (212) 
[H]N(C(=O)C1(N([H])[H])C([H])([H])C1(C([H])([H])[H])C([H])([H])[H])C1([H])C2([H])C([H])([H])C3([H])C([H])([H])C1([H])C([H])([H])C(C1([H])C([H])([H])C([H])([H])OC([H])([H])C1([H])[H])(C3([H])[H])C2([H])[H]

$$$$
61:1:2
     RDKit          3D

 59 63  0  0  1  0  0  0  0  0999 V2000
    2.4546   -3.0710   -3.3728 C   0  0  0  0  0  0  0  0  0  0  0  0
    3.5227   -2.9646   -2.3059 C   0  0  0  0  0  0  0  0  0  0  0  0
    3.0836   -3.6264   -1.0191 C   0  0  0  0  0  0  0  0  0  0  0  0
    4.9779   -2.9991   -2.6815 C   0  0  0  0  0  0  0  0  0  0  0  0
    4.3428   -1.6954   -2.2337 C   0  0  1  0  0  0  0  0  0  0  0  0
    4.1502   -0.6498   -3.2224 N   0  0  0  0  0  0  0  0  0  0  0  0
    4.8018   -1.1593   -0.9075 C   0  0  0  0  0  0  0  0  0  0  0  0
    6.0018   -1.0611   -0.6692 O   0  0  0  0  0  0  0  0  0  0  0  0
    3.8299   -0.8477   -0.0340 N   0  0  0  0  0  0  0  0  0  0  0  0
    3.9778   -0.2943    1.3227 C   0  0  2  0  0  0  0  0  0  0  0  0
    4.9421   -1.1047    2.2363 C   0  0  1  0  0  0  0  0  0  0  0  0
    5.1037   -0.4140    3.6011 C   0  0  0  0  0  0  0  0  0  0  0  0
    3.7329   -0.3394    4.3027 C   0  0  1  0  0  0  0  0  0  0  0  0
    2.7551    0.4716    3.4276 C   0  0  0  0  0  0  0  0  0  0  0  0
    2.6009   -0.2125    2.0451 C   0  0  2  0  0  0  0  0  0  0  0  0
    2.0219   -1.6283    2.2664 C   0  0  0  0  0  0  0  0  0  0  0  0
    2.9808   -2.4856    3.1386 C   0  0  2  0  0  0  0  0  0  0  0  0
    2.4527   -3.9319    3.3606 C   0  0  0  0  0  0  0  0  0  0  0  0
    2.4486   -4.8278    2.0946 C   0  0  0  0  0  0  0  0  0  0  0  0
    1.9318   -6.2291    2.3979 C   0  0  0  0  0  0  0  0  0  0  0  0
    0.6260   -6.1494    2.9548 O   0  0  0  0  0  0  0  0  0  0  0  0
    0.6143   -5.4633    4.2020 C   0  0  0  0  0  0  0  0  0  0  0  0
    1.0370   -4.0084    3.9939 C   0  0  0  0  0  0  0  0  0  0  0  0
    3.1744   -1.7697    4.5056 C   0  0  0  0  0  0  0  0  0  0  0  0
    4.3835   -2.5236    2.4621 C   0  0  0  0  0  0  0  0  0  0  0  0
    2.2081   -4.1189   -3.5413 H   0  0  0  0  0  0  0  0  0  0  0  0
    2.7997   -2.6552   -4.3139 H   0  0  0  0  0  0  0  0  0  0  0  0
    1.5553   -2.5488   -3.0529 H   0  0  0  0  0  0  0  0  0  0  0  0
    3.9056   -3.6809   -0.3052 H   0  0  0  0  0  0  0  0  0  0  0  0
    2.7466   -4.6552   -1.1331 H   0  0  0  0  0  0  0  0  0  0  0  0
    2.2278   -3.1052   -0.6095 H   0  0  0  0  0  0  0  0  0  0  0  0
    5.6551   -3.4988   -1.9897 H   0  0  0  0  0  0  0  0  0  0  0  0
    5.2319   -3.1233   -3.7335 H   0  0  0  0  0  0  0  0  0  0  0  0
    3.4165   -0.0213   -2.9328 H   0  0  0  0  0  0  0  0  0  0  0  0
    4.9848   -0.0907   -3.3013 H   0  0  0  0  0  0  0  0  0  0  0  0
    2.8763   -1.0102   -0.3405 H   0  0  0  0  0  0  0  0  0  0  0  0
    4.3463    0.7211    1.1974 H   0  0  0  0  0  0  0  0  0  0  0  0
    5.9374   -1.1765    1.8039 H   0  0  0  0  0  0  0  0  0  0  0  0
    5.7974   -0.9804    4.2169 H   0  0  0  0  0  0  0  0  0  0  0  0
    5.5289    0.5803    3.4748 H   0  0  0  0  0  0  0  0  0  0  0  0
    3.8450    0.1425    5.2810 H   0  0  0  0  0  0  0  0  0  0  0  0
    1.7847    0.5412    3.9271 H   0  0  0  0  0  0  0  0  0  0  0  0
    3.1155    1.4937    3.3045 H   0  0  0  0  0  0  0  0  0  0  0  0
    1.8984    0.3548    1.4429 H   0  0  0  0  0  0  0  0  0  0  0  0
    1.0332   -1.5207    2.7183 H   0  0  0  0  0  0  0  0  0  0  0  0
    1.8497   -2.0907    1.2976 H   0  0  0  0  0  0  0  0  0  0  0  0
    3.1334   -4.4204    4.0680 H   0  0  0  0  0  0  0  0  0  0  0  0
    1.8278   -4.3741    1.3277 H   0  0  0  0  0  0  0  0  0  0  0  0
    3.4436   -4.9311    1.6684 H   0  0  0  0  0  0  0  0  0  0  0  0
    1.9096   -6.8260    1.4862 H   0  0  0  0  0  0  0  0  0  0  0  0
    2.6116   -6.7261    3.0871 H   0  0  0  0  0  0  0  0  0  0  0  0
   -0.3969   -5.4946    4.6130 H   0  0  0  0  0  0  0  0  0  0  0  0
    1.2740   -5.9472    4.9189 H   0  0  0  0  0  0  0  0  0  0  0  0
    0.9943   -3.4895    4.9532 H   0  0  0  0  0  0  0  0  0  0  0  0
    0.3005   -3.5250    3.3504 H   0  0  0  0  0  0  0  0  0  0  0  0
    3.8694   -2.3397    5.1233 H   0  0  0  0  0  0  0  0  0  0  0  0
    2.2451   -1.6855    5.0722 H   0  0  0  0  0  0  0  0  0  0  0  0
    4.3512   -3.0103    1.4818 H   0  0  0  0  0  0  0  0  0  0  0  0
    5.0802   -3.0946    3.0820 H   0  0  0  0  0  0  0  0  0  0  0  0
  1  2  1  0
  1 26  1  0
  1 27  1  0
  1 28  1  0
  2  5  1  0
  2  3  1  0
  2  4  1  0
  3 29  1  0
  3 30  1  0
  3 31  1  0
  4  5  1  0
  4 32  1  0
  4 33  1  0
  5  6  1  6
  5  7  1  0
  6 34  1  0
  6 35  1  0
  7  8  2  0
  7  9  1  0
  9 10  1  0
  9 36  1  0
 10 15  1  0
 10 11  1  0
 10 37  1  6
 11 25  1  0
 11 12  1  0
 11 38  1  6
 12 13  1  0
 12 39  1  0
 12 40  1  0
 13 24  1  0
 13 14  1  0
 13 41  1  1
 14 15  1  0
 14 42  1  0
 14 43  1  0
 15 16  1  0
 15 44  1  6
 16 17  1  0
 16 45  1  0
 16 46  1  0
 17 18  1  1
 17 24  1  0
 17 25  1  0
 18 23  1  0
 18 19  1  0
 18 47  1  0
 19 20  1  0
 19 48  1  0
 19 49  1  0
 20 21  1  0
 20 50  1  0
 20 51  1  0
 21 22  1  0
 22 23  1  0
 22 52  1  0
 22 53  1  0
 23 54  1  0
 23 55  1  0
 24 56  1  0
 24 57  1  0
 25 58  1  0
 25 59  1  0
M  END
>  <i_m_ct_stereo_status>  (213) 
1

>  <s_m_source_file>  (213) 
/var/tmp/pbs.5076255.sched01/tmple0dc7g8/88jbw3zpwn.sdf

>  <i_m_source_file_index>  (213) 
17

>  <i_lp_mmshare_version>  (213) 
48012

>  <i_f3d_flags>  (213) 
0

>  <s_epik_input>  (213) 
W0NIM11DMShbQ0gzXSlbQ0gyXVtDQF0xKFtOSDJdKUMoPU8pW05IXVtDQEhdKFtDQEhdKFtDSDJdMilbQ0gyXVtDQEBIXShbQ0gyXTMpW0NIMl00KVtDQEhdM1tDSDJdW0NAQF0yNFtDSF01W0NIMl1bQ0gyXU9bQ0gyXVtDSDJdNQ==

>  <s_epik_cmdline>  (213) 
J2VwaWtfcHl0aG9uJywgJy1waHQnLCAnMi4wJywgJy1waCcsICc3LjAnLCAnLXRuJywgJzgnLCAnLW1hJywgJzIwMCcsICctaW1hZScsICc8aW5maWxlLm1hZT4nLCAnLW9tYWUnLCAnPG91dGZpbGUubWFlPic=

>  <r_epik_Ionization_Penalty>  (213) 
1.60467

>  <r_epik_Ionization_Penalty_Charging>  (213) 
0

>  <r_epik_Ionization_Penalty_Neutral>  (213) 
1.60467

>  <r_epik_State_Penalty>  (213) 
1.70313

>  <r_epik_Charging_Adjusted_Penalty>  (213) 
1.70313

>  <i_epik_Tot_Q>  (213) 
0

>  <i_epik_Tot_abs_Q>  (213) 
0

>  <s_lp_Force_Field>  (213) 
OPLS3e

>  <r_lp_Energy>  (213) 
10.0432

>  <b_lp_Chiralities_Consistent>  (213) 
1

>  <s_lp_Variant>  (213) 
61:0-2

>  <s_i_glide_gridfile>  (213) 
pfpi4k_grid

>  <i_i_glide_lignum>  (213) 
17

>  <i_i_glide_rotatable_bonds>  (213) 
4

>  <r_i_docking_score>  (213) 
-3.71727

>  <r_i_glide_ligand_efficiency>  (213) 
-0.148691

>  <r_i_glide_ligand_efficiency_sa>  (213) 
-0.434775

>  <r_i_glide_ligand_efficiency_ln>  (213) 
-0.881105

>  <r_i_glide_gscore>  (213) 
-3.71727

>  <r_i_glide_lipo>  (213) 
-0.723785

>  <r_i_glide_hbond>  (213) 
-0.182014

>  <r_i_glide_metal>  (213) 
-0

>  <r_i_glide_rewards>  (213) 
-1.04654

>  <r_i_glide_evdw>  (213) 
-29.5229

>  <r_i_glide_ecoul>  (213) 
-5.66848

>  <r_i_glide_erotb>  (213) 
0.633412

>  <r_i_glide_esite>  (213) 
-0.0719205

>  <r_i_glide_emodel>  (213) 
-41.7468

>  <r_i_glide_energy>  (213) 
-35.1914

>  <r_i_glide_einternal>  (213) 
3.69325

>  <r_i_glide_intrahb_reward>  (213) 
-0

>  <i_i_glide_confnum>  (213) 
4

>  <i_i_glide_posenum>  (213) 
1

>  <r_i_glide_eff_state_penalty>  (213) 
0

>  <ligand_id>  (213) 
61

>  <original_smiles>  (213) 
CC1(C)CC1(N)C(=O)NC1C2CC3CC1CC(C1CCOCC1)(C3)C2

>  <smiles>  (213) 
[H]N(C(=O)C1(N([H])[H])C([H])([H])C1(C([H])([H])[H])C([H])([H])[H])C1([H])C2([H])C([H])([H])C3([H])C([H])([H])C1([H])C([H])([H])C(C1([H])C([H])([H])C([H])([H])OC([H])([H])C1([H])[H])(C3([H])[H])C2([H])[H]

$$$$
62:0:0
     RDKit          3D

 16 17  0  0  1  0  0  0  0  0999 V2000
    2.9110    0.1498   -4.8107 C   0  0  0  0  0  0  0  0  0  0  0  0
    3.4378   -0.8991   -3.8591 C   0  0  0  0  0  0  0  0  0  0  0  0
    3.1817   -2.2729   -3.9059 C   0  0  0  0  0  0  0  0  0  0  0  0
    3.9194   -2.6915   -2.8445 N   0  0  0  0  0  0  0  0  0  0  0  0
    4.2070   -3.8129   -2.2316 N   0  0  0  0  0  0  0  0  0  0  0  0
    5.0119   -3.4475   -1.1870 C   0  0  0  0  0  0  0  0  0  0  0  0
    5.2984   -2.0098   -1.1010 C   0  0  0  0  0  0  0  0  0  0  0  0
    4.5146   -1.6674   -2.2325 C   0  0  0  0  0  0  0  0  0  0  0  0
    4.2951   -0.5194   -2.7804 N   0  0  0  0  0  0  0  0  0  0  0  0
    3.8432   -4.7534   -2.4161 H   0  0  0  0  0  0  0  0  0  0  0  0
    2.2522   -0.2503   -5.5798 H   0  0  0  0  0  0  0  0  0  0  0  0
    3.7111    0.6773   -5.3326 H   0  0  0  0  0  0  0  0  0  0  0  0
    2.3103    0.9066   -4.3130 H   0  0  0  0  0  0  0  0  0  0  0  0
    2.5914   -2.9266   -4.5362 H   0  0  0  0  0  0  0  0  0  0  0  0
    5.3466   -4.2480   -0.5322 H   0  0  0  0  0  0  0  0  0  0  0  0
    5.8982   -1.4228   -0.3994 H   0  0  0  0  0  0  0  0  0  0  0  0
  1  2  1  0
  1 11  1  0
  1 12  1  0
  1 13  1  0
  2  9  1  0
  2  3  2  0
  3  4  1  0
  3 14  1  0
  4  8  1  0
  4  5  1  0
  5 10  1  0
  5  6  1  0
  6  7  2  0
  6 15  1  0
  7  8  1  0
  7 16  1  0
  8  9  2  0
M  END
>  <i_m_ct_stereo_status>  (214) 
1

>  <s_m_source_file>  (214) 
/var/tmp/pbs.5076255.sched01/tmple0dc7g8/88jbw3zpwn.sdf

>  <i_m_source_file_index>  (214) 
18

>  <i_lp_mmshare_version>  (214) 
48012

>  <i_f3d_flags>  (214) 
0

>  <s_epik_input>  (214) 
W0NIM11jKFtjSF0xKW5jKG4xMilbY0hdW2NIXVtuSF0y

>  <s_epik_cmdline>  (214) 
J2VwaWtfcHl0aG9uJywgJy1waHQnLCAnMi4wJywgJy1waCcsICc3LjAnLCAnLXRuJywgJzgnLCAnLW1hJywgJzIwMCcsICctaW1hZScsICc8aW5maWxlLm1hZT4nLCAnLW9tYWUnLCAnPG91dGZpbGUubWFlPic=

>  <r_epik_Ionization_Penalty>  (214) 
0.0206416

>  <r_epik_Ionization_Penalty_Charging>  (214) 
0.0206416

>  <r_epik_Ionization_Penalty_Neutral>  (214) 
2.32514e-10

>  <r_epik_State_Penalty>  (214) 
0.0165561

>  <r_epik_Charging_Adjusted_Penalty>  (214) 
0.0371977

>  <i_epik_Tot_Q>  (214) 
0

>  <i_epik_Tot_abs_Q>  (214) 
0

>  <s_lp_Force_Field>  (214) 
OPLS3e

>  <r_lp_Energy>  (214) 
9.04449

>  <b_lp_Chiralities_Consistent>  (214) 
1

>  <s_lp_Variant>  (214) 
62:0-1

>  <s_i_glide_gridfile>  (214) 
pfpi4k_grid

>  <i_i_glide_lignum>  (214) 
18

>  <i_i_glide_rotatable_bonds>  (214) 
0

>  <r_i_docking_score>  (214) 
-4.76528

>  <r_i_glide_ligand_efficiency>  (214) 
-0.529476

>  <r_i_glide_ligand_efficiency_sa>  (214) 
-1.10135

>  <r_i_glide_ligand_efficiency_ln>  (214) 
-1.49044

>  <r_i_glide_gscore>  (214) 
-4.76528

>  <r_i_glide_lipo>  (214) 
-0.412983

>  <r_i_glide_hbond>  (214) 
-0.32

>  <r_i_glide_metal>  (214) 
-0

>  <r_i_glide_rewards>  (214) 
-2.31662

>  <r_i_glide_evdw>  (214) 
-15.9074

>  <r_i_glide_ecoul>  (214) 
-5.68812

>  <r_i_glide_erotb>  (214) 
0

>  <r_i_glide_esite>  (214) 
-0.0670853

>  <r_i_glide_emodel>  (214) 
-28.5146

>  <r_i_glide_energy>  (214) 
-21.5955

>  <r_i_glide_einternal>  (214) 
0

>  <r_i_glide_intrahb_reward>  (214) 
-0

>  <i_i_glide_confnum>  (214) 
1

>  <i_i_glide_posenum>  (214) 
24

>  <r_i_glide_eff_state_penalty>  (214) 
0

>  <ligand_id>  (214) 
62

>  <original_smiles>  (214) 
Cc1cn2[nH]ccc2n1

>  <smiles>  (214) 
[H]c1c([H])n([H])n2c([H])c(C([H])([H])[H])nc12

$$$$
62:0:1
     RDKit          3D

 16 17  0  0  1  0  0  0  0  0999 V2000
    7.3740   -2.6480   -0.0550 C   0  0  0  0  0  0  0  0  0  0  0  0
    6.1747   -2.6456   -0.9672 C   0  0  0  0  0  0  0  0  0  0  0  0
    5.3754   -3.7312   -1.3154 C   0  0  0  0  0  0  0  0  0  0  0  0
    4.4686   -3.1223   -2.1524 N   0  0  0  0  0  0  0  0  0  0  0  0
    3.4299   -3.4566   -2.8675 N   0  0  0  0  0  0  0  0  0  0  0  0
    3.0153   -2.2937   -3.4681 C   0  0  0  0  0  0  0  0  0  0  0  0
    3.8266   -1.1231   -3.1263 C   0  0  0  0  0  0  0  0  0  0  0  0
    4.7249   -1.8277   -2.2637 C   0  0  0  0  0  0  0  0  0  0  0  0
    5.7560   -1.4247   -1.5732 N   0  0  0  0  0  0  0  0  0  0  0  0
    3.0212   -4.3829   -2.9400 H   0  0  0  0  0  0  0  0  0  0  0  0
    7.5805   -3.6371    0.3470 H   0  0  0  0  0  0  0  0  0  0  0  0
    7.2360   -1.9874    0.7986 H   0  0  0  0  0  0  0  0  0  0  0  0
    8.2793   -2.3237   -0.5651 H   0  0  0  0  0  0  0  0  0  0  0  0
    5.3650   -4.7891   -1.0694 H   0  0  0  0  0  0  0  0  0  0  0  0
    2.1501   -2.3657   -4.1057 H   0  0  0  0  0  0  0  0  0  0  0  0
    3.7452   -0.0902   -3.4301 H   0  0  0  0  0  0  0  0  0  0  0  0
  1  2  1  0
  1 11  1  0
  1 12  1  0
  1 13  1  0
  2  9  1  0
  2  3  2  0
  3  4  1  0
  3 14  1  0
  4  8  1  0
  4  5  1  0
  5 10  1  0
  5  6  1  0
  6  7  2  0
  6 15  1  0
  7  8  1  0
  7 16  1  0
  8  9  2  0
M  END
>  <i_m_ct_stereo_status>  (215) 
1

>  <s_m_source_file>  (215) 
/var/tmp/pbs.5076255.sched01/tmple0dc7g8/88jbw3zpwn.sdf

>  <i_m_source_file_index>  (215) 
18

>  <i_lp_mmshare_version>  (215) 
48012

>  <i_f3d_flags>  (215) 
0

>  <s_epik_input>  (215) 
W0NIM11jKFtjSF0xKW5jKG4xMilbY0hdW2NIXVtuSF0y

>  <s_epik_cmdline>  (215) 
J2VwaWtfcHl0aG9uJywgJy1waHQnLCAnMi4wJywgJy1waCcsICc3LjAnLCAnLXRuJywgJzgnLCAnLW1hJywgJzIwMCcsICctaW1hZScsICc8aW5maWxlLm1hZT4nLCAnLW9tYWUnLCAnPG91dGZpbGUubWFlPic=

>  <r_epik_Ionization_Penalty>  (215) 
0.0206416

>  <r_epik_Ionization_Penalty_Charging>  (215) 
0.0206416

>  <r_epik_Ionization_Penalty_Neutral>  (215) 
2.32514e-10

>  <r_epik_State_Penalty>  (215) 
0.0165561

>  <r_epik_Charging_Adjusted_Penalty>  (215) 
0.0371977

>  <i_epik_Tot_Q>  (215) 
0

>  <i_epik_Tot_abs_Q>  (215) 
0

>  <s_lp_Force_Field>  (215) 
OPLS3e

>  <r_lp_Energy>  (215) 
9.04449

>  <b_lp_Chiralities_Consistent>  (215) 
1

>  <s_lp_Variant>  (215) 
62:0-1

>  <s_i_glide_gridfile>  (215) 
pfpi4k_grid

>  <i_i_glide_lignum>  (215) 
18

>  <i_i_glide_rotatable_bonds>  (215) 
0

>  <r_i_docking_score>  (215) 
-4.7125

>  <r_i_glide_ligand_efficiency>  (215) 
-0.523611

>  <r_i_glide_ligand_efficiency_sa>  (215) 
-1.08915

>  <r_i_glide_ligand_efficiency_ln>  (215) 
-1.47393

>  <r_i_glide_gscore>  (215) 
-4.7125

>  <r_i_glide_lipo>  (215) 
-0.372423

>  <r_i_glide_hbond>  (215) 
-0.384161

>  <r_i_glide_metal>  (215) 
-0

>  <r_i_glide_rewards>  (215) 
-2.25

>  <r_i_glide_evdw>  (215) 
-15.0169

>  <r_i_glide_ecoul>  (215) 
-6.17626

>  <r_i_glide_erotb>  (215) 
0

>  <r_i_glide_esite>  (215) 
-0.02863

>  <r_i_glide_emodel>  (215) 
-28.0459

>  <r_i_glide_energy>  (215) 
-21.1931

>  <r_i_glide_einternal>  (215) 
0

>  <r_i_glide_intrahb_reward>  (215) 
-0

>  <i_i_glide_confnum>  (215) 
2

>  <i_i_glide_posenum>  (215) 
1

>  <r_i_glide_eff_state_penalty>  (215) 
0

>  <ligand_id>  (215) 
62

>  <original_smiles>  (215) 
Cc1cn2[nH]ccc2n1

>  <smiles>  (215) 
[H]c1c([H])n([H])n2c([H])c(C([H])([H])[H])nc12

$$$$
62:0:2
     RDKit          3D

 16 17  0  0  1  0  0  0  0  0999 V2000
    5.5307   -3.5609   -0.4299 C   0  0  0  0  0  0  0  0  0  0  0  0
    4.8742   -2.7605   -1.5173 C   0  0  0  0  0  0  0  0  0  0  0  0
    4.0964   -3.2736   -2.5480 C   0  0  0  0  0  0  0  0  0  0  0  0
    3.7616   -2.1289   -3.2141 N   0  0  0  0  0  0  0  0  0  0  0  0
    3.0761   -1.7822   -4.2625 N   0  0  0  0  0  0  0  0  0  0  0  0
    3.1933   -0.4188   -4.3198 C   0  0  0  0  0  0  0  0  0  0  0  0
    4.0081    0.1463   -3.2614 C   0  0  0  0  0  0  0  0  0  0  0  0
    4.2984   -1.0829   -2.6079 C   0  0  0  0  0  0  0  0  0  0  0  0
    5.0270   -1.3444   -1.5625 N   0  0  0  0  0  0  0  0  0  0  0  0
    2.5187   -2.3526   -4.8957 H   0  0  0  0  0  0  0  0  0  0  0  0
    5.3395   -4.6404   -0.5182 H   0  0  0  0  0  0  0  0  0  0  0  0
    5.1839   -3.2757    0.5676 H   0  0  0  0  0  0  0  0  0  0  0  0
    6.6178   -3.4466   -0.4305 H   0  0  0  0  0  0  0  0  0  0  0  0
    3.7596   -4.2421   -2.8735 H   0  0  0  0  0  0  0  0  0  0  0  0
    2.6750    0.0743   -5.1146 H   0  0  0  0  0  0  0  0  0  0  0  0
    4.2755    1.1713   -3.0558 H   0  0  0  0  0  0  0  0  0  0  0  0
  1  2  1  0
  1 11  1  0
  1 12  1  0
  1 13  1  0
  2  9  1  0
  2  3  2  0
  3  4  1  0
  3 14  1  0
  4  8  1  0
  4  5  1  0
  5 10  1  0
  5  6  1  0
  6  7  2  0
  6 15  1  0
  7  8  1  0
  7 16  1  0
  8  9  2  0
M  END
>  <i_m_ct_stereo_status>  (216) 
1

>  <s_m_source_file>  (216) 
/var/tmp/pbs.5076255.sched01/tmple0dc7g8/88jbw3zpwn.sdf

>  <i_m_source_file_index>  (216) 
18

>  <i_lp_mmshare_version>  (216) 
48012

>  <i_f3d_flags>  (216) 
0

>  <s_epik_input>  (216) 
W0NIM11jKFtjSF0xKW5jKG4xMilbY0hdW2NIXVtuSF0y

>  <s_epik_cmdline>  (216) 
J2VwaWtfcHl0aG9uJywgJy1waHQnLCAnMi4wJywgJy1waCcsICc3LjAnLCAnLXRuJywgJzgnLCAnLW1hJywgJzIwMCcsICctaW1hZScsICc8aW5maWxlLm1hZT4nLCAnLW9tYWUnLCAnPG91dGZpbGUubWFlPic=

>  <r_epik_Ionization_Penalty>  (216) 
0.0206416

>  <r_epik_Ionization_Penalty_Charging>  (216) 
0.0206416

>  <r_epik_Ionization_Penalty_Neutral>  (216) 
2.32514e-10

>  <r_epik_State_Penalty>  (216) 
0.0165561

>  <r_epik_Charging_Adjusted_Penalty>  (216) 
0.0371977

>  <i_epik_Tot_Q>  (216) 
0

>  <i_epik_Tot_abs_Q>  (216) 
0

>  <s_lp_Force_Field>  (216) 
OPLS3e

>  <r_lp_Energy>  (216) 
9.04449

>  <b_lp_Chiralities_Consistent>  (216) 
1

>  <s_lp_Variant>  (216) 
62:0-1

>  <s_i_glide_gridfile>  (216) 
pfpi4k_grid

>  <i_i_glide_lignum>  (216) 
18

>  <i_i_glide_rotatable_bonds>  (216) 
0

>  <r_i_docking_score>  (216) 
-4.32131

>  <r_i_glide_ligand_efficiency>  (216) 
-0.480146

>  <r_i_glide_ligand_efficiency_sa>  (216) 
-0.998743

>  <r_i_glide_ligand_efficiency_ln>  (216) 
-1.35158

>  <r_i_glide_gscore>  (216) 
-4.32131

>  <r_i_glide_lipo>  (216) 
-0.414096

>  <r_i_glide_hbond>  (216) 
-0.238039

>  <r_i_glide_metal>  (216) 
-0

>  <r_i_glide_rewards>  (216) 
-2.42635

>  <r_i_glide_evdw>  (216) 
-12.696

>  <r_i_glide_ecoul>  (216) 
-3.83678

>  <r_i_glide_erotb>  (216) 
0

>  <r_i_glide_esite>  (216) 
-0.0325079

>  <r_i_glide_emodel>  (216) 
-22.8042

>  <r_i_glide_energy>  (216) 
-16.5327

>  <r_i_glide_einternal>  (216) 
0

>  <r_i_glide_intrahb_reward>  (216) 
-0

>  <i_i_glide_confnum>  (216) 
1

>  <i_i_glide_posenum>  (216) 
10

>  <r_i_glide_eff_state_penalty>  (216) 
0

>  <ligand_id>  (216) 
62

>  <original_smiles>  (216) 
Cc1cn2[nH]ccc2n1

>  <smiles>  (216) 
[H]c1c([H])n([H])n2c([H])c(C([H])([H])[H])nc12

$$$$
62:1:0
     RDKit          3D

 17 18  0  0  1  0  0  0  0  0999 V2000
    2.9610    0.1683   -4.7821 C   0  0  0  0  0  0  0  0  0  0  0  0
    3.4447   -0.8627   -3.8024 C   0  0  0  0  0  0  0  0  0  0  0  0
    3.2512   -2.2597   -3.7565 C   0  0  0  0  0  0  0  0  0  0  0  0
    3.9500   -2.6498   -2.6781 N   0  0  0  0  0  0  0  0  0  0  0  0
    4.1978   -3.7784   -2.0619 N   0  0  0  0  0  0  0  0  0  0  0  0
    4.9483   -3.4321   -0.9807 C   0  0  0  0  0  0  0  0  0  0  0  0
    5.2238   -1.9940   -0.8790 C   0  0  0  0  0  0  0  0  0  0  0  0
    4.5024   -1.6296   -2.0541 C   0  0  0  0  0  0  0  0  0  0  0  0
    4.2293   -0.5055   -2.7010 N   0  0  0  0  0  0  0  0  0  0  0  0
    3.8466   -4.7196   -2.2900 H   0  0  0  0  0  0  0  0  0  0  0  0
    2.3517   -0.2598   -5.5731 H   0  0  0  0  0  0  0  0  0  0  0  0
    3.8043    0.6837   -5.2546 H   0  0  0  0  0  0  0  0  0  0  0  0
    2.3280    0.9147   -4.3098 H   0  0  0  0  0  0  0  0  0  0  0  0
    2.6957   -2.9586   -4.3695 H   0  0  0  0  0  0  0  0  0  0  0  0
    5.2365   -4.2472   -0.3321 H   0  0  0  0  0  0  0  0  0  0  0  0
    5.7836   -1.4258   -0.1383 H   0  0  0  0  0  0  0  0  0  0  0  0
    4.5270    0.4275   -2.4141 H   0  0  0  0  0  0  0  0  0  0  0  0
  1  2  1  0
  1 11  1  0
  1 12  1  0
  1 13  1  0
  2  9  1  0
  2  3  2  0
  3  4  1  0
  3 14  1  0
  4  8  1  0
  4  5  1  0
  5 10  1  0
  5  6  1  0
  6  7  2  0
  6 15  1  0
  7  8  1  0
  7 16  1  0
  8  9  2  0
  9 17  1  0
M  CHG  1   9   1
M  END
>  <i_m_ct_stereo_status>  (217) 
1

>  <s_m_source_file>  (217) 
/var/tmp/pbs.5076255.sched01/tmple0dc7g8/88jbw3zpwn.sdf

>  <i_m_source_file_index>  (217) 
19

>  <i_lp_mmshare_version>  (217) 
48012

>  <i_f3d_flags>  (217) 
0

>  <s_epik_input>  (217) 
W0NIM11jKFtjSF0xKW5jKG4xMilbY0hdW2NIXVtuSF0y

>  <s_epik_cmdline>  (217) 
J2VwaWtfcHl0aG9uJywgJy1waHQnLCAnMi4wJywgJy1waCcsICc3LjAnLCAnLXRuJywgJzgnLCAnLW1hJywgJzIwMCcsICctaW1hZScsICc8aW5maWxlLm1hZT4nLCAnLW9tYWUnLCAnPG91dGZpbGUubWFlPic=

>  <r_epik_Ionization_Penalty>  (217) 
1.99928

>  <r_epik_Ionization_Penalty_Charging>  (217) 
0

>  <r_epik_Ionization_Penalty_Neutral>  (217) 
1.99928

>  <r_epik_State_Penalty>  (217) 
2.12792

>  <r_epik_Charging_Adjusted_Penalty>  (217) 
2.12792

>  <i_epik_Tot_Q>  (217) 
1

>  <i_epik_Tot_abs_Q>  (217) 
1

>  <s_lp_Force_Field>  (217) 
OPLS3e

>  <r_lp_Energy>  (217) 
11.1109

>  <b_lp_Chiralities_Consistent>  (217) 
1

>  <s_lp_Variant>  (217) 
62:0-2

>  <s_i_glide_gridfile>  (217) 
pfpi4k_grid

>  <i_i_glide_lignum>  (217) 
19

>  <i_i_glide_rotatable_bonds>  (217) 
0

>  <r_i_docking_score>  (217) 
-5.17161

>  <r_i_glide_ligand_efficiency>  (217) 
-0.574623

>  <r_i_glide_ligand_efficiency_sa>  (217) 
-1.19526

>  <r_i_glide_ligand_efficiency_ln>  (217) 
-1.61753

>  <r_i_glide_gscore>  (217) 
-5.17161

>  <r_i_glide_lipo>  (217) 
-0.495954

>  <r_i_glide_hbond>  (217) 
-0.32

>  <r_i_glide_metal>  (217) 
-0

>  <r_i_glide_rewards>  (217) 
-2.28398

>  <r_i_glide_evdw>  (217) 
-15.1096

>  <r_i_glide_ecoul>  (217) 
-8.29591

>  <r_i_glide_erotb>  (217) 
0

>  <r_i_glide_esite>  (217) 
-0.0718139

>  <r_i_glide_emodel>  (217) 
-30.6846

>  <r_i_glide_energy>  (217) 
-23.4055

>  <r_i_glide_einternal>  (217) 
0

>  <r_i_glide_intrahb_reward>  (217) 
-0

>  <i_i_glide_confnum>  (217) 
1

>  <i_i_glide_posenum>  (217) 
30

>  <r_i_glide_eff_state_penalty>  (217) 
0

>  <ligand_id>  (217) 
62

>  <original_smiles>  (217) 
Cc1cn2[nH]ccc2n1

>  <smiles>  (217) 
[H]c1c([H])n([H])n2c([H])c(C([H])([H])[H])[n+]([H])c12

$$$$
62:1:1
     RDKit          3D

 17 18  0  0  1  0  0  0  0  0999 V2000
    2.7282   -4.1044   -0.6662 C   0  0  0  0  0  0  0  0  0  0  0  0
    2.9582   -3.0770   -1.7237 C   0  0  0  0  0  0  0  0  0  0  0  0
    2.5259   -3.0570   -3.0698 C   0  0  0  0  0  0  0  0  0  0  0  0
    3.0170   -1.9034   -3.5465 N   0  0  0  0  0  0  0  0  0  0  0  0
    3.0039   -1.2537   -4.6800 N   0  0  0  0  0  0  0  0  0  0  0  0
    3.6813   -0.1150   -4.4569 C   0  0  0  0  0  0  0  0  0  0  0  0
    4.2008   -0.0240   -3.1163 C   0  0  0  0  0  0  0  0  0  0  0  0
    3.6803   -1.2519   -2.6243 C   0  0  0  0  0  0  0  0  0  0  0  0
    3.6913   -1.9109   -1.4760 N   0  0  0  0  0  0  0  0  0  0  0  0
    2.4928   -1.4704   -5.5437 H   0  0  0  0  0  0  0  0  0  0  0  0
    2.0954   -4.9148   -1.0336 H   0  0  0  0  0  0  0  0  0  0  0  0
    2.2190   -3.6687    0.1935 H   0  0  0  0  0  0  0  0  0  0  0  0
    3.6780   -4.5256   -0.3295 H   0  0  0  0  0  0  0  0  0  0  0  0
    1.9477   -3.7144   -3.6793 H   0  0  0  0  0  0  0  0  0  0  0  0
    3.7770    0.5994   -5.2661 H   0  0  0  0  0  0  0  0  0  0  0  0
    4.7697    0.7605   -2.7146 H   0  0  0  0  0  0  0  0  0  0  0  0
    4.1238   -1.6083   -0.6085 H   0  0  0  0  0  0  0  0  0  0  0  0
  1  2  1  0
  1 11  1  0
  1 12  1  0
  1 13  1  0
  2  9  1  0
  2  3  2  0
  3  4  1  0
  3 14  1  0
  4  8  1  0
  4  5  1  0
  5 10  1  0
  5  6  1  0
  6  7  2  0
  6 15  1  0
  7  8  1  0
  7 16  1  0
  8  9  2  0
  9 17  1  0
M  CHG  1   9   1
M  END
>  <i_m_ct_stereo_status>  (218) 
1

>  <s_m_source_file>  (218) 
/var/tmp/pbs.5076255.sched01/tmple0dc7g8/88jbw3zpwn.sdf

>  <i_m_source_file_index>  (218) 
19

>  <i_lp_mmshare_version>  (218) 
48012

>  <i_f3d_flags>  (218) 
0

>  <s_epik_input>  (218) 
W0NIM11jKFtjSF0xKW5jKG4xMilbY0hdW2NIXVtuSF0y

>  <s_epik_cmdline>  (218) 
J2VwaWtfcHl0aG9uJywgJy1waHQnLCAnMi4wJywgJy1waCcsICc3LjAnLCAnLXRuJywgJzgnLCAnLW1hJywgJzIwMCcsICctaW1hZScsICc8aW5maWxlLm1hZT4nLCAnLW9tYWUnLCAnPG91dGZpbGUubWFlPic=

>  <r_epik_Ionization_Penalty>  (218) 
1.99928

>  <r_epik_Ionization_Penalty_Charging>  (218) 
0

>  <r_epik_Ionization_Penalty_Neutral>  (218) 
1.99928

>  <r_epik_State_Penalty>  (218) 
2.12792

>  <r_epik_Charging_Adjusted_Penalty>  (218) 
2.12792

>  <i_epik_Tot_Q>  (218) 
1

>  <i_epik_Tot_abs_Q>  (218) 
1

>  <s_lp_Force_Field>  (218) 
OPLS3e

>  <r_lp_Energy>  (218) 
11.1109

>  <b_lp_Chiralities_Consistent>  (218) 
1

>  <s_lp_Variant>  (218) 
62:0-2

>  <s_i_glide_gridfile>  (218) 
pfpi4k_grid

>  <i_i_glide_lignum>  (218) 
19

>  <i_i_glide_rotatable_bonds>  (218) 
0

>  <r_i_docking_score>  (218) 
-5.01684

>  <r_i_glide_ligand_efficiency>  (218) 
-0.557426

>  <r_i_glide_ligand_efficiency_sa>  (218) 
-1.15949

>  <r_i_glide_ligand_efficiency_ln>  (218) 
-1.56912

>  <r_i_glide_gscore>  (218) 
-5.01684

>  <r_i_glide_lipo>  (218) 
-0.509844

>  <r_i_glide_hbond>  (218) 
-0.263545

>  <r_i_glide_metal>  (218) 
-0

>  <r_i_glide_rewards>  (218) 
-2.53618

>  <r_i_glide_evdw>  (218) 
-2.35696

>  <r_i_glide_ecoul>  (218) 
-9.63017

>  <r_i_glide_erotb>  (218) 
0

>  <r_i_glide_esite>  (218) 
-0.144897

>  <r_i_glide_emodel>  (218) 
-18.8485

>  <r_i_glide_energy>  (218) 
-11.9871

>  <r_i_glide_einternal>  (218) 
0

>  <r_i_glide_intrahb_reward>  (218) 
-0

>  <i_i_glide_confnum>  (218) 
2

>  <i_i_glide_posenum>  (218) 
3

>  <r_i_glide_eff_state_penalty>  (218) 
0

>  <ligand_id>  (218) 
62

>  <original_smiles>  (218) 
Cc1cn2[nH]ccc2n1

>  <smiles>  (218) 
[H]c1c([H])n([H])n2c([H])c(C([H])([H])[H])[n+]([H])c12

$$$$
62:1:2
     RDKit          3D

 17 18  0  0  1  0  0  0  0  0999 V2000
   -1.2331    2.2592    2.8439 C   0  0  0  0  0  0  0  0  0  0  0  0
    0.1221    1.6210    2.7839 C   0  0  0  0  0  0  0  0  0  0  0  0
    1.1383    1.5632    3.7573 C   0  0  0  0  0  0  0  0  0  0  0  0
    2.1236    0.8679    3.1522 N   0  0  0  0  0  0  0  0  0  0  0  0
    3.3237    0.4578    3.4652 N   0  0  0  0  0  0  0  0  0  0  0  0
    3.7838   -0.1973    2.3642 C   0  0  0  0  0  0  0  0  0  0  0  0
    2.8283   -0.2143    1.2598 C   0  0  0  0  0  0  0  0  0  0  0  0
    1.7950    0.5175    1.9284 C   0  0  0  0  0  0  0  0  0  0  0  0
    0.5739    0.9455    1.6381 N   0  0  0  0  0  0  0  0  0  0  0  0
    3.8255    0.5955    4.3297 H   0  0  0  0  0  0  0  0  0  0  0  0
   -1.4018    2.7242    3.8191 H   0  0  0  0  0  0  0  0  0  0  0  0
   -2.0166    1.5157    2.6827 H   0  0  0  0  0  0  0  0  0  0  0  0
   -1.3384    3.0324    2.0780 H   0  0  0  0  0  0  0  0  0  0  0  0
    1.2148    1.9477    4.7626 H   0  0  0  0  0  0  0  0  0  0  0  0
    4.7840   -0.6191    2.4162 H   0  0  0  0  0  0  0  0  0  0  0  0
    2.9198   -0.6464    0.2657 H   0  0  0  0  0  0  0  0  0  0  0  0
    0.0936    0.8170    0.7425 H   0  0  0  0  0  0  0  0  0  0  0  0
  1  2  1  0
  1 11  1  0
  1 12  1  0
  1 13  1  0
  2  9  1  0
  2  3  2  0
  3  4  1  0
  3 14  1  0
  4  8  1  0
  4  5  1  0
  5 10  1  0
  5  6  1  0
  6  7  2  0
  6 15  1  0
  7  8  1  0
  7 16  1  0
  8  9  2  0
  9 17  1  0
M  CHG  1   9   1
M  END
>  <i_m_ct_stereo_status>  (219) 
1

>  <s_m_source_file>  (219) 
/var/tmp/pbs.5076255.sched01/tmple0dc7g8/88jbw3zpwn.sdf

>  <i_m_source_file_index>  (219) 
19

>  <i_lp_mmshare_version>  (219) 
48012

>  <i_f3d_flags>  (219) 
0

>  <s_epik_input>  (219) 
W0NIM11jKFtjSF0xKW5jKG4xMilbY0hdW2NIXVtuSF0y

>  <s_epik_cmdline>  (219) 
J2VwaWtfcHl0aG9uJywgJy1waHQnLCAnMi4wJywgJy1waCcsICc3LjAnLCAnLXRuJywgJzgnLCAnLW1hJywgJzIwMCcsICctaW1hZScsICc8aW5maWxlLm1hZT4nLCAnLW9tYWUnLCAnPG91dGZpbGUubWFlPic=

>  <r_epik_Ionization_Penalty>  (219) 
1.99928

>  <r_epik_Ionization_Penalty_Charging>  (219) 
0

>  <r_epik_Ionization_Penalty_Neutral>  (219) 
1.99928

>  <r_epik_State_Penalty>  (219) 
2.12792

>  <r_epik_Charging_Adjusted_Penalty>  (219) 
2.12792

>  <i_epik_Tot_Q>  (219) 
1

>  <i_epik_Tot_abs_Q>  (219) 
1

>  <s_lp_Force_Field>  (219) 
OPLS3e

>  <r_lp_Energy>  (219) 
11.1109

>  <b_lp_Chiralities_Consistent>  (219) 
1

>  <s_lp_Variant>  (219) 
62:0-2

>  <s_i_glide_gridfile>  (219) 
pfpi4k_grid

>  <i_i_glide_lignum>  (219) 
19

>  <i_i_glide_rotatable_bonds>  (219) 
0

>  <r_i_docking_score>  (219) 
-3.59069

>  <r_i_glide_ligand_efficiency>  (219) 
-0.398966

>  <r_i_glide_ligand_efficiency_sa>  (219) 
-0.829882

>  <r_i_glide_ligand_efficiency_ln>  (219) 
-1.12307

>  <r_i_glide_gscore>  (219) 
-3.59069

>  <r_i_glide_lipo>  (219) 
-0.027503

>  <r_i_glide_hbond>  (219) 
-0.211427

>  <r_i_glide_metal>  (219) 
-0

>  <r_i_glide_rewards>  (219) 
-2.25

>  <r_i_glide_evdw>  (219) 
-9.07451

>  <r_i_glide_ecoul>  (219) 
-3.37707

>  <r_i_glide_erotb>  (219) 
0

>  <r_i_glide_esite>  (219) 
-0.141476

>  <r_i_glide_emodel>  (219) 
-17.5107

>  <r_i_glide_energy>  (219) 
-12.4516

>  <r_i_glide_einternal>  (219) 
0

>  <r_i_glide_intrahb_reward>  (219) 
-0

>  <i_i_glide_confnum>  (219) 
2

>  <i_i_glide_posenum>  (219) 
2

>  <r_i_glide_eff_state_penalty>  (219) 
0

>  <ligand_id>  (219) 
62

>  <original_smiles>  (219) 
Cc1cn2[nH]ccc2n1

>  <smiles>  (219) 
[H]c1c([H])n([H])n2c([H])c(C([H])([H])[H])[n+]([H])c12

$$$$
63:0:0
     RDKit          3D

 62 66  0  0  1  0  0  0  0  0999 V2000
    5.7506    0.2895    4.3366 C   0  0  0  0  0  0  0  0  0  0  0  0
    5.0018   -0.6609    3.5984 O   0  0  0  0  0  0  0  0  0  0  0  0
    4.1636   -0.0940    2.6473 C   0  0  2  0  0  0  0  0  0  0  0  0
    3.1976    0.7061    3.2445 O   0  0  0  0  0  0  0  0  0  0  0  0
    2.0128   -0.0106    3.4458 C   0  0  1  0  0  0  0  0  0  0  0  0
    0.8815    0.6399    2.9259 O   0  0  0  0  0  0  0  0  0  0  0  0
    1.0101    1.2711    1.6572 C   0  0  0  0  0  0  0  0  0  0  0  0
    2.1548   -1.4335    2.8141 C   0  0  1  0  0  0  0  0  0  0  0  0
    3.3723   -1.1639    1.9118 C   0  0  2  0  0  0  0  0  0  0  0  0
    4.1085   -2.2415    1.0681 C   0  0  2  0  0  0  0  0  0  0  0  0
    5.3447   -2.8421    1.7868 C   0  0  0  0  0  0  0  0  0  0  0  0
    4.6199   -1.5452   -0.2392 C   0  0  0  0  0  0  0  0  0  0  0  0
    5.1744   -2.5161   -1.2796 C   0  0  0  0  0  0  0  0  0  0  0  0
    4.1668   -3.5855   -1.6297 C   0  0  2  0  0  0  0  0  0  0  0  0
    2.7347   -3.2285   -1.8992 C   0  0  0  0  0  0  0  0  0  0  0  0
    3.0995   -3.9789   -0.6351 C   0  0  2  0  0  0  0  0  0  0  0  0
    3.0300   -3.3262    0.7688 C   0  0  1  0  0  0  0  0  0  0  0  0
    2.9252   -4.3349    1.9316 C   0  0  0  0  0  0  0  0  0  0  0  0
    3.4503   -5.7304    1.5961 C   0  0  0  0  0  0  0  0  0  0  0  0
    2.4822   -4.0519    3.2025 C   0  0  0  0  0  0  0  0  0  0  0  0
    2.3415   -5.1976    4.2160 C   0  0  0  0  0  0  0  0  0  0  0  0
    0.9143   -5.2622    4.7399 C   0  0  0  0  0  0  0  0  0  0  0  0
    0.2461   -6.2854    4.7135 O   0  0  0  0  0  0  0  0  0  0  0  0
    0.3657   -3.9650    5.3063 C   0  0  0  0  0  0  0  0  0  0  0  0
    0.6276   -2.8031    4.3347 C   0  0  1  0  0  0  0  0  0  0  0  0
    0.1200   -1.6657    4.9981 O   0  0  0  0  0  0  0  0  0  0  0  0
    2.1124   -2.6561    3.8216 C   0  0  2  0  0  0  0  0  0  0  0  0
    3.0800   -2.4413    5.0252 C   0  0  0  0  0  0  0  0  0  0  0  0
    6.3687   -0.2368    5.0651 H   0  0  0  0  0  0  0  0  0  0  0  0
    5.1119    0.9886    4.8843 H   0  0  0  0  0  0  0  0  0  0  0  0
    6.4101    0.8599    3.6814 H   0  0  0  0  0  0  0  0  0  0  0  0
    4.7434    0.5272    1.9538 H   0  0  0  0  0  0  0  0  0  0  0  0
    1.8623   -0.0184    4.5173 H   0  0  0  0  0  0  0  0  0  0  0  0
    0.0889    1.7698    1.3600 H   0  0  0  0  0  0  0  0  0  0  0  0
    1.2434    0.5516    0.8747 H   0  0  0  0  0  0  0  0  0  0  0  0
    1.7929    2.0243    1.6585 H   0  0  0  0  0  0  0  0  0  0  0  0
    1.2912   -1.5603    2.1637 H   0  0  0  0  0  0  0  0  0  0  0  0
    2.8902   -0.5760    1.1320 H   0  0  0  0  0  0  0  0  0  0  0  0
    5.7175   -3.7211    1.2615 H   0  0  0  0  0  0  0  0  0  0  0  0
    5.1271   -3.1488    2.8100 H   0  0  0  0  0  0  0  0  0  0  0  0
    6.1599   -2.1237    1.8395 H   0  0  0  0  0  0  0  0  0  0  0  0
    3.8272   -0.9710   -0.7157 H   0  0  0  0  0  0  0  0  0  0  0  0
    5.3863   -0.8120    0.0065 H   0  0  0  0  0  0  0  0  0  0  0  0
    5.4484   -1.9858   -2.1934 H   0  0  0  0  0  0  0  0  0  0  0  0
    6.0756   -3.0047   -0.9131 H   0  0  0  0  0  0  0  0  0  0  0  0
    4.5879   -4.3877   -2.2277 H   0  0  0  0  0  0  0  0  0  0  0  0
    2.4174   -2.1978   -1.8389 H   0  0  0  0  0  0  0  0  0  0  0  0
    2.2391   -3.8101   -2.6850 H   0  0  0  0  0  0  0  0  0  0  0  0
    2.6945   -4.9789   -0.6857 H   0  0  0  0  0  0  0  0  0  0  0  0
    2.0555   -2.8521    0.7124 H   0  0  0  0  0  0  0  0  0  0  0  0
    4.2039   -5.7061    0.8063 H   0  0  0  0  0  0  0  0  0  0  0  0
    2.6408   -6.3989    1.2938 H   0  0  0  0  0  0  0  0  0  0  0  0
    3.9894   -6.1727    2.4297 H   0  0  0  0  0  0  0  0  0  0  0  0
    2.5267   -6.1868    3.7958 H   0  0  0  0  0  0  0  0  0  0  0  0
    3.0443   -5.0868    5.0432 H   0  0  0  0  0  0  0  0  0  0  0  0
   -0.7011   -4.0827    5.4932 H   0  0  0  0  0  0  0  0  0  0  0  0
    0.8262   -3.7879    6.2778 H   0  0  0  0  0  0  0  0  0  0  0  0
   -0.0076   -2.9540    3.4643 H   0  0  0  0  0  0  0  0  0  0  0  0
    0.1704   -0.9202    4.4074 H   0  0  0  0  0  0  0  0  0  0  0  0
    3.0599   -1.4396    5.4522 H   0  0  0  0  0  0  0  0  0  0  0  0
    4.1117   -2.6411    4.7415 H   0  0  0  0  0  0  0  0  0  0  0  0
    2.8746   -3.1039    5.8627 H   0  0  0  0  0  0  0  0  0  0  0  0
  1  2  1  0
  1 29  1  0
  1 30  1  0
  1 31  1  0
  2  3  1  0
  3  9  1  0
  3  4  1  0
  3 32  1  6
  4  5  1  0
  5  6  1  0
  5  8  1  0
  5 33  1  1
  6  7  1  0
  7 34  1  0
  7 35  1  0
  7 36  1  0
  8 27  1  0
  8  9  1  0
  8 37  1  6
  9 10  1  0
  9 38  1  6
 10 17  1  0
 10 11  1  1
 10 12  1  0
 11 39  1  0
 11 40  1  0
 11 41  1  0
 12 13  1  0
 12 42  1  0
 12 43  1  0
 13 14  1  0
 13 44  1  0
 13 45  1  0
 14 16  1  0
 14 15  1  0
 14 46  1  6
 15 16  1  0
 15 47  1  0
 15 48  1  0
 16 17  1  0
 16 49  1  1
 17 18  1  0
 17 50  1  6
 18 19  1  0
 18 20  2  0
 19 51  1  0
 19 52  1  0
 19 53  1  0
 20 27  1  0
 20 21  1  0
 21 22  1  0
 21 54  1  0
 21 55  1  0
 22 23  2  0
 22 24  1  0
 24 25  1  0
 24 56  1  0
 24 57  1  0
 25 26  1  0
 25 27  1  0
 25 58  1  6
 26 59  1  0
 27 28  1  1
 28 60  1  0
 28 61  1  0
 28 62  1  0
M  END
>  <i_m_ct_stereo_status>  (220) 
1

>  <s_m_source_file>  (220) 
/var/tmp/pbs.5076255.sched01/tmple0dc7g8/88jbw3zpwn.sdf

>  <i_m_source_file_index>  (220) 
20

>  <i_lp_mmshare_version>  (220) 
48012

>  <i_f3d_flags>  (220) 
0

>  <s_epik_input>  (220) 
W0NIM11PW0NAQEhdMU9bQ0BASF0oT1tDSDNdKVtDQEBIXShbQ0BASF0xW0NAXTIzW0NIM10pW0NAXTQoW0NIM10pQyhbQ0gyXUMoPU8pW0NIMl1bQ0BIXTRbT0hdKT1DKFtDSDNdKVtDQEBIXTNbQ0BASF01W0NAQEhdKFtDSDJdNSlbQ0gyXVtDSDJdMg==

>  <s_epik_cmdline>  (220) 
J2VwaWtfcHl0aG9uJywgJy1waHQnLCAnMi4wJywgJy1waCcsICc3LjAnLCAnLXRuJywgJzgnLCAnLW1hJywgJzIwMCcsICctaW1hZScsICc8aW5maWxlLm1hZT4nLCAnLW9tYWUnLCAnPG91dGZpbGUubWFlPic=

>  <r_lp_tautomer_probability>  (220) 
1

>  <r_epik_Ionization_Penalty>  (220) 
8.09399e-08

>  <r_epik_Ionization_Penalty_Charging>  (220) 
0

>  <r_epik_Ionization_Penalty_Neutral>  (220) 
8.09399e-08

>  <r_epik_State_Penalty>  (220) 
-0

>  <r_epik_Charging_Adjusted_Penalty>  (220) 
0

>  <i_epik_Tot_Q>  (220) 
0

>  <i_epik_Tot_abs_Q>  (220) 
0

>  <s_epik_Chemistry_Notes>  (220) 
This compound contains an acetal/aminal-like group ( X-CH(R)-Y where X, Y are N, S, or O) that may be acid/base labile, releasing an aldehyde.

>  <s_lp_Force_Field>  (220) 
OPLS3e

>  <r_lp_Energy>  (220) 
70.3874

>  <b_lp_Chiralities_Consistent>  (220) 
1

>  <s_lp_Variant>  (220) 
63:0-1

>  <s_i_glide_gridfile>  (220) 
pfpi4k_grid

>  <i_i_glide_lignum>  (220) 
20

>  <i_i_glide_rotatable_bonds>  (220) 
3

>  <r_i_docking_score>  (220) 
-2.56296

>  <r_i_glide_ligand_efficiency>  (220) 
-0.0915344

>  <r_i_glide_ligand_efficiency_sa>  (220) 
-0.277952

>  <r_i_glide_ligand_efficiency_ln>  (220) 
-0.591607

>  <r_i_glide_gscore>  (220) 
-2.56296

>  <r_i_glide_lipo>  (220) 
-0.294939

>  <r_i_glide_hbond>  (220) 
0

>  <r_i_glide_metal>  (220) 
-0

>  <r_i_glide_rewards>  (220) 
-0.787236

>  <r_i_glide_evdw>  (220) 
-21.8943

>  <r_i_glide_ecoul>  (220) 
-2.51679

>  <r_i_glide_erotb>  (220) 
0

>  <r_i_glide_esite>  (220) 
-0.00855565

>  <r_i_glide_emodel>  (220) 
-26.1221

>  <r_i_glide_energy>  (220) 
-24.4111

>  <r_i_glide_einternal>  (220) 
3.67135

>  <r_i_glide_intrahb_reward>  (220) 
-0

>  <i_i_glide_confnum>  (220) 
1

>  <i_i_glide_posenum>  (220) 
28

>  <r_i_glide_eff_state_penalty>  (220) 
0

>  <ligand_id>  (220) 
63

>  <original_smiles>  (220) 
COC1OC(OC)C2C1C1(C)CCC3CC3C1C(C)=C1CC(=O)CC(O)C12C

>  <smiles>  (220) 
[H]OC1([H])C([H])([H])C(=O)C([H])([H])C2=C(C([H])([H])[H])C3([H])C4([H])C([H])([H])C4([H])C([H])([H])C([H])([H])C3(C([H])([H])[H])C3([H])C([H])(OC([H])([H])[H])OC([H])(OC([H])([H])[H])C3([H])C21C([H])([H])[H]

$$$$
63:0:1
     RDKit          3D

 62 66  0  0  1  0  0  0  0  0999 V2000
    8.0401   -2.1382    0.7075 C   0  0  0  0  0  0  0  0  0  0  0  0
    6.8380   -1.9874    1.4390 O   0  0  0  0  0  0  0  0  0  0  0  0
    5.9755   -1.0162    0.9862 C   0  0  2  0  0  0  0  0  0  0  0  0
    5.6541   -0.0861    1.9751 O   0  0  0  0  0  0  0  0  0  0  0  0
    4.4690   -0.4286    2.6687 C   0  0  1  0  0  0  0  0  0  0  0  0
    3.5023    0.5988    2.6531 O   0  0  0  0  0  0  0  0  0  0  0  0
    3.0458    1.0329    1.3841 C   0  0  0  0  0  0  0  0  0  0  0  0
    3.8848   -1.7011    2.0015 C   0  0  1  0  0  0  0  0  0  0  0  0
    4.6407   -1.6499    0.6653 C   0  0  2  0  0  0  0  0  0  0  0  0
    4.5543   -2.7722   -0.4047 C   0  0  2  0  0  0  0  0  0  0  0  0
    5.6400   -3.8903   -0.3348 C   0  0  0  0  0  0  0  0  0  0  0  0
    4.7561   -2.0640   -1.7815 C   0  0  0  0  0  0  0  0  0  0  0  0
    4.4992   -2.9613   -2.9834 C   0  0  0  0  0  0  0  0  0  0  0  0
    3.1159   -3.5621   -2.9194 C   0  0  2  0  0  0  0  0  0  0  0  0
    1.9225   -2.7615   -2.5237 C   0  0  0  0  0  0  0  0  0  0  0  0
    2.4548   -3.7941   -1.5503 C   0  0  2  0  0  0  0  0  0  0  0  0
    3.1310   -3.3701   -0.2268 C   0  0  1  0  0  0  0  0  0  0  0  0
    3.1269   -4.4694    0.8665 C   0  0  0  0  0  0  0  0  0  0  0  0
    2.9787   -5.9076    0.3344 C   0  0  0  0  0  0  0  0  0  0  0  0
    3.3761   -4.2834    2.1898 C   0  0  0  0  0  0  0  0  0  0  0  0
    3.2454   -5.4773    3.1607 C   0  0  0  0  0  0  0  0  0  0  0  0
    2.2101   -5.1781    4.2333 C   0  0  0  0  0  0  0  0  0  0  0  0
    1.2642   -5.9311    4.4694 O   0  0  0  0  0  0  0  0  0  0  0  0
    2.4079   -3.8759    4.9881 C   0  0  0  0  0  0  0  0  0  0  0  0
    2.6784   -2.7234    4.0117 C   0  0  1  0  0  0  0  0  0  0  0  0
    2.8994   -1.6051    4.8539 O   0  0  0  0  0  0  0  0  0  0  0  0
    3.8084   -2.9756    2.9347 C   0  0  2  0  0  0  0  0  0  0  0  0
    5.1764   -3.2699    3.6257 C   0  0  0  0  0  0  0  0  0  0  0  0
    8.5779   -2.9612    1.1806 H   0  0  0  0  0  0  0  0  0  0  0  0
    8.6582   -1.2597    0.7877 H   0  0  0  0  0  0  0  0  0  0  0  0
    7.8725   -2.3775   -0.2741 H   0  0  0  0  0  0  0  0  0  0  0  0
    6.3903   -0.4656    0.1602 H   0  0  0  0  0  0  0  0  0  0  0  0
    4.7695   -0.5223    3.7178 H   0  0  0  0  0  0  0  0  0  0  0  0
    2.3711    1.8900    1.4883 H   0  0  0  0  0  0  0  0  0  0  0  0
    2.5003    0.2596    0.8471 H   0  0  0  0  0  0  0  0  0  0  0  0
    3.8953    1.3427    0.7893 H   0  0  0  0  0  0  0  0  0  0  0  0
    2.8311   -1.4775    1.8195 H   0  0  0  0  0  0  0  0  0  0  0  0
    4.1192   -0.8223    0.1746 H   0  0  0  0  0  0  0  0  0  0  0  0
    5.3071   -4.7817   -0.8620 H   0  0  0  0  0  0  0  0  0  0  0  0
    5.8040   -4.2239    0.6994 H   0  0  0  0  0  0  0  0  0  0  0  0
    6.5416   -3.6200   -0.7432 H   0  0  0  0  0  0  0  0  0  0  0  0
    4.1052   -1.1932   -1.8916 H   0  0  0  0  0  0  0  0  0  0  0  0
    5.7631   -1.6625   -1.8644 H   0  0  0  0  0  0  0  0  0  0  0  0
    4.5761   -2.4055   -3.9162 H   0  0  0  0  0  0  0  0  0  0  0  0
    5.2143   -3.7713   -3.0296 H   0  0  0  0  0  0  0  0  0  0  0  0
    2.9067   -4.2594   -3.7492 H   0  0  0  0  0  0  0  0  0  0  0  0
    2.0608   -1.7055   -2.3274 H   0  0  0  0  0  0  0  0  0  0  0  0
    1.0341   -3.0279   -3.0894 H   0  0  0  0  0  0  0  0  0  0  0  0
    1.7085   -4.6095   -1.4611 H   0  0  0  0  0  0  0  0  0  0  0  0
    2.4344   -2.6179    0.1114 H   0  0  0  0  0  0  0  0  0  0  0  0
    3.3735   -5.9728   -0.6786 H   0  0  0  0  0  0  0  0  0  0  0  0
    1.9456   -6.2358    0.3597 H   0  0  0  0  0  0  0  0  0  0  0  0
    3.6133   -6.6108    0.8582 H   0  0  0  0  0  0  0  0  0  0  0  0
    2.8924   -6.3839    2.6913 H   0  0  0  0  0  0  0  0  0  0  0  0
    4.2022   -5.7214    3.6150 H   0  0  0  0  0  0  0  0  0  0  0  0
    1.5221   -3.6748    5.5910 H   0  0  0  0  0  0  0  0  0  0  0  0
    3.2408   -4.0098    5.6824 H   0  0  0  0  0  0  0  0  0  0  0  0
    1.7471   -2.5218    3.4862 H   0  0  0  0  0  0  0  0  0  0  0  0
    2.1242   -1.4496    5.3640 H   0  0  0  0  0  0  0  0  0  0  0  0
    5.6758   -2.3866    4.0268 H   0  0  0  0  0  0  0  0  0  0  0  0
    5.8716   -3.7408    2.9250 H   0  0  0  0  0  0  0  0  0  0  0  0
    5.0893   -3.9586    4.4728 H   0  0  0  0  0  0  0  0  0  0  0  0
  1  2  1  0
  1 29  1  0
  1 30  1  0
  1 31  1  0
  2  3  1  0
  3  9  1  0
  3  4  1  0
  3 32  1  6
  4  5  1  0
  5  6  1  0
  5  8  1  0
  5 33  1  1
  6  7  1  0
  7 34  1  0
  7 35  1  0
  7 36  1  0
  8 27  1  0
  8  9  1  0
  8 37  1  6
  9 10  1  0
  9 38  1  6
 10 17  1  0
 10 11  1  1
 10 12  1  0
 11 39  1  0
 11 40  1  0
 11 41  1  0
 12 13  1  0
 12 42  1  0
 12 43  1  0
 13 14  1  0
 13 44  1  0
 13 45  1  0
 14 16  1  0
 14 15  1  0
 14 46  1  6
 15 16  1  0
 15 47  1  0
 15 48  1  0
 16 17  1  0
 16 49  1  1
 17 18  1  0
 17 50  1  1
 18 19  1  0
 18 20  2  0
 19 51  1  0
 19 52  1  0
 19 53  1  0
 20 27  1  0
 20 21  1  0
 21 22  1  0
 21 54  1  0
 21 55  1  0
 22 23  2  0
 22 24  1  0
 24 25  1  0
 24 56  1  0
 24 57  1  0
 25 26  1  0
 25 27  1  0
 25 58  1  6
 26 59  1  0
 27 28  1  1
 28 60  1  0
 28 61  1  0
 28 62  1  0
M  END
>  <i_m_ct_stereo_status>  (221) 
1

>  <s_m_source_file>  (221) 
/var/tmp/pbs.5076255.sched01/tmple0dc7g8/88jbw3zpwn.sdf

>  <i_m_source_file_index>  (221) 
20

>  <i_lp_mmshare_version>  (221) 
48012

>  <i_f3d_flags>  (221) 
0

>  <s_epik_input>  (221) 
W0NIM11PW0NAQEhdMU9bQ0BASF0oT1tDSDNdKVtDQEBIXShbQ0BASF0xW0NAXTIzW0NIM10pW0NAXTQoW0NIM10pQyhbQ0gyXUMoPU8pW0NIMl1bQ0BIXTRbT0hdKT1DKFtDSDNdKVtDQEBIXTNbQ0BASF01W0NAQEhdKFtDSDJdNSlbQ0gyXVtDSDJdMg==

>  <s_epik_cmdline>  (221) 
J2VwaWtfcHl0aG9uJywgJy1waHQnLCAnMi4wJywgJy1waCcsICc3LjAnLCAnLXRuJywgJzgnLCAnLW1hJywgJzIwMCcsICctaW1hZScsICc8aW5maWxlLm1hZT4nLCAnLW9tYWUnLCAnPG91dGZpbGUubWFlPic=

>  <r_lp_tautomer_probability>  (221) 
1

>  <r_epik_Ionization_Penalty>  (221) 
8.09399e-08

>  <r_epik_Ionization_Penalty_Charging>  (221) 
0

>  <r_epik_Ionization_Penalty_Neutral>  (221) 
8.09399e-08

>  <r_epik_State_Penalty>  (221) 
-0

>  <r_epik_Charging_Adjusted_Penalty>  (221) 
0

>  <i_epik_Tot_Q>  (221) 
0

>  <i_epik_Tot_abs_Q>  (221) 
0

>  <s_epik_Chemistry_Notes>  (221) 
This compound contains an acetal/aminal-like group ( X-CH(R)-Y where X, Y are N, S, or O) that may be acid/base labile, releasing an aldehyde.

>  <s_lp_Force_Field>  (221) 
OPLS3e

>  <r_lp_Energy>  (221) 
70.3874

>  <b_lp_Chiralities_Consistent>  (221) 
1

>  <s_lp_Variant>  (221) 
63:0-1

>  <s_i_glide_gridfile>  (221) 
pfpi4k_grid

>  <i_i_glide_lignum>  (221) 
20

>  <i_i_glide_rotatable_bonds>  (221) 
3

>  <r_i_docking_score>  (221) 
-2.49739

>  <r_i_glide_ligand_efficiency>  (221) 
-0.0891925

>  <r_i_glide_ligand_efficiency_sa>  (221) 
-0.270841

>  <r_i_glide_ligand_efficiency_ln>  (221) 
-0.576471

>  <r_i_glide_gscore>  (221) 
-2.49739

>  <r_i_glide_lipo>  (221) 
-0.469157

>  <r_i_glide_hbond>  (221) 
-0.286859

>  <r_i_glide_metal>  (221) 
-0

>  <r_i_glide_rewards>  (221) 
-1.0295

>  <r_i_glide_evdw>  (221) 
-11.1064

>  <r_i_glide_ecoul>  (221) 
-1.04371

>  <r_i_glide_erotb>  (221) 
0

>  <r_i_glide_esite>  (221) 
0

>  <r_i_glide_emodel>  (221) 
-8.026

>  <r_i_glide_energy>  (221) 
-12.1502

>  <r_i_glide_einternal>  (221) 
9.48215

>  <r_i_glide_intrahb_reward>  (221) 
-0

>  <i_i_glide_confnum>  (221) 
2

>  <i_i_glide_posenum>  (221) 
2

>  <r_i_glide_eff_state_penalty>  (221) 
0

>  <ligand_id>  (221) 
63

>  <original_smiles>  (221) 
COC1OC(OC)C2C1C1(C)CCC3CC3C1C(C)=C1CC(=O)CC(O)C12C

>  <smiles>  (221) 
[H]OC1([H])C([H])([H])C(=O)C([H])([H])C2=C(C([H])([H])[H])C3([H])C4([H])C([H])([H])C4([H])C([H])([H])C([H])([H])C3(C([H])([H])[H])C3([H])C([H])(OC([H])([H])[H])OC([H])(OC([H])([H])[H])C3([H])C21C([H])([H])[H]

$$$$
63:0:2
     RDKit          3D

 62 66  0  0  1  0  0  0  0  0999 V2000
    6.1344   -0.2075    2.6692 C   0  0  0  0  0  0  0  0  0  0  0  0
    4.8548   -0.7707    2.7205 O   0  0  0  0  0  0  0  0  0  0  0  0
    3.9554   -0.0888    1.9110 C   0  0  2  0  0  0  0  0  0  0  0  0
    3.1291    0.7019    2.6873 O   0  0  0  0  0  0  0  0  0  0  0  0
    2.0041   -0.0298    3.0981 C   0  0  1  0  0  0  0  0  0  0  0  0
    0.8241    0.6123    2.7253 O   0  0  0  0  0  0  0  0  0  0  0  0
    0.6818    1.9369    3.2094 C   0  0  0  0  0  0  0  0  0  0  0  0
    2.0123   -1.4049    2.3647 C   0  0  1  0  0  0  0  0  0  0  0  0
    3.0327   -1.0791    1.2573 C   0  0  2  0  0  0  0  0  0  0  0  0
    3.6678   -2.1236    0.2793 C   0  0  2  0  0  0  0  0  0  0  0  0
    4.9703   -2.7922    0.7565 C   0  0  0  0  0  0  0  0  0  0  0  0
    3.9857   -1.3724   -1.0568 C   0  0  0  0  0  0  0  0  0  0  0  0
    4.3768   -2.3044   -2.2172 C   0  0  0  0  0  0  0  0  0  0  0  0
    3.3500   -3.3759   -2.4342 C   0  0  2  0  0  0  0  0  0  0  0  0
    1.9409   -2.9440   -2.4603 C   0  0  0  0  0  0  0  0  0  0  0  0
    2.4013   -3.7743   -1.2987 C   0  0  2  0  0  0  0  0  0  0  0  0
    2.5726   -3.1900    0.1109 C   0  0  1  0  0  0  0  0  0  0  0  0
    2.6435   -4.2682    1.2146 C   0  0  0  0  0  0  0  0  0  0  0  0
    3.0492   -5.6554    0.7006 C   0  0  0  0  0  0  0  0  0  0  0  0
    2.3792   -4.0517    2.5332 C   0  0  0  0  0  0  0  0  0  0  0  0
    2.3556   -5.2612    3.4952 C   0  0  0  0  0  0  0  0  0  0  0  0
    1.0192   -5.3257    4.2175 C   0  0  0  0  0  0  0  0  0  0  0  0
    0.3241   -6.3334    4.2145 O   0  0  0  0  0  0  0  0  0  0  0  0
    0.5845   -4.0653    4.9411 C   0  0  0  0  0  0  0  0  0  0  0  0
    0.7271   -2.8545    4.0240 C   0  0  1  0  0  0  0  0  0  0  0  0
    0.3620   -1.7375    4.8143 O   0  0  0  0  0  0  0  0  0  0  0  0
    2.1134   -2.6942    3.2842 C   0  0  2  0  0  0  0  0  0  0  0  0
    3.2501   -2.5539    4.3242 C   0  0  0  0  0  0  0  0  0  0  0  0
    6.8714   -0.6629    3.2901 H   0  0  0  0  0  0  0  0  0  0  0  0
    6.1351    0.8174    3.0006 H   0  0  0  0  0  0  0  0  0  0  0  0
    6.4939   -0.3264    1.6628 H   0  0  0  0  0  0  0  0  0  0  0  0
    4.4136    0.5438    1.1452 H   0  0  0  0  0  0  0  0  0  0  0  0
    2.0458   -0.0646    4.1883 H   0  0  0  0  0  0  0  0  0  0  0  0
   -0.2770    2.3488    2.8857 H   0  0  0  0  0  0  0  0  0  0  0  0
    1.4552    2.5977    2.8145 H   0  0  0  0  0  0  0  0  0  0  0  0
    0.7084    1.9700    4.3001 H   0  0  0  0  0  0  0  0  0  0  0  0
    1.0501   -1.4756    1.8572 H   0  0  0  0  0  0  0  0  0  0  0  0
    2.4312   -0.4437    0.6226 H   0  0  0  0  0  0  0  0  0  0  0  0
    5.2194   -3.6443    0.1338 H   0  0  0  0  0  0  0  0  0  0  0  0
    4.9110   -3.1418    1.7893 H   0  0  0  0  0  0  0  0  0  0  0  0
    5.8138   -2.1016    0.6831 H   0  0  0  0  0  0  0  0  0  0  0  0
    3.1379   -0.7623   -1.3667 H   0  0  0  0  0  0  0  0  0  0  0  0
    4.7908   -0.6612   -0.9037 H   0  0  0  0  0  0  0  0  0  0  0  0
    4.4895   -1.7334   -3.1486 H   0  0  0  0  0  0  0  0  0  0  0  0
    5.3179   -2.8078   -2.0218 H   0  0  0  0  0  0  0  0  0  0  0  0
    3.6095   -4.0814   -3.2145 H   0  0  0  0  0  0  0  0  0  0  0  0
    1.7821   -1.8934   -2.3727 H   0  0  0  0  0  0  0  0  0  0  0  0
    1.3760   -3.4364   -3.2339 H   0  0  0  0  0  0  0  0  0  0  0  0
    1.7582   -4.6472   -1.3140 H   0  0  0  0  0  0  0  0  0  0  0  0
    1.6320   -2.6964    0.2430 H   0  0  0  0  0  0  0  0  0  0  0  0
    3.6590   -5.6013   -0.2078 H   0  0  0  0  0  0  0  0  0  0  0  0
    2.1720   -6.2661    0.4945 H   0  0  0  0  0  0  0  0  0  0  0  0
    3.6958   -6.1601    1.4032 H   0  0  0  0  0  0  0  0  0  0  0  0
    2.4543   -6.2177    2.9897 H   0  0  0  0  0  0  0  0  0  0  0  0
    3.1767   -5.2060    4.2095 H   0  0  0  0  0  0  0  0  0  0  0  0
   -0.4518   -4.1824    5.2659 H   0  0  0  0  0  0  0  0  0  0  0  0
    1.1823   -3.9564    5.8489 H   0  0  0  0  0  0  0  0  0  0  0  0
   -0.0599   -2.9328    3.2787 H   0  0  0  0  0  0  0  0  0  0  0  0
    0.2960   -0.9823    4.2402 H   0  0  0  0  0  0  0  0  0  0  0  0
    3.3143   -1.5741    4.7968 H   0  0  0  0  0  0  0  0  0  0  0  0
    4.2208   -2.7514    3.8689 H   0  0  0  0  0  0  0  0  0  0  0  0
    3.1611   -3.2648    5.1403 H   0  0  0  0  0  0  0  0  0  0  0  0
  1  2  1  0
  1 29  1  0
  1 30  1  0
  1 31  1  0
  2  3  1  0
  3  9  1  0
  3  4  1  0
  3 32  1  6
  4  5  1  0
  5  6  1  0
  5  8  1  0
  5 33  1  1
  6  7  1  0
  7 34  1  0
  7 35  1  0
  7 36  1  0
  8 27  1  0
  8  9  1  0
  8 37  1  6
  9 10  1  0
  9 38  1  6
 10 17  1  0
 10 11  1  1
 10 12  1  0
 11 39  1  0
 11 40  1  0
 11 41  1  0
 12 13  1  0
 12 42  1  0
 12 43  1  0
 13 14  1  0
 13 44  1  0
 13 45  1  0
 14 16  1  0
 14 15  1  0
 14 46  1  6
 15 16  1  0
 15 47  1  0
 15 48  1  0
 16 17  1  0
 16 49  1  1
 17 18  1  0
 17 50  1  1
 18 19  1  0
 18 20  2  0
 19 51  1  0
 19 52  1  0
 19 53  1  0
 20 27  1  0
 20 21  1  0
 21 22  1  0
 21 54  1  0
 21 55  1  0
 22 23  2  0
 22 24  1  0
 24 25  1  0
 24 56  1  0
 24 57  1  0
 25 26  1  0
 25 27  1  0
 25 58  1  6
 26 59  1  0
 27 28  1  1
 28 60  1  0
 28 61  1  0
 28 62  1  0
M  END
>  <i_m_ct_stereo_status>  (222) 
1

>  <s_m_source_file>  (222) 
/var/tmp/pbs.5076255.sched01/tmple0dc7g8/88jbw3zpwn.sdf

>  <i_m_source_file_index>  (222) 
20

>  <i_lp_mmshare_version>  (222) 
48012

>  <i_f3d_flags>  (222) 
0

>  <s_epik_input>  (222) 
W0NIM11PW0NAQEhdMU9bQ0BASF0oT1tDSDNdKVtDQEBIXShbQ0BASF0xW0NAXTIzW0NIM10pW0NAXTQoW0NIM10pQyhbQ0gyXUMoPU8pW0NIMl1bQ0BIXTRbT0hdKT1DKFtDSDNdKVtDQEBIXTNbQ0BASF01W0NAQEhdKFtDSDJdNSlbQ0gyXVtDSDJdMg==

>  <s_epik_cmdline>  (222) 
J2VwaWtfcHl0aG9uJywgJy1waHQnLCAnMi4wJywgJy1waCcsICc3LjAnLCAnLXRuJywgJzgnLCAnLW1hJywgJzIwMCcsICctaW1hZScsICc8aW5maWxlLm1hZT4nLCAnLW9tYWUnLCAnPG91dGZpbGUubWFlPic=

>  <r_lp_tautomer_probability>  (222) 
1

>  <r_epik_Ionization_Penalty>  (222) 
8.09399e-08

>  <r_epik_Ionization_Penalty_Charging>  (222) 
0

>  <r_epik_Ionization_Penalty_Neutral>  (222) 
8.09399e-08

>  <r_epik_State_Penalty>  (222) 
-0

>  <r_epik_Charging_Adjusted_Penalty>  (222) 
0

>  <i_epik_Tot_Q>  (222) 
0

>  <i_epik_Tot_abs_Q>  (222) 
0

>  <s_epik_Chemistry_Notes>  (222) 
This compound contains an acetal/aminal-like group ( X-CH(R)-Y where X, Y are N, S, or O) that may be acid/base labile, releasing an aldehyde.

>  <s_lp_Force_Field>  (222) 
OPLS3e

>  <r_lp_Energy>  (222) 
70.3874

>  <b_lp_Chiralities_Consistent>  (222) 
1

>  <s_lp_Variant>  (222) 
63:0-1

>  <s_i_glide_gridfile>  (222) 
pfpi4k_grid

>  <i_i_glide_lignum>  (222) 
20

>  <i_i_glide_rotatable_bonds>  (222) 
3

>  <r_i_docking_score>  (222) 
-2.11825

>  <r_i_glide_ligand_efficiency>  (222) 
-0.075652

>  <r_i_glide_ligand_efficiency_sa>  (222) 
-0.229724

>  <r_i_glide_ligand_efficiency_ln>  (222) 
-0.488955

>  <r_i_glide_gscore>  (222) 
-2.11825

>  <r_i_glide_lipo>  (222) 
-0.153372

>  <r_i_glide_hbond>  (222) 
0

>  <r_i_glide_metal>  (222) 
-0

>  <r_i_glide_rewards>  (222) 
-0.798815

>  <r_i_glide_evdw>  (222) 
-14.8082

>  <r_i_glide_ecoul>  (222) 
-2.70873

>  <r_i_glide_erotb>  (222) 
0

>  <r_i_glide_esite>  (222) 
-0.0193496

>  <r_i_glide_emodel>  (222) 
-18.1104

>  <r_i_glide_energy>  (222) 
-17.5169

>  <r_i_glide_einternal>  (222) 
2.87624

>  <r_i_glide_intrahb_reward>  (222) 
-0

>  <i_i_glide_confnum>  (222) 
2

>  <i_i_glide_posenum>  (222) 
12

>  <r_i_glide_eff_state_penalty>  (222) 
0

>  <ligand_id>  (222) 
63

>  <original_smiles>  (222) 
COC1OC(OC)C2C1C1(C)CCC3CC3C1C(C)=C1CC(=O)CC(O)C12C

>  <smiles>  (222) 
[H]OC1([H])C([H])([H])C(=O)C([H])([H])C2=C(C([H])([H])[H])C3([H])C4([H])C([H])([H])C4([H])C([H])([H])C([H])([H])C3(C([H])([H])[H])C3([H])C([H])(OC([H])([H])[H])OC([H])(OC([H])([H])[H])C3([H])C21C([H])([H])[H]

$$$$
64:0:0
     RDKit          3D

 36 38  0  0  1  0  0  0  0  0999 V2000
    7.2734   -1.2075    0.4831 O   0  0  0  0  0  0  0  0  0  0  0  0
    6.1864   -0.6454    0.4897 C   0  0  0  0  0  0  0  0  0  0  0  0
    4.8722   -1.2681    0.0582 C   0  0  2  0  0  0  0  0  0  0  0  0
    4.5846   -2.4645    0.9794 C   0  0  0  0  0  0  0  0  0  0  0  0
    3.2234   -3.1709    0.7809 C   0  0  0  0  0  0  0  0  0  0  0  0
    3.0121   -3.9828   -0.5165 C   0  0  1  0  0  0  0  0  0  0  0  0
    2.3612   -3.2361   -1.6846 C   0  0  0  0  0  0  0  0  0  0  0  0
    3.2913   -3.3744   -2.8908 C   0  0  1  0  0  0  0  0  0  0  0  0
    3.2060   -2.1753   -3.8669 C   0  0  0  0  0  0  0  0  0  0  0  0
    4.2092   -1.0281   -3.7352 C   0  0  0  0  0  0  0  0  0  0  0  0
    4.6080   -0.5584   -2.3245 C   0  0  0  0  0  0  0  0  0  0  0  0
    4.8297   -1.6282   -1.3743 N   0  0  0  0  0  0  0  0  0  0  0  0
    5.6449   -2.7255   -1.8698 C   0  0  0  0  0  0  0  0  0  0  0  0
    4.6496   -3.8135   -2.2725 C   0  0  1  0  0  0  0  0  0  0  0  0
    4.2600   -4.5712   -1.0527 N   0  0  0  0  0  0  0  0  0  0  0  0
    6.0430    0.4070    0.7542 H   0  0  0  0  0  0  0  0  0  0  0  0
    4.0904   -0.5273    0.2282 H   0  0  0  0  0  0  0  0  0  0  0  0
    5.4042   -3.1849    0.9469 H   0  0  0  0  0  0  0  0  0  0  0  0
    4.5988   -2.0905    2.0062 H   0  0  0  0  0  0  0  0  0  0  0  0
    3.1172   -3.8646    1.6169 H   0  0  0  0  0  0  0  0  0  0  0  0
    2.4110   -2.4491    0.8928 H   0  0  0  0  0  0  0  0  0  0  0  0
    2.3470   -4.8121   -0.2715 H   0  0  0  0  0  0  0  0  0  0  0  0
    1.3484   -3.5740   -1.9126 H   0  0  0  0  0  0  0  0  0  0  0  0
    2.2902   -2.1892   -1.4402 H   0  0  0  0  0  0  0  0  0  0  0  0
    2.8960   -4.2045   -3.4780 H   0  0  0  0  0  0  0  0  0  0  0  0
    3.3442   -2.5778   -4.8690 H   0  0  0  0  0  0  0  0  0  0  0  0
    2.1979   -1.7685   -3.8587 H   0  0  0  0  0  0  0  0  0  0  0  0
    5.0539   -1.3915   -4.2965 H   0  0  0  0  0  0  0  0  0  0  0  0
    3.8559   -0.1667   -4.3058 H   0  0  0  0  0  0  0  0  0  0  0  0
    5.4673    0.0966   -2.3189 H   0  0  0  0  0  0  0  0  0  0  0  0
    3.8227    0.0508   -1.9646 H   0  0  0  0  0  0  0  0  0  0  0  0
    6.2766   -2.4387   -2.7144 H   0  0  0  0  0  0  0  0  0  0  0  0
    6.3420   -3.1036   -1.1162 H   0  0  0  0  0  0  0  0  0  0  0  0
    5.1427   -4.5108   -2.9436 H   0  0  0  0  0  0  0  0  0  0  0  0
    4.9909   -4.6773   -0.3663 H   0  0  0  0  0  0  0  0  0  0  0  0
    3.9481   -5.4323   -1.4326 H   0  0  0  0  0  0  0  0  0  0  0  0
  1  2  2  0
  2  3  1  0
  2 16  1  0
  3 12  1  0
  3  4  1  0
  3 17  1  6
  4  5  1  0
  4 18  1  0
  4 19  1  0
  5  6  1  0
  5 20  1  0
  5 21  1  0
  6 15  1  0
  6  7  1  0
  6 22  1  1
  7  8  1  0
  7 23  1  0
  7 24  1  0
  8 14  1  0
  8  9  1  0
  8 25  1  6
  9 10  1  0
  9 26  1  0
  9 27  1  0
 10 11  1  0
 10 28  1  0
 10 29  1  0
 11 12  1  0
 11 30  1  0
 11 31  1  0
 12 13  1  0
 13 14  1  0
 13 32  1  0
 13 33  1  0
 14 15  1  0
 14 34  1  6
 15 35  1  0
 15 36  1  0
M  CHG  1  15   1
M  END
>  <i_m_ct_stereo_status>  (223) 
1

>  <s_m_source_file>  (223) 
/var/tmp/pbs.5076255.sched01/tmple0dc7g8/88jbw3zpwn.sdf

>  <i_m_source_file_index>  (223) 
21

>  <i_lp_mmshare_version>  (223) 
48012

>  <i_f3d_flags>  (223) 
0

>  <s_epik_input>  (223) 
W0NASF0xMltDSDJdW0NIMl1bQ0BASF0oW0NIXT1PKU4zW0NIMl1bQ0gyXVtDSDJdW0NASF0oW0NIMl0xKVtDQEBIXShbQ0gyXTMpW05IXTI=

>  <s_epik_cmdline>  (223) 
J2VwaWtfcHl0aG9uJywgJy1waHQnLCAnMi4wJywgJy1waCcsICc3LjAnLCAnLXRuJywgJzgnLCAnLW1hJywgJzIwMCcsICctaW1hZScsICc8aW5maWxlLm1hZT4nLCAnLW9tYWUnLCAnPG91dGZpbGUubWFlPic=

>  <r_epik_Ionization_Penalty>  (223) 
0.000350872

>  <r_epik_Ionization_Penalty_Charging>  (223) 
0.000350755

>  <r_epik_Ionization_Penalty_Neutral>  (223) 
1.16679e-07

>  <r_epik_State_Penalty>  (223) 
1.98439e-09

>  <r_epik_Charging_Adjusted_Penalty>  (223) 
0.000350757

>  <i_epik_Tot_Q>  (223) 
1

>  <i_epik_Tot_abs_Q>  (223) 
1

>  <s_lp_Force_Field>  (223) 
OPLS3e

>  <r_lp_Energy>  (223) 
34.1854

>  <b_lp_Chiralities_Consistent>  (223) 
1

>  <s_lp_Variant>  (223) 
64:0-1

>  <s_i_glide_gridfile>  (223) 
pfpi4k_grid

>  <i_i_glide_lignum>  (223) 
21

>  <i_i_glide_rotatable_bonds>  (223) 
1

>  <r_i_docking_score>  (223) 
-4.23672

>  <r_i_glide_ligand_efficiency>  (223) 
-0.282448

>  <r_i_glide_ligand_efficiency_sa>  (223) 
-0.696577

>  <r_i_glide_ligand_efficiency_ln>  (223) 
-1.14257

>  <r_i_glide_gscore>  (223) 
-4.23672

>  <r_i_glide_lipo>  (223) 
-0.449387

>  <r_i_glide_hbond>  (223) 
-0.0262364

>  <r_i_glide_metal>  (223) 
-0

>  <r_i_glide_rewards>  (223) 
-2.11404

>  <r_i_glide_evdw>  (223) 
-12.5677

>  <r_i_glide_ecoul>  (223) 
-6.52409

>  <r_i_glide_erotb>  (223) 
0

>  <r_i_glide_esite>  (223) 
-0.0400538

>  <r_i_glide_emodel>  (223) 
-20.7834

>  <r_i_glide_energy>  (223) 
-19.0918

>  <r_i_glide_einternal>  (223) 
0.508428

>  <r_i_glide_intrahb_reward>  (223) 
-0

>  <i_i_glide_confnum>  (223) 
2

>  <i_i_glide_posenum>  (223) 
2

>  <r_i_glide_eff_state_penalty>  (223) 
0

>  <ligand_id>  (223) 
64

>  <original_smiles>  (223) 
O=CC1CCC2CC3CCCN1CC3N2

>  <smiles>  (223) 
[H]C(=O)C1([H])N2C([H])([H])C([H])([H])C([H])([H])C3([H])C([H])([H])C([H])(C([H])([H])C1([H])[H])[N+]([H])([H])C3([H])C2([H])[H]

$$$$
64:0:1
     RDKit          3D

 36 38  0  0  1  0  0  0  0  0999 V2000
    5.8047   -0.3485    1.8715 O   0  0  0  0  0  0  0  0  0  0  0  0
    5.6084   -0.4176    0.6685 C   0  0  0  0  0  0  0  0  0  0  0  0
    4.4386   -1.1670    0.0344 C   0  0  2  0  0  0  0  0  0  0  0  0
    4.1050   -2.3801    0.9397 C   0  0  0  0  0  0  0  0  0  0  0  0
    2.8477   -3.1890    0.5753 C   0  0  0  0  0  0  0  0  0  0  0  0
    2.8944   -4.0228   -0.7226 C   0  0  1  0  0  0  0  0  0  0  0  0
    2.3684   -3.3119   -1.9793 C   0  0  0  0  0  0  0  0  0  0  0  0
    3.4713   -3.4174   -3.0259 C   0  0  1  0  0  0  0  0  0  0  0  0
    3.4278   -2.2754   -4.0431 C   0  0  0  0  0  0  0  0  0  0  0  0
    4.3578   -1.0915   -3.8359 C   0  0  0  0  0  0  0  0  0  0  0  0
    4.5047   -0.5372   -2.4135 C   0  0  0  0  0  0  0  0  0  0  0  0
    4.6651   -1.5495   -1.3748 N   0  0  0  0  0  0  0  0  0  0  0  0
    5.6095   -2.6100   -1.7010 C   0  0  0  0  0  0  0  0  0  0  0  0
    4.7558   -3.7738   -2.2265 C   0  0  1  0  0  0  0  0  0  0  0  0
    4.2416   -4.5249   -1.0616 N   0  0  0  0  0  0  0  0  0  0  0  0
    6.2413    0.0814   -0.0694 H   0  0  0  0  0  0  0  0  0  0  0  0
    3.5759   -0.4995    0.0535 H   0  0  0  0  0  0  0  0  0  0  0  0
    4.9740   -3.0331    1.0505 H   0  0  0  0  0  0  0  0  0  0  0  0
    3.9228   -1.9985    1.9472 H   0  0  0  0  0  0  0  0  0  0  0  0
    2.6689   -3.8772    1.4043 H   0  0  0  0  0  0  0  0  0  0  0  0
    1.9831   -2.5239    0.5447 H   0  0  0  0  0  0  0  0  0  0  0  0
    2.2604   -4.8942   -0.5557 H   0  0  0  0  0  0  0  0  0  0  0  0
    1.4337   -3.7528   -2.3371 H   0  0  0  0  0  0  0  0  0  0  0  0
    2.1926   -2.2560   -1.7830 H   0  0  0  0  0  0  0  0  0  0  0  0
    3.2218   -4.2586   -3.6620 H   0  0  0  0  0  0  0  0  0  0  0  0
    3.7268   -2.7055   -4.9920 H   0  0  0  0  0  0  0  0  0  0  0  0
    2.4043   -1.9217   -4.1983 H   0  0  0  0  0  0  0  0  0  0  0  0
    5.3013   -1.4400   -4.2269 H   0  0  0  0  0  0  0  0  0  0  0  0
    4.0469   -0.2562   -4.4754 H   0  0  0  0  0  0  0  0  0  0  0  0
    5.3547    0.1374   -2.3277 H   0  0  0  0  0  0  0  0  0  0  0  0
    3.5827    0.0244   -2.3320 H   0  0  0  0  0  0  0  0  0  0  0  0
    6.3348   -2.2960   -2.4529 H   0  0  0  0  0  0  0  0  0  0  0  0
    6.2108   -2.9213   -0.8387 H   0  0  0  0  0  0  0  0  0  0  0  0
    5.3921   -4.4396   -2.8062 H   0  0  0  0  0  0  0  0  0  0  0  0
    4.8699   -4.5774   -0.2759 H   0  0  0  0  0  0  0  0  0  0  0  0
    4.0490   -5.4485   -1.4285 H   0  0  0  0  0  0  0  0  0  0  0  0
  1  2  2  0
  2  3  1  0
  2 16  1  0
  3 12  1  0
  3  4  1  0
  3 17  1  6
  4  5  1  0
  4 18  1  0
  4 19  1  0
  5  6  1  0
  5 20  1  0
  5 21  1  0
  6 15  1  0
  6  7  1  0
  6 22  1  1
  7  8  1  0
  7 23  1  0
  7 24  1  0
  8 14  1  0
  8  9  1  0
  8 25  1  6
  9 10  1  0
  9 26  1  0
  9 27  1  0
 10 11  1  0
 10 28  1  0
 10 29  1  0
 11 12  1  0
 11 30  1  0
 11 31  1  0
 12 13  1  0
 13 14  1  0
 13 32  1  0
 13 33  1  0
 14 15  1  0
 14 34  1  6
 15 35  1  0
 15 36  1  0
M  CHG  1  15   1
M  END
>  <i_m_ct_stereo_status>  (224) 
1

>  <s_m_source_file>  (224) 
/var/tmp/pbs.5076255.sched01/tmple0dc7g8/88jbw3zpwn.sdf

>  <i_m_source_file_index>  (224) 
21

>  <i_lp_mmshare_version>  (224) 
48012

>  <i_f3d_flags>  (224) 
0

>  <s_epik_input>  (224) 
W0NASF0xMltDSDJdW0NIMl1bQ0BASF0oW0NIXT1PKU4zW0NIMl1bQ0gyXVtDSDJdW0NASF0oW0NIMl0xKVtDQEBIXShbQ0gyXTMpW05IXTI=

>  <s_epik_cmdline>  (224) 
J2VwaWtfcHl0aG9uJywgJy1waHQnLCAnMi4wJywgJy1waCcsICc3LjAnLCAnLXRuJywgJzgnLCAnLW1hJywgJzIwMCcsICctaW1hZScsICc8aW5maWxlLm1hZT4nLCAnLW9tYWUnLCAnPG91dGZpbGUubWFlPic=

>  <r_epik_Ionization_Penalty>  (224) 
0.000350872

>  <r_epik_Ionization_Penalty_Charging>  (224) 
0.000350755

>  <r_epik_Ionization_Penalty_Neutral>  (224) 
1.16679e-07

>  <r_epik_State_Penalty>  (224) 
1.98439e-09

>  <r_epik_Charging_Adjusted_Penalty>  (224) 
0.000350757

>  <i_epik_Tot_Q>  (224) 
1

>  <i_epik_Tot_abs_Q>  (224) 
1

>  <s_lp_Force_Field>  (224) 
OPLS3e

>  <r_lp_Energy>  (224) 
34.1854

>  <b_lp_Chiralities_Consistent>  (224) 
1

>  <s_lp_Variant>  (224) 
64:0-1

>  <s_i_glide_gridfile>  (224) 
pfpi4k_grid

>  <i_i_glide_lignum>  (224) 
21

>  <i_i_glide_rotatable_bonds>  (224) 
1

>  <r_i_docking_score>  (224) 
-3.98747

>  <r_i_glide_ligand_efficiency>  (224) 
-0.265831

>  <r_i_glide_ligand_efficiency_sa>  (224) 
-0.655596

>  <r_i_glide_ligand_efficiency_ln>  (224) 
-1.07535

>  <r_i_glide_gscore>  (224) 
-3.98747

>  <r_i_glide_lipo>  (224) 
-0.29919

>  <r_i_glide_hbond>  (224) 
-0.244479

>  <r_i_glide_metal>  (224) 
-0

>  <r_i_glide_rewards>  (224) 
-2.16792

>  <r_i_glide_evdw>  (224) 
-8.05782

>  <r_i_glide_ecoul>  (224) 
-5.54513

>  <r_i_glide_erotb>  (224) 
0

>  <r_i_glide_esite>  (224) 
-0.0412207

>  <r_i_glide_emodel>  (224) 
-14.9891

>  <r_i_glide_energy>  (224) 
-13.603

>  <r_i_glide_einternal>  (224) 
0.0699839

>  <r_i_glide_intrahb_reward>  (224) 
-0

>  <i_i_glide_confnum>  (224) 
2

>  <i_i_glide_posenum>  (224) 
35

>  <r_i_glide_eff_state_penalty>  (224) 
0

>  <ligand_id>  (224) 
64

>  <original_smiles>  (224) 
O=CC1CCC2CC3CCCN1CC3N2

>  <smiles>  (224) 
[H]C(=O)C1([H])N2C([H])([H])C([H])([H])C([H])([H])C3([H])C([H])([H])C([H])(C([H])([H])C1([H])[H])[N+]([H])([H])C3([H])C2([H])[H]

$$$$
64:0:2
     RDKit          3D

 36 38  0  0  1  0  0  0  0  0999 V2000
    3.8158    0.4135   -4.7774 O   0  0  0  0  0  0  0  0  0  0  0  0
    4.1348   -0.6670   -4.2735 C   0  0  0  0  0  0  0  0  0  0  0  0
    4.0358   -1.0101   -2.7785 C   0  0  2  0  0  0  0  0  0  0  0  0
    5.3356   -0.8091   -1.9960 C   0  0  0  0  0  0  0  0  0  0  0  0
    5.3525   -0.8705   -0.4685 C   0  0  0  0  0  0  0  0  0  0  0  0
    5.2381   -2.2692    0.1389 C   0  0  1  0  0  0  0  0  0  0  0  0
    3.7916   -2.6459    0.4186 C   0  0  0  0  0  0  0  0  0  0  0  0
    3.6192   -3.9902   -0.2953 C   0  0  1  0  0  0  0  0  0  0  0  0
    2.1822   -4.2420   -0.7397 C   0  0  0  0  0  0  0  0  0  0  0  0
    1.6662   -3.7826   -2.0834 C   0  0  0  0  0  0  0  0  0  0  0  0
    2.2117   -2.5951   -2.8125 C   0  0  0  0  0  0  0  0  0  0  0  0
    3.5946   -2.3744   -2.5469 N   0  0  0  0  0  0  0  0  0  0  0  0
    4.4701   -3.5019   -2.7669 C   0  0  0  0  0  0  0  0  0  0  0  0
    4.7332   -4.0746   -1.3539 C   0  0  1  0  0  0  0  0  0  0  0  0
    5.8292   -3.3386   -0.7059 N   0  0  0  0  0  0  0  0  0  0  0  0
    4.5257   -1.4770   -4.8831 H   0  0  0  0  0  0  0  0  0  0  0  0
    3.3009   -0.2998   -2.3719 H   0  0  0  0  0  0  0  0  0  0  0  0
    6.1422   -1.4906   -2.2748 H   0  0  0  0  0  0  0  0  0  0  0  0
    5.6755    0.1564   -2.2579 H   0  0  0  0  0  0  0  0  0  0  0  0
    6.3241   -0.4698   -0.1723 H   0  0  0  0  0  0  0  0  0  0  0  0
    4.6069   -0.1793   -0.0613 H   0  0  0  0  0  0  0  0  0  0  0  0
    5.7822   -2.2374    1.0823 H   0  0  0  0  0  0  0  0  0  0  0  0
    3.5881   -2.7074    1.4869 H   0  0  0  0  0  0  0  0  0  0  0  0
    3.1069   -1.8810    0.0275 H   0  0  0  0  0  0  0  0  0  0  0  0
    3.8240   -4.7452    0.4626 H   0  0  0  0  0  0  0  0  0  0  0  0
    1.9003   -5.2830   -0.6048 H   0  0  0  0  0  0  0  0  0  0  0  0
    1.5954   -3.6764   -0.0208 H   0  0  0  0  0  0  0  0  0  0  0  0
    1.8109   -4.6069   -2.8322 H   0  0  0  0  0  0  0  0  0  0  0  0
    0.6053   -3.6322   -1.9586 H   0  0  0  0  0  0  0  0  0  0  0  0
    1.9482   -2.5538   -3.8881 H   0  0  0  0  0  0  0  0  0  0  0  0
    1.8543   -1.7537   -2.3475 H   0  0  0  0  0  0  0  0  0  0  0  0
    3.9774   -4.2262   -3.4306 H   0  0  0  0  0  0  0  0  0  0  0  0
    5.3807   -3.2394   -3.2931 H   0  0  0  0  0  0  0  0  0  0  0  0
    5.0211   -5.1144   -1.4883 H   0  0  0  0  0  0  0  0  0  0  0  0
    6.4712   -3.0012   -1.3945 H   0  0  0  0  0  0  0  0  0  0  0  0
    6.2205   -3.9795   -0.0765 H   0  0  0  0  0  0  0  0  0  0  0  0
  1  2  2  0
  2  3  1  0
  2 16  1  0
  3 12  1  0
  3  4  1  0
  3 17  1  1
  4  5  1  0
  4 18  1  0
  4 19  1  0
  5  6  1  0
  5 20  1  0
  5 21  1  0
  6 15  1  0
  6  7  1  0
  6 22  1  1
  7  8  1  0
  7 23  1  0
  7 24  1  0
  8 14  1  0
  8  9  1  0
  8 25  1  1
  9 10  1  0
  9 26  1  0
  9 27  1  0
 10 11  1  0
 10 28  1  0
 10 29  1  0
 11 12  1  0
 11 30  1  0
 11 31  1  0
 12 13  1  0
 13 14  1  0
 13 32  1  0
 13 33  1  0
 14 15  1  0
 14 34  1  6
 15 35  1  0
 15 36  1  0
M  CHG  1  15   1
M  END
>  <i_m_ct_stereo_status>  (225) 
1

>  <s_m_source_file>  (225) 
/var/tmp/pbs.5076255.sched01/tmple0dc7g8/88jbw3zpwn.sdf

>  <i_m_source_file_index>  (225) 
21

>  <i_lp_mmshare_version>  (225) 
48012

>  <i_f3d_flags>  (225) 
0

>  <s_epik_input>  (225) 
W0NASF0xMltDSDJdW0NIMl1bQ0BASF0oW0NIXT1PKU4zW0NIMl1bQ0gyXVtDSDJdW0NASF0oW0NIMl0xKVtDQEBIXShbQ0gyXTMpW05IXTI=

>  <s_epik_cmdline>  (225) 
J2VwaWtfcHl0aG9uJywgJy1waHQnLCAnMi4wJywgJy1waCcsICc3LjAnLCAnLXRuJywgJzgnLCAnLW1hJywgJzIwMCcsICctaW1hZScsICc8aW5maWxlLm1hZT4nLCAnLW9tYWUnLCAnPG91dGZpbGUubWFlPic=

>  <r_epik_Ionization_Penalty>  (225) 
0.000350872

>  <r_epik_Ionization_Penalty_Charging>  (225) 
0.000350755

>  <r_epik_Ionization_Penalty_Neutral>  (225) 
1.16679e-07

>  <r_epik_State_Penalty>  (225) 
1.98439e-09

>  <r_epik_Charging_Adjusted_Penalty>  (225) 
0.000350757

>  <i_epik_Tot_Q>  (225) 
1

>  <i_epik_Tot_abs_Q>  (225) 
1

>  <s_lp_Force_Field>  (225) 
OPLS3e

>  <r_lp_Energy>  (225) 
34.1854

>  <b_lp_Chiralities_Consistent>  (225) 
1

>  <s_lp_Variant>  (225) 
64:0-1

>  <s_i_glide_gridfile>  (225) 
pfpi4k_grid

>  <i_i_glide_lignum>  (225) 
21

>  <i_i_glide_rotatable_bonds>  (225) 
1

>  <r_i_docking_score>  (225) 
-2.8293

>  <r_i_glide_ligand_efficiency>  (225) 
-0.18862

>  <r_i_glide_ligand_efficiency_sa>  (225) 
-0.465177

>  <r_i_glide_ligand_efficiency_ln>  (225) 
-0.763015

>  <r_i_glide_gscore>  (225) 
-2.8293

>  <r_i_glide_lipo>  (225) 
-0.026255

>  <r_i_glide_hbond>  (225) 
0

>  <r_i_glide_metal>  (225) 
-0

>  <r_i_glide_rewards>  (225) 
-2.2225

>  <r_i_glide_evdw>  (225) 
-3.41859

>  <r_i_glide_ecoul>  (225) 
-2.7308

>  <r_i_glide_erotb>  (225) 
0

>  <r_i_glide_esite>  (225) 
0

>  <r_i_glide_emodel>  (225) 
-4.94373

>  <r_i_glide_energy>  (225) 
-6.14939

>  <r_i_glide_einternal>  (225) 
0.557892

>  <r_i_glide_intrahb_reward>  (225) 
-0

>  <i_i_glide_confnum>  (225) 
2

>  <i_i_glide_posenum>  (225) 
12

>  <r_i_glide_eff_state_penalty>  (225) 
0

>  <ligand_id>  (225) 
64

>  <original_smiles>  (225) 
O=CC1CCC2CC3CCCN1CC3N2

>  <smiles>  (225) 
[H]C(=O)C1([H])N2C([H])([H])C([H])([H])C([H])([H])C3([H])C([H])([H])C([H])(C([H])([H])C1([H])[H])[N+]([H])([H])C3([H])C2([H])[H]

$$$$
65:0:0
     RDKit          3D

 65 70  0  0  1  0  0  0  0  0999 V2000
    5.2876   -3.5432   -2.3680 C   0  0  0  0  0  0  0  0  0  0  0  0
    4.5442   -3.8751   -1.0648 C   0  0  2  0  0  0  0  0  0  0  0  0
    3.1134   -3.3393   -0.9575 C   0  0  1  0  0  0  0  0  0  0  0  0
    2.1121   -4.3031   -0.7181 O   0  0  0  0  0  0  0  0  0  0  0  0
    3.5313   -2.4331    0.2025 C   0  0  1  0  0  0  0  0  0  0  0  0
    2.5137   -2.5537    1.2684 O   0  0  0  0  0  0  0  0  0  0  0  0
    2.6478   -2.1858    2.6481 C   0  0  2  0  0  0  0  0  0  0  0  0
    1.5964   -1.0699    2.8346 C   0  0  0  0  0  0  0  0  0  0  0  0
    1.9410    0.1347    1.9293 C   0  0  1  0  0  0  0  0  0  0  0  0
    1.0020    1.1531    2.2069 O   0  0  0  0  0  0  0  0  0  0  0  0
    3.3617    0.6843    2.1287 C   0  0  0  0  0  0  0  0  0  0  0  0
    4.4652   -0.4023    2.2216 C   0  0  0  0  0  0  0  0  0  0  0  0
    4.0574   -1.6781    3.0399 C   0  0  1  0  0  0  0  0  0  0  0  0
    4.0276   -1.0898    4.4996 C   0  0  0  0  0  0  0  0  0  0  0  0
    4.9389   -2.9900    2.9640 C   0  0  1  0  0  0  0  0  0  0  0  0
    4.5605   -3.8041    4.1898 C   0  0  0  0  0  0  0  0  0  0  0  0
    3.1745   -4.4303    3.9220 C   0  0  2  0  0  0  0  0  0  0  0  0
    2.3053   -3.2739    3.5735 O   0  0  0  0  0  0  0  0  0  0  0  0
    3.6265   -5.8011    3.2335 C   0  0  1  0  0  0  0  0  0  0  0  0
    4.2417   -6.7005    4.3621 C   0  0  0  0  0  0  0  0  0  0  0  0
    2.5180   -6.7333    2.6241 C   0  0  1  0  0  0  0  0  0  0  0  0
    1.4702   -6.1035    1.9027 O   0  0  0  0  0  0  0  0  0  0  0  0
    3.3034   -7.5755    1.6137 C   0  0  0  0  0  0  0  0  0  0  0  0
    4.2386   -6.5547    0.9611 C   0  0  0  0  0  0  0  0  0  0  0  0
    4.7000   -5.5453    2.0554 C   0  0  1  0  0  0  0  0  0  0  0  0
    4.8098   -3.9858    1.6941 C   0  0  2  0  0  0  0  0  0  0  0  0
    4.8968   -3.2300    0.3227 C   0  0  1  0  0  0  0  0  0  0  0  0
    6.2549   -2.4874    0.2910 C   0  0  0  0  0  0  0  0  0  0  0  0
    6.2633   -1.4257   -0.6329 O   0  0  0  0  0  0  0  0  0  0  0  0
    5.2390   -2.4884   -2.6355 H   0  0  0  0  0  0  0  0  0  0  0  0
    4.8679   -4.0897   -3.2136 H   0  0  0  0  0  0  0  0  0  0  0  0
    6.3359   -3.8260   -2.3107 H   0  0  0  0  0  0  0  0  0  0  0  0
    4.5823   -4.9440   -0.9826 H   0  0  0  0  0  0  0  0  0  0  0  0
    2.8351   -2.7638   -1.8388 H   0  0  0  0  0  0  0  0  0  0  0  0
    2.1719   -4.9025   -1.4596 H   0  0  0  0  0  0  0  0  0  0  0  0
    3.6138   -1.4297   -0.2267 H   0  0  0  0  0  0  0  0  0  0  0  0
    0.6209   -1.4730    2.5711 H   0  0  0  0  0  0  0  0  0  0  0  0
    1.5366   -0.7800    3.8834 H   0  0  0  0  0  0  0  0  0  0  0  0
    1.8312   -0.1594    0.8867 H   0  0  0  0  0  0  0  0  0  0  0  0
    1.0225    1.8176    1.5237 H   0  0  0  0  0  0  0  0  0  0  0  0
    3.5883    1.3394    1.2967 H   0  0  0  0  0  0  0  0  0  0  0  0
    3.3831    1.3246    3.0100 H   0  0  0  0  0  0  0  0  0  0  0  0
    4.8167   -0.6007    1.2308 H   0  0  0  0  0  0  0  0  0  0  0  0
    5.3383    0.0487    2.6912 H   0  0  0  0  0  0  0  0  0  0  0  0
    5.0309   -1.0479    4.9239 H   0  0  0  0  0  0  0  0  0  0  0  0
    3.3842   -1.6448    5.1828 H   0  0  0  0  0  0  0  0  0  0  0  0
    3.6418   -0.0779    4.5689 H   0  0  0  0  0  0  0  0  0  0  0  0
    5.9765   -2.7060    3.1083 H   0  0  0  0  0  0  0  0  0  0  0  0
    5.3816   -4.4953    4.3335 H   0  0  0  0  0  0  0  0  0  0  0  0
    4.5967   -3.3109    5.1524 H   0  0  0  0  0  0  0  0  0  0  0  0
    2.6645   -4.4412    2.9908 H   0  0  0  0  0  0  0  0  0  0  0  0
    4.1915   -7.7669    4.1522 H   0  0  0  0  0  0  0  0  0  0  0  0
    3.6985   -6.5609    5.2963 H   0  0  0  0  0  0  0  0  0  0  0  0
    5.2949   -6.5204    4.5728 H   0  0  0  0  0  0  0  0  0  0  0  0
    2.0482   -7.3617    3.3834 H   0  0  0  0  0  0  0  0  0  0  0  0
    1.8685   -5.5704    1.2203 H   0  0  0  0  0  0  0  0  0  0  0  0
    3.8858   -8.3601    2.0999 H   0  0  0  0  0  0  0  0  0  0  0  0
    2.6517   -8.0769    0.8923 H   0  0  0  0  0  0  0  0  0  0  0  0
    5.0628   -7.0183    0.4168 H   0  0  0  0  0  0  0  0  0  0  0  0
    3.5715   -6.0945    0.2463 H   0  0  0  0  0  0  0  0  0  0  0  0
    5.6816   -5.8733    2.4022 H   0  0  0  0  0  0  0  0  0  0  0  0
    3.7996   -4.2228    1.4968 H   0  0  0  0  0  0  0  0  0  0  0  0
    6.5678   -2.0534    1.2346 H   0  0  0  0  0  0  0  0  0  0  0  0
    7.0449   -3.1823    0.0108 H   0  0  0  0  0  0  0  0  0  0  0  0
    5.4588   -0.9179   -0.5158 H   0  0  0  0  0  0  0  0  0  0  0  0
  1  2  1  0
  1 30  1  0
  1 31  1  0
  1 32  1  0
  2 27  1  0
  2  3  1  0
  2 33  1  1
  3  4  1  0
  3  5  1  0
  3 34  1  6
  4 35  1  0
  5 27  1  0
  5  6  1  0
  5 36  1  6
  7  6  1  6
  7 13  1  0
  7 18  1  0
  7  8  1  0
  8  9  1  0
  8 37  1  0
  8 38  1  0
  9 10  1  0
  9 11  1  0
  9 39  1  6
 10 40  1  0
 11 12  1  0
 11 41  1  0
 11 42  1  0
 12 13  1  0
 12 43  1  0
 12 44  1  0
 13 14  1  1
 13 15  1  0
 14 45  1  0
 14 46  1  0
 14 47  1  0
 15 26  1  0
 15 16  1  0
 15 48  1  1
 16 17  1  0
 16 49  1  0
 16 50  1  0
 17 18  1  0
 17 19  1  0
 17 51  1  1
 19 25  1  0
 19 20  1  1
 19 21  1  0
 20 52  1  0
 20 53  1  0
 20 54  1  0
 21 22  1  0
 21 23  1  0
 21 55  1  1
 22 56  1  0
 23 24  1  0
 23 57  1  0
 23 58  1  0
 24 25  1  0
 24 59  1  0
 24 60  1  0
 25 26  1  0
 25 61  1  1
 26 27  1  0
 26 62  1  1
 27 28  1  6
 28 29  1  0
 28 63  1  0
 28 64  1  0
 29 65  1  0
M  END
>  <i_m_ct_stereo_status>  (226) 
1

>  <s_m_source_file>  (226) 
/var/tmp/pbs.5076255.sched01/tmple0dc7g8/88jbw3zpwn.sdf

>  <i_m_source_file_index>  (226) 
22

>  <i_lp_mmshare_version>  (226) 
48012

>  <i_f3d_flags>  (226) 
0

>  <s_epik_input>  (226) 
W0NIM11bQ0BASF0xW0NAQEhdKFtPSF0pW0NAQEhdKE8yKVtDQEBdMShbQ0gyXVtPSF0pW0NIXShbQ0BIXTNbQ0BAXShbQ0gzXSkoW0NAQEhdKE80KVtDSDJdNSlbQ0BASF0oW09IXSlbQ0gyXVtDSDJdMylbQ0BIXTVbQ0BAXShbQ0BAXTI0NikoW0NIM10pW0NIMl1bQ0gyXVtDQEBIXShbQ0gyXTYpW09IXQ==

>  <s_epik_cmdline>  (226) 
J2VwaWtfcHl0aG9uJywgJy1waHQnLCAnMi4wJywgJy1waCcsICc3LjAnLCAnLXRuJywgJzgnLCAnLW1hJywgJzIwMCcsICctaW1hZScsICc8aW5maWxlLm1hZT4nLCAnLW9tYWUnLCAnPG91dGZpbGUubWFlPic=

>  <r_lp_tautomer_probability>  (226) 
1

>  <r_epik_Ionization_Penalty>  (226) 
9.86262e-07

>  <r_epik_Ionization_Penalty_Charging>  (226) 
0

>  <r_epik_Ionization_Penalty_Neutral>  (226) 
9.86262e-07

>  <r_epik_State_Penalty>  (226) 
-0

>  <r_epik_Charging_Adjusted_Penalty>  (226) 
0

>  <i_epik_Tot_Q>  (226) 
0

>  <i_epik_Tot_abs_Q>  (226) 
0

>  <s_lp_Force_Field>  (226) 
OPLS3e

>  <r_lp_Energy>  (226) 
225.322

>  <b_lp_Chiralities_Consistent>  (226) 
1

>  <s_lp_Variant>  (226) 
65:0-1

>  <s_i_glide_gridfile>  (226) 
pfpi4k_grid

>  <i_i_glide_lignum>  (226) 
22

>  <i_i_glide_rotatable_bonds>  (226) 
5

>  <r_i_docking_score>  (226) 
-3.84306

>  <r_i_glide_ligand_efficiency>  (226) 
-0.132519

>  <r_i_glide_ligand_efficiency_sa>  (226) 
-0.407142

>  <r_i_glide_ligand_efficiency_ln>  (226) 
-0.879964

>  <r_i_glide_gscore>  (226) 
-3.84306

>  <r_i_glide_lipo>  (226) 
-0.733342

>  <r_i_glide_hbond>  (226) 
-0.111228

>  <r_i_glide_metal>  (226) 
-0

>  <r_i_glide_rewards>  (226) 
-1.12367

>  <r_i_glide_evdw>  (226) 
-19.871

>  <r_i_glide_ecoul>  (226) 
-6.62913

>  <r_i_glide_erotb>  (226) 
0.117931

>  <r_i_glide_esite>  (226) 
-0.00483811

>  <r_i_glide_emodel>  (226) 
-37.2475

>  <r_i_glide_energy>  (226) 
-26.5001

>  <r_i_glide_einternal>  (226) 
4.78592

>  <r_i_glide_intrahb_reward>  (226) 
-0.5

>  <i_i_glide_confnum>  (226) 
2

>  <i_i_glide_posenum>  (226) 
27

>  <r_i_glide_eff_state_penalty>  (226) 
0

>  <ligand_id>  (226) 
65

>  <original_smiles>  (226) 
CC1C(O)C2OC34CC(O)CCC3(C)C3CC(O4)C4(C)C(O)CCC4C3C12CO

>  <smiles>  (226) 
[H]OC([H])([H])C12C([H])(OC34OC5([H])C([H])([H])C([H])(C1([H])C1([H])C([H])([H])C([H])([H])C([H])(O[H])C51C([H])([H])[H])C3(C([H])([H])[H])C([H])([H])C([H])([H])C([H])(O[H])C4([H])[H])C([H])(O[H])C2([H])C([H])([H])[H]

$$$$
65:0:1
     RDKit          3D

 65 70  0  0  1  0  0  0  0  0999 V2000
    4.8871   -2.6236   -2.5692 C   0  0  0  0  0  0  0  0  0  0  0  0
    4.3949   -3.2490   -1.2598 C   0  0  2  0  0  0  0  0  0  0  0  0
    2.8990   -3.1010   -0.9771 C   0  0  1  0  0  0  0  0  0  0  0  0
    2.2007   -4.2945   -0.7149 O   0  0  0  0  0  0  0  0  0  0  0  0
    3.2240   -2.1794    0.2044 C   0  0  1  0  0  0  0  0  0  0  0  0
    2.3802   -2.5929    1.3456 O   0  0  0  0  0  0  0  0  0  0  0  0
    2.5763   -2.3058    2.7365 C   0  0  2  0  0  0  0  0  0  0  0  0
    1.3130   -1.5099    3.1394 C   0  0  0  0  0  0  0  0  0  0  0  0
    1.2298   -0.2084    2.3118 C   0  0  1  0  0  0  0  0  0  0  0  0
    0.1133    0.5372    2.7533 O   0  0  0  0  0  0  0  0  0  0  0  0
    2.4909    0.6771    2.4024 C   0  0  0  0  0  0  0  0  0  0  0  0
    3.8321   -0.0977    2.2845 C   0  0  0  0  0  0  0  0  0  0  0  0
    3.8552   -1.4780    3.0341 C   0  0  1  0  0  0  0  0  0  0  0  0
    3.8473   -1.0044    4.5356 C   0  0  0  0  0  0  0  0  0  0  0  0
    5.0183   -2.5208    2.7617 C   0  0  1  0  0  0  0  0  0  0  0  0
    4.9863   -3.4686    3.9490 C   0  0  0  0  0  0  0  0  0  0  0  0
    3.7776   -4.4140    3.7643 C   0  0  2  0  0  0  0  0  0  0  0  0
    2.6177   -3.4981    3.5931 O   0  0  0  0  0  0  0  0  0  0  0  0
    4.4751   -5.5876    2.9245 C   0  0  1  0  0  0  0  0  0  0  0  0
    5.4212   -6.3653    3.9073 C   0  0  0  0  0  0  0  0  0  0  0  0
    3.5700   -6.7364    2.3456 C   0  0  1  0  0  0  0  0  0  0  0  0
    2.3167   -6.3557    1.7949 O   0  0  0  0  0  0  0  0  0  0  0  0
    4.4120   -7.2872    1.1914 C   0  0  0  0  0  0  0  0  0  0  0  0
    4.9828   -6.0250    0.5472 C   0  0  0  0  0  0  0  0  0  0  0  0
    5.3091   -5.0046    1.6760 C   0  0  1  0  0  0  0  0  0  0  0  0
    4.9847   -3.4500    1.4425 C   0  0  2  0  0  0  0  0  0  0  0  0
    4.7416   -2.6317    0.1395 C   0  0  1  0  0  0  0  0  0  0  0  0
    5.8499   -1.5571    0.0167 C   0  0  0  0  0  0  0  0  0  0  0  0
    7.0903   -2.1305   -0.3367 O   0  0  0  0  0  0  0  0  0  0  0  0
    4.6072   -1.5737   -2.6622 H   0  0  0  0  0  0  0  0  0  0  0  0
    4.4630   -3.1434   -3.4314 H   0  0  0  0  0  0  0  0  0  0  0  0
    5.9699   -2.6996   -2.6767 H   0  0  0  0  0  0  0  0  0  0  0  0
    4.6941   -4.2845   -1.3019 H   0  0  0  0  0  0  0  0  0  0  0  0
    2.3900   -2.5661   -1.7786 H   0  0  0  0  0  0  0  0  0  0  0  0
    2.3361   -4.8558   -1.4680 H   0  0  0  0  0  0  0  0  0  0  0  0
    3.0335   -1.1643   -0.1471 H   0  0  0  0  0  0  0  0  0  0  0  0
    0.4447   -2.1364    2.9370 H   0  0  0  0  0  0  0  0  0  0  0  0
    1.3056   -1.3140    4.2114 H   0  0  0  0  0  0  0  0  0  0  0  0
    1.0508   -0.4681    1.2790 H   0  0  0  0  0  0  0  0  0  0  0  0
   -0.0318    1.2499    2.1420 H   0  0  0  0  0  0  0  0  0  0  0  0
    2.4481    1.4271    1.6105 H   0  0  0  0  0  0  0  0  0  0  0  0
    2.4674    1.2570    3.3266 H   0  0  0  0  0  0  0  0  0  0  0  0
    4.1037   -0.1258    1.2453 H   0  0  0  0  0  0  0  0  0  0  0  0
    4.6111    0.5352    2.7100 H   0  0  0  0  0  0  0  0  0  0  0  0
    4.8518   -0.7334    4.8649 H   0  0  0  0  0  0  0  0  0  0  0  0
    3.4460   -1.7426    5.2290 H   0  0  0  0  0  0  0  0  0  0  0  0
    3.2344   -0.1298    4.7308 H   0  0  0  0  0  0  0  0  0  0  0  0
    5.9705   -1.9910    2.8102 H   0  0  0  0  0  0  0  0  0  0  0  0
    5.9499   -3.9546    3.9595 H   0  0  0  0  0  0  0  0  0  0  0  0
    5.0165   -3.0427    4.9438 H   0  0  0  0  0  0  0  0  0  0  0  0
    3.1783   -4.5064    2.8926 H   0  0  0  0  0  0  0  0  0  0  0  0
    5.6115   -7.3947    3.6122 H   0  0  0  0  0  0  0  0  0  0  0  0
    4.9742   -6.4208    4.8998 H   0  0  0  0  0  0  0  0  0  0  0  0
    6.4149   -5.9361    4.0252 H   0  0  0  0  0  0  0  0  0  0  0  0
    3.3626   -7.5081    3.0902 H   0  0  0  0  0  0  0  0  0  0  0  0
    2.4695   -5.7071    1.1206 H   0  0  0  0  0  0  0  0  0  0  0  0
    5.2219   -7.9240    1.5488 H   0  0  0  0  0  0  0  0  0  0  0  0
    3.8256   -7.8908    0.4953 H   0  0  0  0  0  0  0  0  0  0  0  0
    5.8275   -6.2253   -0.1087 H   0  0  0  0  0  0  0  0  0  0  0  0
    4.1484   -5.7042   -0.0585 H   0  0  0  0  0  0  0  0  0  0  0  0
    6.3756   -5.0857    1.8900 H   0  0  0  0  0  0  0  0  0  0  0  0
    4.0429   -3.9152    1.3249 H   0  0  0  0  0  0  0  0  0  0  0  0
    5.5818   -0.8173   -0.7397 H   0  0  0  0  0  0  0  0  0  0  0  0
    6.0212   -0.9782    0.9186 H   0  0  0  0  0  0  0  0  0  0  0  0
    6.9327   -2.8369   -0.9466 H   0  0  0  0  0  0  0  0  0  0  0  0
  1  2  1  0
  1 30  1  0
  1 31  1  0
  1 32  1  0
  2 27  1  0
  2  3  1  0
  2 33  1  1
  3  4  1  0
  3  5  1  0
  3 34  1  6
  4 35  1  0
  5 27  1  0
  5  6  1  0
  5 36  1  6
  7  6  1  6
  7 13  1  0
  7 18  1  0
  7  8  1  0
  8  9  1  0
  8 37  1  0
  8 38  1  0
  9 10  1  0
  9 11  1  0
  9 39  1  6
 10 40  1  0
 11 12  1  0
 11 41  1  0
 11 42  1  0
 12 13  1  0
 12 43  1  0
 12 44  1  0
 13 14  1  1
 13 15  1  0
 14 45  1  0
 14 46  1  0
 14 47  1  0
 15 26  1  0
 15 16  1  0
 15 48  1  6
 16 17  1  0
 16 49  1  0
 16 50  1  0
 17 18  1  0
 17 19  1  0
 17 51  1  1
 19 25  1  0
 19 20  1  1
 19 21  1  0
 20 52  1  0
 20 53  1  0
 20 54  1  0
 21 22  1  0
 21 23  1  0
 21 55  1  1
 22 56  1  0
 23 24  1  0
 23 57  1  0
 23 58  1  0
 24 25  1  0
 24 59  1  0
 24 60  1  0
 25 26  1  0
 25 61  1  1
 26 27  1  0
 26 62  1  1
 27 28  1  6
 28 29  1  0
 28 63  1  0
 28 64  1  0
 29 65  1  0
M  END
>  <i_m_ct_stereo_status>  (227) 
1

>  <s_m_source_file>  (227) 
/var/tmp/pbs.5076255.sched01/tmple0dc7g8/88jbw3zpwn.sdf

>  <i_m_source_file_index>  (227) 
22

>  <i_lp_mmshare_version>  (227) 
48012

>  <i_f3d_flags>  (227) 
0

>  <s_epik_input>  (227) 
W0NIM11bQ0BASF0xW0NAQEhdKFtPSF0pW0NAQEhdKE8yKVtDQEBdMShbQ0gyXVtPSF0pW0NIXShbQ0BIXTNbQ0BAXShbQ0gzXSkoW0NAQEhdKE80KVtDSDJdNSlbQ0BASF0oW09IXSlbQ0gyXVtDSDJdMylbQ0BIXTVbQ0BAXShbQ0BAXTI0NikoW0NIM10pW0NIMl1bQ0gyXVtDQEBIXShbQ0gyXTYpW09IXQ==

>  <s_epik_cmdline>  (227) 
J2VwaWtfcHl0aG9uJywgJy1waHQnLCAnMi4wJywgJy1waCcsICc3LjAnLCAnLXRuJywgJzgnLCAnLW1hJywgJzIwMCcsICctaW1hZScsICc8aW5maWxlLm1hZT4nLCAnLW9tYWUnLCAnPG91dGZpbGUubWFlPic=

>  <r_lp_tautomer_probability>  (227) 
1

>  <r_epik_Ionization_Penalty>  (227) 
9.86262e-07

>  <r_epik_Ionization_Penalty_Charging>  (227) 
0

>  <r_epik_Ionization_Penalty_Neutral>  (227) 
9.86262e-07

>  <r_epik_State_Penalty>  (227) 
-0

>  <r_epik_Charging_Adjusted_Penalty>  (227) 
0

>  <i_epik_Tot_Q>  (227) 
0

>  <i_epik_Tot_abs_Q>  (227) 
0

>  <s_lp_Force_Field>  (227) 
OPLS3e

>  <r_lp_Energy>  (227) 
225.322

>  <b_lp_Chiralities_Consistent>  (227) 
1

>  <s_lp_Variant>  (227) 
65:0-1

>  <s_i_glide_gridfile>  (227) 
pfpi4k_grid

>  <i_i_glide_lignum>  (227) 
22

>  <i_i_glide_rotatable_bonds>  (227) 
5

>  <r_i_docking_score>  (227) 
-3.66999

>  <r_i_glide_ligand_efficiency>  (227) 
-0.126551

>  <r_i_glide_ligand_efficiency_sa>  (227) 
-0.388806

>  <r_i_glide_ligand_efficiency_ln>  (227) 
-0.840334

>  <r_i_glide_gscore>  (227) 
-3.66999

>  <r_i_glide_lipo>  (227) 
-0.571082

>  <r_i_glide_hbond>  (227) 
-0.118923

>  <r_i_glide_metal>  (227) 
-0

>  <r_i_glide_rewards>  (227) 
-1.12367

>  <r_i_glide_evdw>  (227) 
-21.2573

>  <r_i_glide_ecoul>  (227) 
-6.04802

>  <r_i_glide_erotb>  (227) 
0.117931

>  <r_i_glide_esite>  (227) 
-0.00417913

>  <r_i_glide_emodel>  (227) 
-38.7081

>  <r_i_glide_energy>  (227) 
-27.3053

>  <r_i_glide_einternal>  (227) 
2.32749

>  <r_i_glide_intrahb_reward>  (227) 
-0.5

>  <i_i_glide_confnum>  (227) 
1

>  <i_i_glide_posenum>  (227) 
15

>  <r_i_glide_eff_state_penalty>  (227) 
0

>  <ligand_id>  (227) 
65

>  <original_smiles>  (227) 
CC1C(O)C2OC34CC(O)CCC3(C)C3CC(O4)C4(C)C(O)CCC4C3C12CO

>  <smiles>  (227) 
[H]OC([H])([H])C12C([H])(OC34OC5([H])C([H])([H])C([H])(C1([H])C1([H])C([H])([H])C([H])([H])C([H])(O[H])C51C([H])([H])[H])C3(C([H])([H])[H])C([H])([H])C([H])([H])C([H])(O[H])C4([H])[H])C([H])(O[H])C2([H])C([H])([H])[H]

$$$$
65:0:2
     RDKit          3D

 65 70  0  0  1  0  0  0  0  0999 V2000
    7.4077   -7.4699    2.1528 C   0  0  0  0  0  0  0  0  0  0  0  0
    6.2497   -6.4544    2.1691 C   0  0  2  0  0  0  0  0  0  0  0  0
    5.1574   -6.6599    1.1195 C   0  0  1  0  0  0  0  0  0  0  0  0
    3.8356   -6.8135    1.6004 O   0  0  0  0  0  0  0  0  0  0  0  0
    5.5443   -5.3342    0.4499 C   0  0  1  0  0  0  0  0  0  0  0  0
    4.3015   -4.5944    0.1370 O   0  0  0  0  0  0  0  0  0  0  0  0
    4.1702   -3.1892   -0.1347 C   0  0  2  0  0  0  0  0  0  0  0  0
    3.6094   -3.1422   -1.5733 C   0  0  0  0  0  0  0  0  0  0  0  0
    4.6282   -3.7861   -2.5443 C   0  0  1  0  0  0  0  0  0  0  0  0
    4.1459   -3.6507   -3.8633 O   0  0  0  0  0  0  0  0  0  0  0  0
    6.0318   -3.1687   -2.4792 C   0  0  0  0  0  0  0  0  0  0  0  0
    6.5690   -2.9224   -1.0443 C   0  0  0  0  0  0  0  0  0  0  0  0
    5.4958   -2.3865   -0.0345 C   0  0  1  0  0  0  0  0  0  0  0  0
    5.2768   -0.9261   -0.5863 C   0  0  0  0  0  0  0  0  0  0  0  0
    5.7993   -2.3780    1.5169 C   0  0  1  0  0  0  0  0  0  0  0  0
    4.8005   -1.3964    2.1141 C   0  0  0  0  0  0  0  0  0  0  0  0
    3.4164   -2.0863    2.1363 C   0  0  2  0  0  0  0  0  0  0  0  0
    3.1950   -2.5219    0.7363 O   0  0  0  0  0  0  0  0  0  0  0  0
    3.4923   -2.7852    3.5700 C   0  0  1  0  0  0  0  0  0  0  0  0
    3.3686   -1.6488    4.6441 C   0  0  0  0  0  0  0  0  0  0  0  0
    2.3342   -3.7659    3.9832 C   0  0  1  0  0  0  0  0  0  0  0  0
    1.8331   -4.6443    2.9883 O   0  0  0  0  0  0  0  0  0  0  0  0
    2.9914   -4.6319    5.0634 C   0  0  0  0  0  0  0  0  0  0  0  0
    4.3873   -4.8903    4.4989 C   0  0  0  0  0  0  0  0  0  0  0  0
    4.8689   -3.6046    3.7595 C   0  0  1  0  0  0  0  0  0  0  0  0
    5.6641   -3.7446    2.3729 C   0  0  2  0  0  0  0  0  0  0  0  0
    6.4162   -4.9563    1.7088 C   0  0  1  0  0  0  0  0  0  0  0  0
    7.9191   -4.5583    1.5469 C   0  0  0  0  0  0  0  0  0  0  0  0
    8.6324   -5.2752    0.5500 O   0  0  0  0  0  0  0  0  0  0  0  0
    7.8430   -7.6194    1.1717 H   0  0  0  0  0  0  0  0  0  0  0  0
    7.0635   -8.4511    2.4745 H   0  0  0  0  0  0  0  0  0  0  0  0
    8.1951   -7.1799    2.8421 H   0  0  0  0  0  0  0  0  0  0  0  0
    5.8569   -6.4857    3.1673 H   0  0  0  0  0  0  0  0  0  0  0  0
    5.3887   -7.5031    0.4730 H   0  0  0  0  0  0  0  0  0  0  0  0
    3.7316   -7.7383    1.7994 H   0  0  0  0  0  0  0  0  0  0  0  0
    6.1376   -5.5951   -0.4191 H   0  0  0  0  0  0  0  0  0  0  0  0
    2.6729   -3.6951   -1.5961 H   0  0  0  0  0  0  0  0  0  0  0  0
    3.3649   -2.1149   -1.8550 H   0  0  0  0  0  0  0  0  0  0  0  0
    4.7261   -4.8473   -2.3231 H   0  0  0  0  0  0  0  0  0  0  0  0
    3.3036   -4.0951   -3.8927 H   0  0  0  0  0  0  0  0  0  0  0  0
    6.7264   -3.8227   -3.0179 H   0  0  0  0  0  0  0  0  0  0  0  0
    6.0100   -2.2565   -3.0501 H   0  0  0  0  0  0  0  0  0  0  0  0
    7.0839   -3.8073   -0.7256 H   0  0  0  0  0  0  0  0  0  0  0  0
    7.3841   -2.2071   -1.1102 H   0  0  0  0  0  0  0  0  0  0  0  0
    6.0526   -0.2612   -0.2124 H   0  0  0  0  0  0  0  0  0  0  0  0
    4.3055   -0.5038   -0.3303 H   0  0  0  0  0  0  0  0  0  0  0  0
    5.3008   -0.8366   -1.6676 H   0  0  0  0  0  0  0  0  0  0  0  0
    6.7749   -1.9297    1.6764 H   0  0  0  0  0  0  0  0  0  0  0  0
    5.2188   -1.1215    3.0747 H   0  0  0  0  0  0  0  0  0  0  0  0
    4.7443   -0.4047    1.6786 H   0  0  0  0  0  0  0  0  0  0  0  0
    3.2291   -3.1147    1.9410 H   0  0  0  0  0  0  0  0  0  0  0  0
    2.9786   -1.9859    5.6032 H   0  0  0  0  0  0  0  0  0  0  0  0
    2.6777   -0.8773    4.3019 H   0  0  0  0  0  0  0  0  0  0  0  0
    4.3031   -1.1515    4.8992 H   0  0  0  0  0  0  0  0  0  0  0  0
    1.4682   -3.2299    4.3791 H   0  0  0  0  0  0  0  0  0  0  0  0
    2.5645   -5.1348    2.6136 H   0  0  0  0  0  0  0  0  0  0  0  0
    3.0659   -4.1084    6.0169 H   0  0  0  0  0  0  0  0  0  0  0  0
    2.4367   -5.5546    5.2551 H   0  0  0  0  0  0  0  0  0  0  0  0
    5.0939   -5.2556    5.2484 H   0  0  0  0  0  0  0  0  0  0  0  0
    4.1781   -5.6931    3.8057 H   0  0  0  0  0  0  0  0  0  0  0  0
    5.5094   -3.0583    4.4543 H   0  0  0  0  0  0  0  0  0  0  0  0
    4.7404   -4.2160    2.1831 H   0  0  0  0  0  0  0  0  0  0  0  0
    8.0839   -3.5145    1.2880 H   0  0  0  0  0  0  0  0  0  0  0  0
    8.4460   -4.7278    2.4784 H   0  0  0  0  0  0  0  0  0  0  0  0
    8.6547   -6.1886    0.7988 H   0  0  0  0  0  0  0  0  0  0  0  0
  1  2  1  0
  1 30  1  0
  1 31  1  0
  1 32  1  0
  2 27  1  0
  2  3  1  0
  2 33  1  1
  3  4  1  0
  3  5  1  0
  3 34  1  6
  4 35  1  0
  5 27  1  0
  5  6  1  0
  5 36  1  6
  7  6  1  1
  7 13  1  0
  7 18  1  0
  7  8  1  0
  8  9  1  0
  8 37  1  0
  8 38  1  0
  9 10  1  0
  9 11  1  0
  9 39  1  1
 10 40  1  0
 11 12  1  0
 11 41  1  0
 11 42  1  0
 12 13  1  0
 12 43  1  0
 12 44  1  0
 13 14  1  6
 13 15  1  0
 14 45  1  0
 14 46  1  0
 14 47  1  0
 15 26  1  0
 15 16  1  0
 15 48  1  6
 16 17  1  0
 16 49  1  0
 16 50  1  0
 17 18  1  0
 17 19  1  0
 17 51  1  1
 19 25  1  0
 19 20  1  1
 19 21  1  0
 20 52  1  0
 20 53  1  0
 20 54  1  0
 21 22  1  0
 21 23  1  0
 21 55  1  1
 22 56  1  0
 23 24  1  0
 23 57  1  0
 23 58  1  0
 24 25  1  0
 24 59  1  0
 24 60  1  0
 25 26  1  0
 25 61  1  1
 26 27  1  0
 26 62  1  6
 27 28  1  6
 28 29  1  0
 28 63  1  0
 28 64  1  0
 29 65  1  0
M  END
>  <i_m_ct_stereo_status>  (228) 
1

>  <s_m_source_file>  (228) 
/var/tmp/pbs.5076255.sched01/tmple0dc7g8/88jbw3zpwn.sdf

>  <i_m_source_file_index>  (228) 
22

>  <i_lp_mmshare_version>  (228) 
48012

>  <i_f3d_flags>  (228) 
0

>  <s_epik_input>  (228) 
W0NIM11bQ0BASF0xW0NAQEhdKFtPSF0pW0NAQEhdKE8yKVtDQEBdMShbQ0gyXVtPSF0pW0NIXShbQ0BIXTNbQ0BAXShbQ0gzXSkoW0NAQEhdKE80KVtDSDJdNSlbQ0BASF0oW09IXSlbQ0gyXVtDSDJdMylbQ0BIXTVbQ0BAXShbQ0BAXTI0NikoW0NIM10pW0NIMl1bQ0gyXVtDQEBIXShbQ0gyXTYpW09IXQ==

>  <s_epik_cmdline>  (228) 
J2VwaWtfcHl0aG9uJywgJy1waHQnLCAnMi4wJywgJy1waCcsICc3LjAnLCAnLXRuJywgJzgnLCAnLW1hJywgJzIwMCcsICctaW1hZScsICc8aW5maWxlLm1hZT4nLCAnLW9tYWUnLCAnPG91dGZpbGUubWFlPic=

>  <r_lp_tautomer_probability>  (228) 
1

>  <r_epik_Ionization_Penalty>  (228) 
9.86262e-07

>  <r_epik_Ionization_Penalty_Charging>  (228) 
0

>  <r_epik_Ionization_Penalty_Neutral>  (228) 
9.86262e-07

>  <r_epik_State_Penalty>  (228) 
-0

>  <r_epik_Charging_Adjusted_Penalty>  (228) 
0

>  <i_epik_Tot_Q>  (228) 
0

>  <i_epik_Tot_abs_Q>  (228) 
0

>  <s_lp_Force_Field>  (228) 
OPLS3e

>  <r_lp_Energy>  (228) 
225.322

>  <b_lp_Chiralities_Consistent>  (228) 
1

>  <s_lp_Variant>  (228) 
65:0-1

>  <s_i_glide_gridfile>  (228) 
pfpi4k_grid

>  <i_i_glide_lignum>  (228) 
22

>  <i_i_glide_rotatable_bonds>  (228) 
5

>  <r_i_docking_score>  (228) 
-3.43829

>  <r_i_glide_ligand_efficiency>  (228) 
-0.118562

>  <r_i_glide_ligand_efficiency_sa>  (228) 
-0.364259

>  <r_i_glide_ligand_efficiency_ln>  (228) 
-0.787281

>  <r_i_glide_gscore>  (228) 
-3.43829

>  <r_i_glide_lipo>  (228) 
-0.868926

>  <r_i_glide_hbond>  (228) 
-0.0185773

>  <r_i_glide_metal>  (228) 
-0

>  <r_i_glide_rewards>  (228) 
-1.1538

>  <r_i_glide_evdw>  (228) 
-22.4033

>  <r_i_glide_ecoul>  (228) 
-2.63166

>  <r_i_glide_erotb>  (228) 
0.117931

>  <r_i_glide_esite>  (228) 
0

>  <r_i_glide_emodel>  (228) 
-35.1415

>  <r_i_glide_energy>  (228) 
-25.0349

>  <r_i_glide_einternal>  (228) 
4.4159

>  <r_i_glide_intrahb_reward>  (228) 
-0.5

>  <i_i_glide_confnum>  (228) 
2

>  <i_i_glide_posenum>  (228) 
3

>  <r_i_glide_eff_state_penalty>  (228) 
0

>  <ligand_id>  (228) 
65

>  <original_smiles>  (228) 
CC1C(O)C2OC34CC(O)CCC3(C)C3CC(O4)C4(C)C(O)CCC4C3C12CO

>  <smiles>  (228) 
[H]OC([H])([H])C12C([H])(OC34OC5([H])C([H])([H])C([H])(C1([H])C1([H])C([H])([H])C([H])([H])C([H])(O[H])C51C([H])([H])[H])C3(C([H])([H])[H])C([H])([H])C([H])([H])C([H])(O[H])C4([H])[H])C([H])(O[H])C2([H])C([H])([H])[H]

$$$$
66:0:0
     RDKit          3D

 47 51  0  0  1  0  0  0  0  0999 V2000
    4.8906   -0.2849    4.2509 C   0  0  0  0  0  0  0  0  0  0  0  0
    4.1678   -1.5193    3.6883 C   0  0  2  0  0  0  0  0  0  0  0  0
    4.8801   -2.0731    2.3807 C   0  0  2  0  0  0  0  0  0  0  0  0
    4.2008   -1.6942    1.0478 C   0  0  0  0  0  0  0  0  0  0  0  0
    4.6900   -2.5134   -0.1805 C   0  0  1  0  0  0  0  0  0  0  0  0
    3.7378   -2.4685   -1.2518 C   0  0  0  0  0  0  0  0  0  0  0  0
    2.6436   -3.3030   -1.1176 C   0  0  0  0  0  0  0  0  0  0  0  0
    1.8693   -3.4261   -2.2704 C   0  0  0  0  0  0  0  0  0  0  0  0
    2.2281   -2.6883   -3.4400 C   0  0  0  0  0  0  0  0  0  0  0  0
    3.4536   -1.9818   -3.5146 C   0  0  0  0  0  0  0  0  0  0  0  0
    3.7943   -1.3566   -4.6773 O   0  0  0  0  0  0  0  0  0  0  0  0
    4.2859   -1.9166   -2.3695 C   0  0  0  0  0  0  0  0  0  0  0  0
    5.6074   -1.5947   -2.1736 O   0  0  0  0  0  0  0  0  0  0  0  0
    5.9599   -1.9179   -0.7983 C   0  0  2  0  0  0  0  0  0  0  0  0
    7.1282   -2.9053   -0.5339 C   0  0  1  0  0  0  0  0  0  0  0  0
    8.3194   -2.1493   -0.4018 O   0  0  0  0  0  0  0  0  0  0  0  0
    6.9935   -3.7411    0.8127 C   0  0  0  0  0  0  0  0  0  0  0  0
    5.5631   -4.2310    1.2480 C   0  0  1  0  0  0  0  0  0  0  0  0
    5.0824   -3.5447    2.4795 N   0  0  0  0  0  0  0  0  0  0  0  0
    4.6012   -4.0249    0.0924 C   0  0  2  0  0  0  0  0  0  0  0  0
    5.0509   -4.8926   -0.9314 O   0  0  0  0  0  0  0  0  0  0  0  0
    3.0567   -4.2706    0.0205 C   0  0  0  0  0  0  0  0  0  0  0  0
    2.6120   -1.3333    3.6871 C   0  0  0  0  0  0  0  0  0  0  0  0
    1.7837   -2.8389    3.2039 Cl  0  0  0  0  0  0  0  0  0  0  0  0
    2.0337   -0.9643    5.3503 Cl  0  0  0  0  0  0  0  0  0  0  0  0
    2.1024   -0.0089    2.6124 Cl  0  0  0  0  0  0  0  0  0  0  0  0
    4.7266    0.6065    3.6441 H   0  0  0  0  0  0  0  0  0  0  0  0
    5.9653   -0.4509    4.3461 H   0  0  0  0  0  0  0  0  0  0  0  0
    4.5372   -0.0707    5.2675 H   0  0  0  0  0  0  0  0  0  0  0  0
    4.3396   -2.2628    4.4579 H   0  0  0  0  0  0  0  0  0  0  0  0
    5.8832   -1.6616    2.3769 H   0  0  0  0  0  0  0  0  0  0  0  0
    3.1240   -1.8724    1.1212 H   0  0  0  0  0  0  0  0  0  0  0  0
    4.3111   -0.6301    0.8363 H   0  0  0  0  0  0  0  0  0  0  0  0
    1.0716   -4.1435   -2.2942 H   0  0  0  0  0  0  0  0  0  0  0  0
    1.6104   -2.7631   -4.3079 H   0  0  0  0  0  0  0  0  0  0  0  0
    3.0468   -1.2956   -5.2675 H   0  0  0  0  0  0  0  0  0  0  0  0
    6.1800   -0.9671   -0.3119 H   0  0  0  0  0  0  0  0  0  0  0  0
    7.2072   -3.5781   -1.3925 H   0  0  0  0  0  0  0  0  0  0  0  0
    9.0413   -2.6131   -0.8104 H   0  0  0  0  0  0  0  0  0  0  0  0
    7.6388   -4.6171    0.7102 H   0  0  0  0  0  0  0  0  0  0  0  0
    7.4355   -3.1661    1.6382 H   0  0  0  0  0  0  0  0  0  0  0  0
    5.6258   -5.2946    1.5006 H   0  0  0  0  0  0  0  0  0  0  0  0
    5.7454   -3.7168    3.2182 H   0  0  0  0  0  0  0  0  0  0  0  0
    4.3755   -4.9439   -1.5991 H   0  0  0  0  0  0  0  0  0  0  0  0
    2.5289   -4.0131    0.9370 H   0  0  0  0  0  0  0  0  0  0  0  0
    2.7899   -5.2986   -0.2421 H   0  0  0  0  0  0  0  0  0  0  0  0
    4.2061   -3.9583    2.7424 H   0  0  0  0  0  0  0  0  0  0  0  0
  1  2  1  0
  1 27  1  0
  1 28  1  0
  1 29  1  0
  2  3  1  0
  2 23  1  0
  2 30  1  1
  3 19  1  0
  3  4  1  0
  3 31  1  6
  5  4  1  1
  4 32  1  0
  4 33  1  0
  5 14  1  0
  5 20  1  0
  5  6  1  0
  6 12  2  0
  6  7  1  0
  7 22  1  0
  7  8  2  0
  8  9  1  0
  8 34  1  0
  9 10  2  0
  9 35  1  0
 10 11  1  0
 10 12  1  0
 11 36  1  0
 12 13  1  0
 13 14  1  0
 14 15  1  0
 14 37  1  1
 15 16  1  0
 15 17  1  0
 15 38  1  6
 16 39  1  0
 17 18  1  0
 17 40  1  0
 17 41  1  0
 18 19  1  0
 18 20  1  0
 18 42  1  1
 19 43  1  0
 19 47  1  0
 20 21  1  6
 20 22  1  0
 21 44  1  0
 22 45  1  0
 22 46  1  0
 23 24  1  0
 23 25  1  0
 23 26  1  0
M  CHG  1  19   1
M  END
>  <i_m_ct_stereo_status>  (229) 
1

>  <s_m_source_file>  (229) 
/var/tmp/pbs.5076255.sched01/tmple0dc7g8/88jbw3zpwn.sdf

>  <i_m_source_file_index>  (229) 
23

>  <i_lp_mmshare_version>  (229) 
48012

>  <i_f3d_flags>  (229) 
0

>  <s_epik_input>  (229) 
Q2xDKENsKShDbClbQ0BIXShbQ0gzXSlbQ0BIXShbQ0gyXTEpW05IXVtDQEBIXShbQ0BAXTIoW09IXSlbQ0gyXTMpW0NIMl1bQ0BIXShbT0hdKVtDQEhdNE9jNWMoW09IXSlbY0hdW2NIXWMzYzVbQ0BAXTEyNA==

>  <s_epik_cmdline>  (229) 
J2VwaWtfcHl0aG9uJywgJy1waHQnLCAnMi4wJywgJy1waCcsICc3LjAnLCAnLXRuJywgJzgnLCAnLW1hJywgJzIwMCcsICctaW1hZScsICc8aW5maWxlLm1hZT4nLCAnLW9tYWUnLCAnPG91dGZpbGUubWFlPic=

>  <r_lp_tautomer_probability>  (229) 
1

>  <r_epik_Ionization_Penalty>  (229) 
0.110694

>  <r_epik_Ionization_Penalty_Charging>  (229) 
0.108163

>  <r_epik_Ionization_Penalty_Neutral>  (229) 
0.00253137

>  <r_epik_State_Penalty>  (229) 
0.0979665

>  <r_epik_Charging_Adjusted_Penalty>  (229) 
0.206129

>  <i_epik_Tot_Q>  (229) 
1

>  <i_epik_Tot_abs_Q>  (229) 
1

>  <s_lp_Force_Field>  (229) 
OPLS3e

>  <r_lp_Energy>  (229) 
97.5212

>  <b_lp_Chiralities_Consistent>  (229) 
1

>  <s_lp_Variant>  (229) 
66:0-1

>  <s_i_glide_gridfile>  (229) 
pfpi4k_grid

>  <i_i_glide_lignum>  (229) 
23

>  <i_i_glide_rotatable_bonds>  (229) 
5

>  <r_i_docking_score>  (229) 
-4.42525

>  <r_i_glide_ligand_efficiency>  (229) 
-0.170202

>  <r_i_glide_ligand_efficiency_sa>  (229) 
-0.504222

>  <r_i_glide_ligand_efficiency_ln>  (229) 
-1.03925

>  <r_i_glide_gscore>  (229) 
-4.42525

>  <r_i_glide_lipo>  (229) 
-0.963618

>  <r_i_glide_hbond>  (229) 
-0.247317

>  <r_i_glide_metal>  (229) 
-0

>  <r_i_glide_rewards>  (229) 
-0.533715

>  <r_i_glide_evdw>  (229) 
-25.4397

>  <r_i_glide_ecoul>  (229) 
-9.9104

>  <r_i_glide_erotb>  (229) 
0.077947

>  <r_i_glide_esite>  (229) 
0

>  <r_i_glide_emodel>  (229) 
-41.428

>  <r_i_glide_energy>  (229) 
-35.3501

>  <r_i_glide_einternal>  (229) 
8.25687

>  <r_i_glide_intrahb_reward>  (229) 
-0

>  <i_i_glide_confnum>  (229) 
2

>  <i_i_glide_posenum>  (229) 
36

>  <r_i_glide_eff_state_penalty>  (229) 
0

>  <ligand_id>  (229) 
66

>  <original_smiles>  (229) 
CC(C1CC23c4c5ccc(O)c4OC2C(O)CC(N1)C3(O)C5)C(Cl)(Cl)Cl

>  <smiles>  (229) 
[H]Oc1c([H])c([H])c2c3c1OC1([H])C([H])(O[H])C([H])([H])C4([H])C(O[H])(C2([H])[H])C31C([H])([H])C([H])(C([H])(C([H])([H])[H])C(Cl)(Cl)Cl)[N+]4([H])[H]

$$$$
66:0:1
     RDKit          3D

 47 51  0  0  1  0  0  0  0  0999 V2000
    2.8392   -2.4198    4.1996 C   0  0  0  0  0  0  0  0  0  0  0  0
    3.9948   -1.4802    3.7746 C   0  0  2  0  0  0  0  0  0  0  0  0
    4.7437   -2.0098    2.5043 C   0  0  2  0  0  0  0  0  0  0  0  0
    4.0173   -1.6634    1.1804 C   0  0  0  0  0  0  0  0  0  0  0  0
    4.5698   -2.4376   -0.0581 C   0  0  1  0  0  0  0  0  0  0  0  0
    3.6447   -2.4338   -1.1572 C   0  0  0  0  0  0  0  0  0  0  0  0
    2.5769   -3.2998   -1.0375 C   0  0  0  0  0  0  0  0  0  0  0  0
    1.8348   -3.4524   -2.2226 C   0  0  0  0  0  0  0  0  0  0  0  0
    2.2192   -2.7209   -3.3890 C   0  0  0  0  0  0  0  0  0  0  0  0
    3.4260   -1.9577   -3.4406 C   0  0  0  0  0  0  0  0  0  0  0  0
    3.8026   -1.3699   -4.6175 O   0  0  0  0  0  0  0  0  0  0  0  0
    4.2116   -1.8715   -2.2639 C   0  0  0  0  0  0  0  0  0  0  0  0
    5.5089   -1.4799   -2.0346 O   0  0  0  0  0  0  0  0  0  0  0  0
    5.8321   -1.7886   -0.6470 C   0  0  2  0  0  0  0  0  0  0  0  0
    7.0508   -2.7158   -0.3826 C   0  0  1  0  0  0  0  0  0  0  0  0
    8.1931   -1.8875   -0.2513 O   0  0  0  0  0  0  0  0  0  0  0  0
    6.9327   -3.5796    0.9341 C   0  0  0  0  0  0  0  0  0  0  0  0
    5.5151   -4.1209    1.3717 C   0  0  1  0  0  0  0  0  0  0  0  0
    5.0090   -3.4649    2.6028 N   0  0  0  0  0  0  0  0  0  0  0  0
    4.5511   -3.9436    0.1996 C   0  0  2  0  0  0  0  0  0  0  0  0
    5.0948   -4.7860   -0.8076 O   0  0  0  0  0  0  0  0  0  0  0  0
    3.0157   -4.2571    0.0925 C   0  0  0  0  0  0  0  0  0  0  0  0
    4.9211   -1.1091    4.9694 C   0  0  0  0  0  0  0  0  0  0  0  0
    3.9547   -0.3978    6.2925 Cl  0  0  0  0  0  0  0  0  0  0  0  0
    5.7800   -2.5341    5.6176 Cl  0  0  0  0  0  0  0  0  0  0  0  0
    6.0994    0.1420    4.4710 Cl  0  0  0  0  0  0  0  0  0  0  0  0
    3.2027   -3.3593    4.6156 H   0  0  0  0  0  0  0  0  0  0  0  0
    2.1854   -2.6535    3.3609 H   0  0  0  0  0  0  0  0  0  0  0  0
    2.2094   -1.9662    4.9677 H   0  0  0  0  0  0  0  0  0  0  0  0
    3.5272   -0.5382    3.4826 H   0  0  0  0  0  0  0  0  0  0  0  0
    5.7083   -1.5208    2.4396 H   0  0  0  0  0  0  0  0  0  0  0  0
    2.9501   -1.8518    1.2977 H   0  0  0  0  0  0  0  0  0  0  0  0
    4.0735   -0.5920    0.9961 H   0  0  0  0  0  0  0  0  0  0  0  0
    1.0496   -4.1745   -2.2732 H   0  0  0  0  0  0  0  0  0  0  0  0
    1.6187   -2.8148   -4.2724 H   0  0  0  0  0  0  0  0  0  0  0  0
    3.0663   -1.2950   -5.2129 H   0  0  0  0  0  0  0  0  0  0  0  0
    5.9863   -0.8149   -0.1777 H   0  0  0  0  0  0  0  0  0  0  0  0
    7.1852   -3.3857   -1.2346 H   0  0  0  0  0  0  0  0  0  0  0  0
    8.9774   -2.3820   -0.4531 H   0  0  0  0  0  0  0  0  0  0  0  0
    7.6195   -4.4230    0.8515 H   0  0  0  0  0  0  0  0  0  0  0  0
    7.3437   -2.9957    1.7425 H   0  0  0  0  0  0  0  0  0  0  0  0
    5.6195   -5.1750    1.6186 H   0  0  0  0  0  0  0  0  0  0  0  0
    5.6655   -3.6043    3.3587 H   0  0  0  0  0  0  0  0  0  0  0  0
    4.4528   -4.8816   -1.4970 H   0  0  0  0  0  0  0  0  0  0  0  0
    2.4809   -3.9933    1.0018 H   0  0  0  0  0  0  0  0  0  0  0  0
    2.8115   -5.3091   -0.1327 H   0  0  0  0  0  0  0  0  0  0  0  0
    4.1373   -3.9140    2.8475 H   0  0  0  0  0  0  0  0  0  0  0  0
  1  2  1  0
  1 27  1  0
  1 28  1  0
  1 29  1  0
  2  3  1  0
  2 23  1  0
  2 30  1  6
  3 19  1  0
  3  4  1  0
  3 31  1  6
  5  4  1  1
  4 32  1  0
  4 33  1  0
  5 14  1  0
  5 20  1  0
  5  6  1  0
  6 12  2  0
  6  7  1  0
  7 22  1  0
  7  8  2  0
  8  9  1  0
  8 34  1  0
  9 10  2  0
  9 35  1  0
 10 11  1  0
 10 12  1  0
 11 36  1  0
 12 13  1  0
 13 14  1  0
 14 15  1  0
 14 37  1  1
 15 16  1  0
 15 17  1  0
 15 38  1  6
 16 39  1  0
 17 18  1  0
 17 40  1  0
 17 41  1  0
 18 19  1  0
 18 20  1  0
 18 42  1  1
 19 43  1  0
 19 47  1  0
 20 21  1  6
 20 22  1  0
 21 44  1  0
 22 45  1  0
 22 46  1  0
 23 24  1  0
 23 25  1  0
 23 26  1  0
M  CHG  1  19   1
M  END
>  <i_m_ct_stereo_status>  (230) 
1

>  <s_m_source_file>  (230) 
/var/tmp/pbs.5076255.sched01/tmple0dc7g8/88jbw3zpwn.sdf

>  <i_m_source_file_index>  (230) 
23

>  <i_lp_mmshare_version>  (230) 
48012

>  <i_f3d_flags>  (230) 
0

>  <s_epik_input>  (230) 
Q2xDKENsKShDbClbQ0BIXShbQ0gzXSlbQ0BIXShbQ0gyXTEpW05IXVtDQEBIXShbQ0BAXTIoW09IXSlbQ0gyXTMpW0NIMl1bQ0BIXShbT0hdKVtDQEhdNE9jNWMoW09IXSlbY0hdW2NIXWMzYzVbQ0BAXTEyNA==

>  <s_epik_cmdline>  (230) 
J2VwaWtfcHl0aG9uJywgJy1waHQnLCAnMi4wJywgJy1waCcsICc3LjAnLCAnLXRuJywgJzgnLCAnLW1hJywgJzIwMCcsICctaW1hZScsICc8aW5maWxlLm1hZT4nLCAnLW9tYWUnLCAnPG91dGZpbGUubWFlPic=

>  <r_lp_tautomer_probability>  (230) 
1

>  <r_epik_Ionization_Penalty>  (230) 
0.110694

>  <r_epik_Ionization_Penalty_Charging>  (230) 
0.108163

>  <r_epik_Ionization_Penalty_Neutral>  (230) 
0.00253137

>  <r_epik_State_Penalty>  (230) 
0.0979665

>  <r_epik_Charging_Adjusted_Penalty>  (230) 
0.206129

>  <i_epik_Tot_Q>  (230) 
1

>  <i_epik_Tot_abs_Q>  (230) 
1

>  <s_lp_Force_Field>  (230) 
OPLS3e

>  <r_lp_Energy>  (230) 
97.5212

>  <b_lp_Chiralities_Consistent>  (230) 
1

>  <s_lp_Variant>  (230) 
66:0-1

>  <s_i_glide_gridfile>  (230) 
pfpi4k_grid

>  <i_i_glide_lignum>  (230) 
23

>  <i_i_glide_rotatable_bonds>  (230) 
5

>  <r_i_docking_score>  (230) 
-4.22428

>  <r_i_glide_ligand_efficiency>  (230) 
-0.162472

>  <r_i_glide_ligand_efficiency_sa>  (230) 
-0.481324

>  <r_i_glide_ligand_efficiency_ln>  (230) 
-0.992059

>  <r_i_glide_gscore>  (230) 
-4.22428

>  <r_i_glide_lipo>  (230) 
-0.867863

>  <r_i_glide_hbond>  (230) 
-0.159819

>  <r_i_glide_metal>  (230) 
-0

>  <r_i_glide_rewards>  (230) 
-0.533715

>  <r_i_glide_evdw>  (230) 
-24.5699

>  <r_i_glide_ecoul>  (230) 
-10.305

>  <r_i_glide_erotb>  (230) 
0.111353

>  <r_i_glide_esite>  (230) 
0

>  <r_i_glide_emodel>  (230) 
-44.3249

>  <r_i_glide_energy>  (230) 
-34.8748

>  <r_i_glide_einternal>  (230) 
1.90566

>  <r_i_glide_intrahb_reward>  (230) 
-0

>  <i_i_glide_confnum>  (230) 
5

>  <i_i_glide_posenum>  (230) 
22

>  <r_i_glide_eff_state_penalty>  (230) 
0

>  <ligand_id>  (230) 
66

>  <original_smiles>  (230) 
CC(C1CC23c4c5ccc(O)c4OC2C(O)CC(N1)C3(O)C5)C(Cl)(Cl)Cl

>  <smiles>  (230) 
[H]Oc1c([H])c([H])c2c3c1OC1([H])C([H])(O[H])C([H])([H])C4([H])C(O[H])(C2([H])[H])C31C([H])([H])C([H])(C([H])(C([H])([H])[H])C(Cl)(Cl)Cl)[N+]4([H])[H]

$$$$
66:0:2
     RDKit          3D

 47 51  0  0  1  0  0  0  0  0999 V2000
    4.3407   -2.4302    5.0517 C   0  0  0  0  0  0  0  0  0  0  0  0
    3.9870   -1.5794    3.7943 C   0  0  2  0  0  0  0  0  0  0  0  0
    4.7678   -2.0542    2.5103 C   0  0  2  0  0  0  0  0  0  0  0  0
    4.0509   -1.7075    1.1755 C   0  0  0  0  0  0  0  0  0  0  0  0
    4.5929   -2.4716   -0.0641 C   0  0  1  0  0  0  0  0  0  0  0  0
    3.6646   -2.4500   -1.1543 C   0  0  0  0  0  0  0  0  0  0  0  0
    2.5959   -3.3201   -1.0532 C   0  0  0  0  0  0  0  0  0  0  0  0
    1.8656   -3.4558   -2.2426 C   0  0  0  0  0  0  0  0  0  0  0  0
    2.2346   -2.6956   -3.3908 C   0  0  0  0  0  0  0  0  0  0  0  0
    3.4412   -1.9395   -3.4167 C   0  0  0  0  0  0  0  0  0  0  0  0
    3.8394   -1.3296   -4.5723 O   0  0  0  0  0  0  0  0  0  0  0  0
    4.2224   -1.8526   -2.2469 C   0  0  0  0  0  0  0  0  0  0  0  0
    5.5219   -1.4642   -2.0145 O   0  0  0  0  0  0  0  0  0  0  0  0
    5.8532   -1.8049   -0.6374 C   0  0  2  0  0  0  0  0  0  0  0  0
    7.0716   -2.7329   -0.3857 C   0  0  1  0  0  0  0  0  0  0  0  0
    8.2102   -1.9035   -0.2446 O   0  0  0  0  0  0  0  0  0  0  0  0
    6.9553   -3.6099    0.9216 C   0  0  0  0  0  0  0  0  0  0  0  0
    5.5374   -4.1646    1.3373 C   0  0  1  0  0  0  0  0  0  0  0  0
    5.0150   -3.5199    2.5626 N   0  0  0  0  0  0  0  0  0  0  0  0
    4.5742   -3.9768    0.1709 C   0  0  2  0  0  0  0  0  0  0  0  0
    5.1185   -4.7948   -0.8534 O   0  0  0  0  0  0  0  0  0  0  0  0
    3.0368   -4.2858    0.0676 C   0  0  0  0  0  0  0  0  0  0  0  0
    4.1037   -0.0521    4.1241 C   0  0  0  0  0  0  0  0  0  0  0  0
    3.1819    0.3399    5.6049 Cl  0  0  0  0  0  0  0  0  0  0  0  0
    5.8099    0.4179    4.3732 Cl  0  0  0  0  0  0  0  0  0  0  0  0
    3.3858    0.9672    2.8557 Cl  0  0  0  0  0  0  0  0  0  0  0  0
    5.3652   -2.2658    5.3888 H   0  0  0  0  0  0  0  0  0  0  0  0
    4.1981   -3.5003    4.9119 H   0  0  0  0  0  0  0  0  0  0  0  0
    3.6737   -2.2127    5.8869 H   0  0  0  0  0  0  0  0  0  0  0  0
    2.9258   -1.7742    3.6217 H   0  0  0  0  0  0  0  0  0  0  0  0
    5.7467   -1.5820    2.4999 H   0  0  0  0  0  0  0  0  0  0  0  0
    2.9826   -1.8902    1.2984 H   0  0  0  0  0  0  0  0  0  0  0  0
    4.1248   -0.6478    0.9434 H   0  0  0  0  0  0  0  0  0  0  0  0
    1.0410   -4.1657   -2.3084 H   0  0  0  0  0  0  0  0  0  0  0  0
    1.6423   -2.7660   -4.2928 H   0  0  0  0  0  0  0  0  0  0  0  0
    4.5207   -0.6931   -4.4191 H   0  0  0  0  0  0  0  0  0  0  0  0
    6.0141   -0.8408   -0.1477 H   0  0  0  0  0  0  0  0  0  0  0  0
    7.2115   -3.3932   -1.2431 H   0  0  0  0  0  0  0  0  0  0  0  0
    8.9911   -2.3913   -0.4710 H   0  0  0  0  0  0  0  0  0  0  0  0
    7.6454   -4.4508    0.8325 H   0  0  0  0  0  0  0  0  0  0  0  0
    7.3605   -3.0329    1.7373 H   0  0  0  0  0  0  0  0  0  0  0  0
    5.6375   -5.2187    1.5719 H   0  0  0  0  0  0  0  0  0  0  0  0
    5.6726   -3.6828    3.3089 H   0  0  0  0  0  0  0  0  0  0  0  0
    4.4578   -4.9130   -1.5258 H   0  0  0  0  0  0  0  0  0  0  0  0
    2.4999   -4.0261    0.9749 H   0  0  0  0  0  0  0  0  0  0  0  0
    2.8293   -5.3340   -0.1689 H   0  0  0  0  0  0  0  0  0  0  0  0
    4.1442   -3.9750    2.7919 H   0  0  0  0  0  0  0  0  0  0  0  0
  1  2  1  0
  1 27  1  0
  1 28  1  0
  1 29  1  0
  2  3  1  0
  2 23  1  0
  2 30  1  6
  3 19  1  0
  3  4  1  0
  3 31  1  6
  5  4  1  1
  4 32  1  0
  4 33  1  0
  5 14  1  0
  5 20  1  0
  5  6  1  0
  6 12  2  0
  6  7  1  0
  7 22  1  0
  7  8  2  0
  8  9  1  0
  8 34  1  0
  9 10  2  0
  9 35  1  0
 10 11  1  0
 10 12  1  0
 11 36  1  0
 12 13  1  0
 13 14  1  0
 14 15  1  0
 14 37  1  1
 15 16  1  0
 15 17  1  0
 15 38  1  6
 16 39  1  0
 17 18  1  0
 17 40  1  0
 17 41  1  0
 18 19  1  0
 18 20  1  0
 18 42  1  1
 19 43  1  0
 19 47  1  0
 20 21  1  6
 20 22  1  0
 21 44  1  0
 22 45  1  0
 22 46  1  0
 23 24  1  0
 23 25  1  0
 23 26  1  0
M  CHG  1  19   1
M  END
>  <i_m_ct_stereo_status>  (231) 
1

>  <s_m_source_file>  (231) 
/var/tmp/pbs.5076255.sched01/tmple0dc7g8/88jbw3zpwn.sdf

>  <i_m_source_file_index>  (231) 
23

>  <i_lp_mmshare_version>  (231) 
48012

>  <i_f3d_flags>  (231) 
0

>  <s_epik_input>  (231) 
Q2xDKENsKShDbClbQ0BIXShbQ0gzXSlbQ0BIXShbQ0gyXTEpW05IXVtDQEBIXShbQ0BAXTIoW09IXSlbQ0gyXTMpW0NIMl1bQ0BIXShbT0hdKVtDQEhdNE9jNWMoW09IXSlbY0hdW2NIXWMzYzVbQ0BAXTEyNA==

>  <s_epik_cmdline>  (231) 
J2VwaWtfcHl0aG9uJywgJy1waHQnLCAnMi4wJywgJy1waCcsICc3LjAnLCAnLXRuJywgJzgnLCAnLW1hJywgJzIwMCcsICctaW1hZScsICc8aW5maWxlLm1hZT4nLCAnLW9tYWUnLCAnPG91dGZpbGUubWFlPic=

>  <r_lp_tautomer_probability>  (231) 
1

>  <r_epik_Ionization_Penalty>  (231) 
0.110694

>  <r_epik_Ionization_Penalty_Charging>  (231) 
0.108163

>  <r_epik_Ionization_Penalty_Neutral>  (231) 
0.00253137

>  <r_epik_State_Penalty>  (231) 
0.0979665

>  <r_epik_Charging_Adjusted_Penalty>  (231) 
0.206129

>  <i_epik_Tot_Q>  (231) 
1

>  <i_epik_Tot_abs_Q>  (231) 
1

>  <s_lp_Force_Field>  (231) 
OPLS3e

>  <r_lp_Energy>  (231) 
97.5212

>  <b_lp_Chiralities_Consistent>  (231) 
1

>  <s_lp_Variant>  (231) 
66:0-1

>  <s_i_glide_gridfile>  (231) 
pfpi4k_grid

>  <i_i_glide_lignum>  (231) 
23

>  <i_i_glide_rotatable_bonds>  (231) 
5

>  <r_i_docking_score>  (231) 
-3.9841

>  <r_i_glide_ligand_efficiency>  (231) 
-0.153235

>  <r_i_glide_ligand_efficiency_sa>  (231) 
-0.453957

>  <r_i_glide_ligand_efficiency_ln>  (231) 
-0.935654

>  <r_i_glide_gscore>  (231) 
-3.9841

>  <r_i_glide_lipo>  (231) 
-0.890068

>  <r_i_glide_hbond>  (231) 
-0.192452

>  <r_i_glide_metal>  (231) 
-0

>  <r_i_glide_rewards>  (231) 
-0.533715

>  <r_i_glide_evdw>  (231) 
-25.5136

>  <r_i_glide_ecoul>  (231) 
-8.0236

>  <r_i_glide_erotb>  (231) 
0.111353

>  <r_i_glide_esite>  (231) 
0

>  <r_i_glide_emodel>  (231) 
-40.8365

>  <r_i_glide_energy>  (231) 
-33.5372

>  <r_i_glide_einternal>  (231) 
4.98526

>  <r_i_glide_intrahb_reward>  (231) 
-0

>  <i_i_glide_confnum>  (231) 
6

>  <i_i_glide_posenum>  (231) 
10

>  <r_i_glide_eff_state_penalty>  (231) 
0

>  <ligand_id>  (231) 
66

>  <original_smiles>  (231) 
CC(C1CC23c4c5ccc(O)c4OC2C(O)CC(N1)C3(O)C5)C(Cl)(Cl)Cl

>  <smiles>  (231) 
[H]Oc1c([H])c([H])c2c3c1OC1([H])C([H])(O[H])C([H])([H])C4([H])C(O[H])(C2([H])[H])C31C([H])([H])C([H])(C([H])(C([H])([H])[H])C(Cl)(Cl)Cl)[N+]4([H])[H]

$$$$
66:1:0
     RDKit          3D

 46 50  0  0  1  0  0  0  0  0999 V2000
    0.3314   -7.4023    5.8157 C   0  0  0  0  0  0  0  0  0  0  0  0
    0.1628   -8.6014    4.8321 C   0  0  2  0  0  0  0  0  0  0  0  0
    1.5339   -9.3980    4.7997 C   0  0  2  0  0  0  0  0  0  0  0  0
    2.7818   -8.5060    4.5544 C   0  0  0  0  0  0  0  0  0  0  0  0
    4.0530   -9.2560    4.0690 C   0  0  1  0  0  0  0  0  0  0  0  0
    4.9285   -8.3715    3.3195 C   0  0  0  0  0  0  0  0  0  0  0  0
    4.5180   -8.0708    2.0416 C   0  0  0  0  0  0  0  0  0  0  0  0
    5.5479   -7.4605    1.2676 C   0  0  0  0  0  0  0  0  0  0  0  0
    6.8001   -7.1469    1.8877 C   0  0  0  0  0  0  0  0  0  0  0  0
    7.1298   -7.6296    3.1853 C   0  0  0  0  0  0  0  0  0  0  0  0
    8.3943   -7.4582    3.6737 O   0  0  0  0  0  0  0  0  0  0  0  0
    6.1449   -8.3164    3.9599 C   0  0  0  0  0  0  0  0  0  0  0  0
    6.2172   -9.1279    5.0653 O   0  0  0  0  0  0  0  0  0  0  0  0
    4.8977   -9.7294    5.2679 C   0  0  2  0  0  0  0  0  0  0  0  0
    4.7691  -11.2705    5.3534 C   0  0  1  0  0  0  0  0  0  0  0  0
    4.9355  -11.6963    6.7072 O   0  0  0  0  0  0  0  0  0  0  0  0
    3.3813  -11.8500    4.8331 C   0  0  0  0  0  0  0  0  0  0  0  0
    2.7384  -11.1946    3.5393 C   0  0  1  0  0  0  0  0  0  0  0  0
    1.4757  -10.5198    3.8445 N   0  0  0  0  0  0  0  0  0  0  0  0
    3.7342  -10.2242    2.9332 C   0  0  2  0  0  0  0  0  0  0  0  0
    4.8348  -10.9976    2.4805 O   0  0  0  0  0  0  0  0  0  0  0  0
    3.4974   -9.2071    1.7551 C   0  0  0  0  0  0  0  0  0  0  0  0
   -0.5591   -8.1347    3.4984 C   0  0  0  0  0  0  0  0  0  0  0  0
   -2.1154   -7.3750    3.9137 Cl  0  0  0  0  0  0  0  0  0  0  0  0
    0.3872   -6.9411    2.5785 Cl  0  0  0  0  0  0  0  0  0  0  0  0
   -1.0313   -9.4685    2.4094 Cl  0  0  0  0  0  0  0  0  0  0  0  0
    0.9830   -6.6261    5.4129 H   0  0  0  0  0  0  0  0  0  0  0  0
    0.7743   -7.7335    6.7566 H   0  0  0  0  0  0  0  0  0  0  0  0
   -0.5991   -6.9022    6.0653 H   0  0  0  0  0  0  0  0  0  0  0  0
   -0.5458   -9.2730    5.3190 H   0  0  0  0  0  0  0  0  0  0  0  0
    1.6407   -9.7973    5.8153 H   0  0  0  0  0  0  0  0  0  0  0  0
    2.5543   -7.7083    3.8613 H   0  0  0  0  0  0  0  0  0  0  0  0
    2.9982   -7.9688    5.4793 H   0  0  0  0  0  0  0  0  0  0  0  0
    5.3783   -7.2622    0.2194 H   0  0  0  0  0  0  0  0  0  0  0  0
    7.5502   -6.6303    1.3031 H   0  0  0  0  0  0  0  0  0  0  0  0
    9.0356   -7.2276    3.0237 H   0  0  0  0  0  0  0  0  0  0  0  0
    4.5318   -9.2866    6.1980 H   0  0  0  0  0  0  0  0  0  0  0  0
    5.5844  -11.7058    4.7740 H   0  0  0  0  0  0  0  0  0  0  0  0
    4.1190  -11.6064    7.1603 H   0  0  0  0  0  0  0  0  0  0  0  0
    3.5732  -12.8987    4.6147 H   0  0  0  0  0  0  0  0  0  0  0  0
    2.6586  -11.8651    5.6528 H   0  0  0  0  0  0  0  0  0  0  0  0
    2.5444  -11.9985    2.8256 H   0  0  0  0  0  0  0  0  0  0  0  0
    0.7554  -11.1851    4.1340 H   0  0  0  0  0  0  0  0  0  0  0  0
    4.5693  -11.4364    1.6416 H   0  0  0  0  0  0  0  0  0  0  0  0
    2.5189   -8.7418    1.8123 H   0  0  0  0  0  0  0  0  0  0  0  0
    3.6077   -9.6498    0.7712 H   0  0  0  0  0  0  0  0  0  0  0  0
  1  2  1  0
  1 27  1  0
  1 28  1  0
  1 29  1  0
  2  3  1  0
  2 23  1  0
  2 30  1  1
  3 19  1  0
  3  4  1  0
  3 31  1  1
  5  4  1  1
  4 32  1  0
  4 33  1  0
  5 14  1  0
  5 20  1  0
  5  6  1  0
  6 12  2  0
  6  7  1  0
  7 22  1  0
  7  8  2  0
  8  9  1  0
  8 34  1  0
  9 10  2  0
  9 35  1  0
 10 11  1  0
 10 12  1  0
 11 36  1  0
 12 13  1  0
 13 14  1  0
 14 15  1  0
 14 37  1  1
 15 16  1  0
 15 17  1  0
 15 38  1  6
 16 39  1  0
 17 18  1  0
 17 40  1  0
 17 41  1  0
 18 19  1  0
 18 20  1  0
 18 42  1  6
 19 43  1  0
 20 21  1  6
 20 22  1  0
 21 44  1  0
 22 45  1  0
 22 46  1  0
 23 24  1  0
 23 25  1  0
 23 26  1  0
M  END
>  <i_m_ct_stereo_status>  (232) 
1

>  <s_m_source_file>  (232) 
/var/tmp/pbs.5076255.sched01/tmple0dc7g8/88jbw3zpwn.sdf

>  <i_m_source_file_index>  (232) 
24

>  <i_lp_mmshare_version>  (232) 
48012

>  <i_f3d_flags>  (232) 
0

>  <s_epik_input>  (232) 
Q2xDKENsKShDbClbQ0BIXShbQ0gzXSlbQ0BIXShbQ0gyXTEpW05IXVtDQEBIXShbQ0BAXTIoW09IXSlbQ0gyXTMpW0NIMl1bQ0BIXShbT0hdKVtDQEhdNE9jNWMoW09IXSlbY0hdW2NIXWMzYzVbQ0BAXTEyNA==

>  <s_epik_cmdline>  (232) 
J2VwaWtfcHl0aG9uJywgJy1waHQnLCAnMi4wJywgJy1waCcsICc3LjAnLCAnLXRuJywgJzgnLCAnLW1hJywgJzIwMCcsICctaW1hZScsICc8aW5maWxlLm1hZT4nLCAnLW9tYWUnLCAnPG91dGZpbGUubWFlPic=

>  <r_lp_tautomer_probability>  (232) 
1

>  <r_epik_Ionization_Penalty>  (232) 
1.06127

>  <r_epik_Ionization_Penalty_Charging>  (232) 
0

>  <r_epik_Ionization_Penalty_Neutral>  (232) 
1.06127

>  <r_epik_State_Penalty>  (232) 
1.11461

>  <r_epik_Charging_Adjusted_Penalty>  (232) 
1.11461

>  <i_epik_Tot_Q>  (232) 
0

>  <i_epik_Tot_abs_Q>  (232) 
0

>  <s_lp_Force_Field>  (232) 
OPLS3e

>  <r_lp_Energy>  (232) 
95.53

>  <b_lp_Chiralities_Consistent>  (232) 
1

>  <s_lp_Variant>  (232) 
66:0-2

>  <s_i_glide_gridfile>  (232) 
pfpi4k_grid

>  <i_i_glide_lignum>  (232) 
24

>  <i_i_glide_rotatable_bonds>  (232) 
5

>  <r_i_docking_score>  (232) 
-3.28146

>  <r_i_glide_ligand_efficiency>  (232) 
-0.12621

>  <r_i_glide_ligand_efficiency_sa>  (232) 
-0.373896

>  <r_i_glide_ligand_efficiency_ln>  (232) 
-0.770639

>  <r_i_glide_gscore>  (232) 
-3.28146

>  <r_i_glide_lipo>  (232) 
-0.398337

>  <r_i_glide_hbond>  (232) 
0

>  <r_i_glide_metal>  (232) 
-0

>  <r_i_glide_rewards>  (232) 
-0.540588

>  <r_i_glide_evdw>  (232) 
-23.8483

>  <r_i_glide_ecoul>  (232) 
-8.41303

>  <r_i_glide_erotb>  (232) 
0.111836

>  <r_i_glide_esite>  (232) 
0

>  <r_i_glide_emodel>  (232) 
-38.3575

>  <r_i_glide_energy>  (232) 
-32.2613

>  <r_i_glide_einternal>  (232) 
2.99231

>  <r_i_glide_intrahb_reward>  (232) 
-0

>  <i_i_glide_confnum>  (232) 
6

>  <i_i_glide_posenum>  (232) 
40

>  <r_i_glide_eff_state_penalty>  (232) 
0

>  <ligand_id>  (232) 
66

>  <original_smiles>  (232) 
CC(C1CC23c4c5ccc(O)c4OC2C(O)CC(N1)C3(O)C5)C(Cl)(Cl)Cl

>  <smiles>  (232) 
[H]Oc1c([H])c([H])c2c3c1OC1([H])C([H])(O[H])C([H])([H])C4([H])N([H])C([H])(C([H])(C([H])([H])[H])C(Cl)(Cl)Cl)C([H])([H])C31C4(O[H])C2([H])[H]

$$$$
66:1:1
     RDKit          3D

 46 50  0  0  1  0  0  0  0  0999 V2000
    4.5732   -7.0410    0.8182 C   0  0  0  0  0  0  0  0  0  0  0  0
    4.6443   -8.4339    1.5082 C   0  0  2  0  0  0  0  0  0  0  0  0
    3.2302   -8.7198    2.1711 C   0  0  2  0  0  0  0  0  0  0  0  0
    2.7170   -7.5798    3.0982 C   0  0  0  0  0  0  0  0  0  0  0  0
    1.5903   -7.9821    4.0938 C   0  0  1  0  0  0  0  0  0  0  0  0
    1.5986   -7.1393    5.2691 C   0  0  0  0  0  0  0  0  0  0  0  0
    2.5703   -7.4141    6.2056 C   0  0  0  0  0  0  0  0  0  0  0  0
    2.3784   -6.7488    7.4407 C   0  0  0  0  0  0  0  0  0  0  0  0
    1.2651   -5.8562    7.5835 C   0  0  0  0  0  0  0  0  0  0  0  0
    0.2383   -5.7834    6.5956 C   0  0  0  0  0  0  0  0  0  0  0  0
   -0.8822   -5.0416    6.8270 O   0  0  0  0  0  0  0  0  0  0  0  0
    0.3811   -6.4989    5.3576 C   0  0  0  0  0  0  0  0  0  0  0  0
   -0.4867   -6.8445    4.3796 O   0  0  0  0  0  0  0  0  0  0  0  0
    0.2001   -7.7656    3.4666 C   0  0  2  0  0  0  0  0  0  0  0  0
   -0.4068   -9.1618    3.1828 C   0  0  1  0  0  0  0  0  0  0  0  0
   -1.3131   -9.0752    2.0849 O   0  0  0  0  0  0  0  0  0  0  0  0
    0.6675  -10.2876    2.8516 C   0  0  0  0  0  0  0  0  0  0  0  0
    2.0200  -10.3117    3.6763 C   0  0  1  0  0  0  0  0  0  0  0  0
    3.1967  -10.0344    2.8382 N   0  0  0  0  0  0  0  0  0  0  0  0
    1.9154   -9.3025    4.8067 C   0  0  2  0  0  0  0  0  0  0  0  0
    0.9133   -9.8142    5.6894 O   0  0  0  0  0  0  0  0  0  0  0  0
    3.0385   -8.8249    5.7937 C   0  0  0  0  0  0  0  0  0  0  0  0
    5.9715   -8.5950    2.3396 C   0  0  0  0  0  0  0  0  0  0  0  0
    7.3770   -8.2509    1.2889 Cl  0  0  0  0  0  0  0  0  0  0  0  0
    6.0834   -7.4846    3.7313 Cl  0  0  0  0  0  0  0  0  0  0  0  0
    6.2286  -10.2655    2.9217 Cl  0  0  0  0  0  0  0  0  0  0  0  0
    4.5493   -6.2286    1.5459 H   0  0  0  0  0  0  0  0  0  0  0  0
    3.6809   -6.9541    0.1988 H   0  0  0  0  0  0  0  0  0  0  0  0
    5.4147   -6.8473    0.1586 H   0  0  0  0  0  0  0  0  0  0  0  0
    4.7229   -9.1571    0.6986 H   0  0  0  0  0  0  0  0  0  0  0  0
    2.5384   -8.7504    1.3376 H   0  0  0  0  0  0  0  0  0  0  0  0
    3.5266   -7.1484    3.6584 H   0  0  0  0  0  0  0  0  0  0  0  0
    2.3748   -6.7514    2.4688 H   0  0  0  0  0  0  0  0  0  0  0  0
    3.0193   -6.9576    8.2815 H   0  0  0  0  0  0  0  0  0  0  0  0
    1.1452   -5.3290    8.5126 H   0  0  0  0  0  0  0  0  0  0  0  0
   -0.9190   -4.7087    7.6944 H   0  0  0  0  0  0  0  0  0  0  0  0
    0.2897   -7.2205    2.5276 H   0  0  0  0  0  0  0  0  0  0  0  0
   -0.9832   -9.4591    4.0516 H   0  0  0  0  0  0  0  0  0  0  0  0
   -0.8493   -9.2350    1.2771 H   0  0  0  0  0  0  0  0  0  0  0  0
    0.1823  -11.2444    3.0352 H   0  0  0  0  0  0  0  0  0  0  0  0
    0.8886  -10.2771    1.7861 H   0  0  0  0  0  0  0  0  0  0  0  0
    2.1376  -11.3140    4.1026 H   0  0  0  0  0  0  0  0  0  0  0  0
    3.3682  -10.7894    2.1621 H   0  0  0  0  0  0  0  0  0  0  0  0
    1.1958  -10.6526    6.0235 H   0  0  0  0  0  0  0  0  0  0  0  0
    4.0029   -8.7228    5.2889 H   0  0  0  0  0  0  0  0  0  0  0  0
    3.1819   -9.4848    6.6446 H   0  0  0  0  0  0  0  0  0  0  0  0
  1  2  1  0
  1 27  1  0
  1 28  1  0
  1 29  1  0
  2  3  1  0
  2 23  1  0
  2 30  1  6
  3 19  1  0
  3  4  1  0
  3 31  1  6
  5  4  1  6
  4 32  1  0
  4 33  1  0
  5 14  1  0
  5 20  1  0
  5  6  1  0
  6 12  2  0
  6  7  1  0
  7 22  1  0
  7  8  2  0
  8  9  1  0
  8 34  1  0
  9 10  2  0
  9 35  1  0
 10 11  1  0
 10 12  1  0
 11 36  1  0
 12 13  1  0
 13 14  1  0
 14 15  1  0
 14 37  1  6
 15 16  1  0
 15 17  1  0
 15 38  1  1
 16 39  1  0
 17 18  1  0
 17 40  1  0
 17 41  1  0
 18 19  1  0
 18 20  1  0
 18 42  1  1
 19 43  1  0
 20 21  1  1
 20 22  1  0
 21 44  1  0
 22 45  1  0
 22 46  1  0
 23 24  1  0
 23 25  1  0
 23 26  1  0
M  END
>  <i_m_ct_stereo_status>  (233) 
1

>  <s_m_source_file>  (233) 
/var/tmp/pbs.5076255.sched01/tmple0dc7g8/88jbw3zpwn.sdf

>  <i_m_source_file_index>  (233) 
24

>  <i_lp_mmshare_version>  (233) 
48012

>  <i_f3d_flags>  (233) 
0

>  <s_epik_input>  (233) 
Q2xDKENsKShDbClbQ0BIXShbQ0gzXSlbQ0BIXShbQ0gyXTEpW05IXVtDQEBIXShbQ0BAXTIoW09IXSlbQ0gyXTMpW0NIMl1bQ0BIXShbT0hdKVtDQEhdNE9jNWMoW09IXSlbY0hdW2NIXWMzYzVbQ0BAXTEyNA==

>  <s_epik_cmdline>  (233) 
J2VwaWtfcHl0aG9uJywgJy1waHQnLCAnMi4wJywgJy1waCcsICc3LjAnLCAnLXRuJywgJzgnLCAnLW1hJywgJzIwMCcsICctaW1hZScsICc8aW5maWxlLm1hZT4nLCAnLW9tYWUnLCAnPG91dGZpbGUubWFlPic=

>  <r_lp_tautomer_probability>  (233) 
1

>  <r_epik_Ionization_Penalty>  (233) 
1.06127

>  <r_epik_Ionization_Penalty_Charging>  (233) 
0

>  <r_epik_Ionization_Penalty_Neutral>  (233) 
1.06127

>  <r_epik_State_Penalty>  (233) 
1.11461

>  <r_epik_Charging_Adjusted_Penalty>  (233) 
1.11461

>  <i_epik_Tot_Q>  (233) 
0

>  <i_epik_Tot_abs_Q>  (233) 
0

>  <s_lp_Force_Field>  (233) 
OPLS3e

>  <r_lp_Energy>  (233) 
95.53

>  <b_lp_Chiralities_Consistent>  (233) 
1

>  <s_lp_Variant>  (233) 
66:0-2

>  <s_i_glide_gridfile>  (233) 
pfpi4k_grid

>  <i_i_glide_lignum>  (233) 
24

>  <i_i_glide_rotatable_bonds>  (233) 
5

>  <r_i_docking_score>  (233) 
-3.07365

>  <r_i_glide_ligand_efficiency>  (233) 
-0.118217

>  <r_i_glide_ligand_efficiency_sa>  (233) 
-0.350218

>  <r_i_glide_ligand_efficiency_ln>  (233) 
-0.721836

>  <r_i_glide_gscore>  (233) 
-3.07365

>  <r_i_glide_lipo>  (233) 
-0.322615

>  <r_i_glide_hbond>  (233) 
-0.0566114

>  <r_i_glide_metal>  (233) 
-0

>  <r_i_glide_rewards>  (233) 
-0.540588

>  <r_i_glide_evdw>  (233) 
-26.5151

>  <r_i_glide_ecoul>  (233) 
-6.2661

>  <r_i_glide_erotb>  (233) 
0.111836

>  <r_i_glide_esite>  (233) 
0

>  <r_i_glide_emodel>  (233) 
-38.6595

>  <r_i_glide_energy>  (233) 
-32.7812

>  <r_i_glide_einternal>  (233) 
2.54406

>  <r_i_glide_intrahb_reward>  (233) 
-0

>  <i_i_glide_confnum>  (233) 
3

>  <i_i_glide_posenum>  (233) 
24

>  <r_i_glide_eff_state_penalty>  (233) 
0

>  <ligand_id>  (233) 
66

>  <original_smiles>  (233) 
CC(C1CC23c4c5ccc(O)c4OC2C(O)CC(N1)C3(O)C5)C(Cl)(Cl)Cl

>  <smiles>  (233) 
[H]Oc1c([H])c([H])c2c3c1OC1([H])C([H])(O[H])C([H])([H])C4([H])N([H])C([H])(C([H])(C([H])([H])[H])C(Cl)(Cl)Cl)C([H])([H])C31C4(O[H])C2([H])[H]

$$$$
66:1:2
     RDKit          3D

 46 50  0  0  1  0  0  0  0  0999 V2000
    4.4180   -7.0171    0.9282 C   0  0  0  0  0  0  0  0  0  0  0  0
    4.4489   -8.4065    1.6272 C   0  0  2  0  0  0  0  0  0  0  0  0
    3.0170   -8.6647    2.2608 C   0  0  2  0  0  0  0  0  0  0  0  0
    2.5069   -7.5129    3.1748 C   0  0  0  0  0  0  0  0  0  0  0  0
    1.3530   -7.8888    4.1462 C   0  0  1  0  0  0  0  0  0  0  0  0
    1.3560   -7.0452    5.3206 C   0  0  0  0  0  0  0  0  0  0  0  0
    2.2982   -7.3434    6.2815 C   0  0  0  0  0  0  0  0  0  0  0  0
    2.0950   -6.6780    7.5143 C   0  0  0  0  0  0  0  0  0  0  0  0
    0.9979   -5.7643    7.6358 C   0  0  0  0  0  0  0  0  0  0  0  0
   -0.0061   -5.6714    6.6275 C   0  0  0  0  0  0  0  0  0  0  0  0
   -1.1244   -4.9245    6.8495 O   0  0  0  0  0  0  0  0  0  0  0  0
    0.1510   -6.3817    5.3904 C   0  0  0  0  0  0  0  0  0  0  0  0
   -0.7085   -6.7181    4.3967 O   0  0  0  0  0  0  0  0  0  0  0  0
   -0.0183   -7.6436    3.4921 C   0  0  2  0  0  0  0  0  0  0  0  0
   -0.6442   -9.0267    3.1896 C   0  0  1  0  0  0  0  0  0  0  0  0
   -1.5172   -8.9293    2.0780 O   0  0  0  0  0  0  0  0  0  0  0  0
    0.4097  -10.1789    2.8859 C   0  0  0  0  0  0  0  0  0  0  0  0
    1.7405  -10.2322    3.7426 C   0  0  1  0  0  0  0  0  0  0  0  0
    2.9399   -9.9777    2.9271 N   0  0  0  0  0  0  0  0  0  0  0  0
    1.6262   -9.2127    4.8672 C   0  0  2  0  0  0  0  0  0  0  0  0
    0.5682   -9.6720    5.7146 O   0  0  0  0  0  0  0  0  0  0  0  0
    2.7395   -8.7652    5.8806 C   0  0  0  0  0  0  0  0  0  0  0  0
    5.7539   -8.5882    2.4891 C   0  0  0  0  0  0  0  0  0  0  0  0
    7.1884   -8.2570    1.4736 Cl  0  0  0  0  0  0  0  0  0  0  0  0
    5.8534   -7.4844    3.8867 Cl  0  0  0  0  0  0  0  0  0  0  0  0
    5.9678  -10.2647    3.0706 Cl  0  0  0  0  0  0  0  0  0  0  0  0
    4.3955   -6.2019    1.6530 H   0  0  0  0  0  0  0  0  0  0  0  0
    3.5372   -6.9131    0.2952 H   0  0  0  0  0  0  0  0  0  0  0  0
    5.2824   -6.8459    0.2865 H   0  0  0  0  0  0  0  0  0  0  0  0
    4.5334   -9.1348    0.8222 H   0  0  0  0  0  0  0  0  0  0  0  0
    2.3402   -8.6839    1.4129 H   0  0  0  0  0  0  0  0  0  0  0  0
    3.3127   -7.0972    3.7539 H   0  0  0  0  0  0  0  0  0  0  0  0
    2.1953   -6.6784    2.5384 H   0  0  0  0  0  0  0  0  0  0  0  0
    2.7143   -6.9012    8.3679 H   0  0  0  0  0  0  0  0  0  0  0  0
    0.8690   -5.2351    8.5630 H   0  0  0  0  0  0  0  0  0  0  0  0
   -1.2123   -4.6659    7.7396 H   0  0  0  0  0  0  0  0  0  0  0  0
    0.0986   -7.0999    2.5554 H   0  0  0  0  0  0  0  0  0  0  0  0
   -1.2637   -9.3111    4.0352 H   0  0  0  0  0  0  0  0  0  0  0  0
   -1.0266   -9.0550    1.2828 H   0  0  0  0  0  0  0  0  0  0  0  0
   -0.1262  -11.1024    3.0744 H   0  0  0  0  0  0  0  0  0  0  0  0
    0.6573  -10.2101    1.8275 H   0  0  0  0  0  0  0  0  0  0  0  0
    1.8337  -11.2340    4.1781 H   0  0  0  0  0  0  0  0  0  0  0  0
    3.1135  -10.7357    2.2583 H   0  0  0  0  0  0  0  0  0  0  0  0
   -0.0514  -10.1650    5.2059 H   0  0  0  0  0  0  0  0  0  0  0  0
    3.7164   -8.6862    5.3979 H   0  0  0  0  0  0  0  0  0  0  0  0
    2.8464   -9.4350    6.7300 H   0  0  0  0  0  0  0  0  0  0  0  0
  1  2  1  0
  1 27  1  0
  1 28  1  0
  1 29  1  0
  2  3  1  0
  2 23  1  0
  2 30  1  6
  3 19  1  0
  3  4  1  0
  3 31  1  6
  5  4  1  6
  4 32  1  0
  4 33  1  0
  5 14  1  0
  5 20  1  0
  5  6  1  0
  6 12  2  0
  6  7  1  0
  7 22  1  0
  7  8  2  0
  8  9  1  0
  8 34  1  0
  9 10  2  0
  9 35  1  0
 10 11  1  0
 10 12  1  0
 11 36  1  0
 12 13  1  0
 13 14  1  0
 14 15  1  0
 14 37  1  6
 15 16  1  0
 15 17  1  0
 15 38  1  1
 16 39  1  0
 17 18  1  0
 17 40  1  0
 17 41  1  0
 18 19  1  0
 18 20  1  0
 18 42  1  1
 19 43  1  0
 20 21  1  1
 20 22  1  0
 21 44  1  0
 22 45  1  0
 22 46  1  0
 23 24  1  0
 23 25  1  0
 23 26  1  0
M  END
>  <i_m_ct_stereo_status>  (234) 
1

>  <s_m_source_file>  (234) 
/var/tmp/pbs.5076255.sched01/tmple0dc7g8/88jbw3zpwn.sdf

>  <i_m_source_file_index>  (234) 
24

>  <i_lp_mmshare_version>  (234) 
48012

>  <i_f3d_flags>  (234) 
0

>  <s_epik_input>  (234) 
Q2xDKENsKShDbClbQ0BIXShbQ0gzXSlbQ0BIXShbQ0gyXTEpW05IXVtDQEBIXShbQ0BAXTIoW09IXSlbQ0gyXTMpW0NIMl1bQ0BIXShbT0hdKVtDQEhdNE9jNWMoW09IXSlbY0hdW2NIXWMzYzVbQ0BAXTEyNA==

>  <s_epik_cmdline>  (234) 
J2VwaWtfcHl0aG9uJywgJy1waHQnLCAnMi4wJywgJy1waCcsICc3LjAnLCAnLXRuJywgJzgnLCAnLW1hJywgJzIwMCcsICctaW1hZScsICc8aW5maWxlLm1hZT4nLCAnLW9tYWUnLCAnPG91dGZpbGUubWFlPic=

>  <r_lp_tautomer_probability>  (234) 
1

>  <r_epik_Ionization_Penalty>  (234) 
1.06127

>  <r_epik_Ionization_Penalty_Charging>  (234) 
0

>  <r_epik_Ionization_Penalty_Neutral>  (234) 
1.06127

>  <r_epik_State_Penalty>  (234) 
1.11461

>  <r_epik_Charging_Adjusted_Penalty>  (234) 
1.11461

>  <i_epik_Tot_Q>  (234) 
0

>  <i_epik_Tot_abs_Q>  (234) 
0

>  <s_lp_Force_Field>  (234) 
OPLS3e

>  <r_lp_Energy>  (234) 
95.53

>  <b_lp_Chiralities_Consistent>  (234) 
1

>  <s_lp_Variant>  (234) 
66:0-2

>  <s_i_glide_gridfile>  (234) 
pfpi4k_grid

>  <i_i_glide_lignum>  (234) 
24

>  <i_i_glide_rotatable_bonds>  (234) 
5

>  <r_i_docking_score>  (234) 
-2.9055

>  <r_i_glide_ligand_efficiency>  (234) 
-0.11175

>  <r_i_glide_ligand_efficiency_sa>  (234) 
-0.331059

>  <r_i_glide_ligand_efficiency_ln>  (234) 
-0.682347

>  <r_i_glide_gscore>  (234) 
-2.9055

>  <r_i_glide_lipo>  (234) 
-0.340427

>  <r_i_glide_hbond>  (234) 
0

>  <r_i_glide_metal>  (234) 
-0

>  <r_i_glide_rewards>  (234) 
-0.540588

>  <r_i_glide_evdw>  (234) 
-26.5968

>  <r_i_glide_ecoul>  (234) 
-5.37653

>  <r_i_glide_erotb>  (234) 
0.111836

>  <r_i_glide_esite>  (234) 
0

>  <r_i_glide_emodel>  (234) 
-37.1969

>  <r_i_glide_energy>  (234) 
-31.9733

>  <r_i_glide_einternal>  (234) 
2.70941

>  <r_i_glide_intrahb_reward>  (234) 
-0

>  <i_i_glide_confnum>  (234) 
3

>  <i_i_glide_posenum>  (234) 
29

>  <r_i_glide_eff_state_penalty>  (234) 
0

>  <ligand_id>  (234) 
66

>  <original_smiles>  (234) 
CC(C1CC23c4c5ccc(O)c4OC2C(O)CC(N1)C3(O)C5)C(Cl)(Cl)Cl

>  <smiles>  (234) 
[H]Oc1c([H])c([H])c2c3c1OC1([H])C([H])(O[H])C([H])([H])C4([H])N([H])C([H])(C([H])(C([H])([H])[H])C(Cl)(Cl)Cl)C([H])([H])C31C4(O[H])C2([H])[H]

$$$$
69:0:0
     RDKit          3D

 64 70  0  0  1  0  0  0  0  0999 V2000
   -3.8438    5.5558    1.8199 C   0  0  0  0  0  0  0  0  0  0  0  0
   -2.5757    6.3202    1.5527 C   0  0  0  0  0  0  0  0  0  0  0  0
   -2.6125    7.3147    0.6186 N   0  0  0  0  0  0  0  0  0  0  0  0
   -1.4090    6.1440    2.2416 N   0  0  0  0  0  0  0  0  0  0  0  0
   -1.2435    5.1105    3.3131 N   0  0  0  0  0  0  0  0  0  0  0  0
   -1.5167    3.7294    2.9051 C   0  0  2  0  0  0  0  0  0  0  0  0
   -2.6180    3.0258    3.6471 C   0  0  0  0  0  0  0  0  0  0  0  0
   -1.9236    2.1784    4.7206 C   0  0  0  0  0  0  0  0  0  0  0  0
   -0.4864    2.7803    4.9343 C   0  0  1  0  0  0  0  0  0  0  0  0
   -0.2267    3.3501    3.5309 C   0  0  2  0  0  0  0  0  0  0  0  0
    0.1714    4.7885    3.6126 C   0  0  2  0  0  0  0  0  0  0  0  0
    0.6441    4.8098    5.0387 C   0  0  2  0  0  0  0  0  0  0  0  0
    2.0666    4.0361    4.8854 C   0  0  1  0  0  0  0  0  0  0  0  0
    3.0900    4.6976    5.6110 O   0  0  0  0  0  0  0  0  0  0  0  0
    2.0693    2.4730    5.2075 C   0  0  2  0  0  0  0  0  0  0  0  0
    2.3896    1.4292    4.0953 C   0  0  0  0  0  0  0  0  0  0  0  0
    2.0470   -0.0233    4.5277 C   0  0  0  0  0  0  0  0  0  0  0  0
    0.5961   -0.1981    5.0438 C   0  0  1  0  0  0  0  0  0  0  0  0
    0.2825   -1.6626    5.3992 C   0  0  0  0  0  0  0  0  0  0  0  0
    0.4204    0.7317    6.2656 C   0  0  2  0  0  0  0  0  0  0  0  0
   -0.9423    0.8005    7.0492 C   0  0  0  0  0  0  0  0  0  0  0  0
   -1.3228    2.2171    7.7021 C   0  0  0  0  0  0  0  0  0  0  0  0
   -0.4579    3.4884    7.2948 C   0  0  2  0  0  0  0  0  0  0  0  0
   -0.6209    4.6304    8.3079 C   0  0  0  0  0  0  0  0  0  0  0  0
   -0.5354    4.0050    5.8071 C   0  0  2  0  0  0  0  0  0  0  0  0
    0.8911    2.9439    7.2122 C   0  0  1  0  0  0  0  0  0  0  0  0
    1.3489    2.2550    8.3722 O   0  0  0  0  0  0  0  0  0  0  0  0
    0.7226    2.1647    5.8406 C   0  0  2  0  0  0  0  0  0  0  0  0
   -4.6601    5.8731    1.1668 H   0  0  0  0  0  0  0  0  0  0  0  0
   -4.1424    5.7229    2.8451 H   0  0  0  0  0  0  0  0  0  0  0  0
   -3.8019    4.4747    1.6794 H   0  0  0  0  0  0  0  0  0  0  0  0
   -1.8421    7.9732    0.5045 H   0  0  0  0  0  0  0  0  0  0  0  0
   -1.4710    3.5644    1.8374 H   0  0  0  0  0  0  0  0  0  0  0  0
   -3.3049    3.7244    4.0922 H   0  0  0  0  0  0  0  0  0  0  0  0
   -3.1914    2.3964    2.9743 H   0  0  0  0  0  0  0  0  0  0  0  0
   -2.5924    2.1753    5.5631 H   0  0  0  0  0  0  0  0  0  0  0  0
   -1.8792    1.1642    4.3246 H   0  0  0  0  0  0  0  0  0  0  0  0
    0.3191    2.7458    2.8079 H   0  0  0  0  0  0  0  0  0  0  0  0
    0.8592    5.0824    2.8208 H   0  0  0  0  0  0  0  0  0  0  0  0
    0.7696    5.8314    5.3968 H   0  0  0  0  0  0  0  0  0  0  0  0
    2.4342    4.1208    3.8591 H   0  0  0  0  0  0  0  0  0  0  0  0
    2.8360    4.7511    6.5150 H   0  0  0  0  0  0  0  0  0  0  0  0
    2.8548    2.2915    5.9462 H   0  0  0  0  0  0  0  0  0  0  0  0
    1.9330    1.6430    3.1421 H   0  0  0  0  0  0  0  0  0  0  0  0
    3.4631    1.4684    3.8961 H   0  0  0  0  0  0  0  0  0  0  0  0
    2.2313   -0.7007    3.6921 H   0  0  0  0  0  0  0  0  0  0  0  0
    2.7394   -0.3228    5.3197 H   0  0  0  0  0  0  0  0  0  0  0  0
   -0.0643    0.0769    4.2273 H   0  0  0  0  0  0  0  0  0  0  0  0
    0.9055   -2.0125    6.2235 H   0  0  0  0  0  0  0  0  0  0  0  0
    0.4532   -2.3204    4.5393 H   0  0  0  0  0  0  0  0  0  0  0  0
   -0.7626   -1.7753    5.6902 H   0  0  0  0  0  0  0  0  0  0  0  0
    1.1770    0.3617    6.9552 H   0  0  0  0  0  0  0  0  0  0  0  0
   -1.7587    0.3629    6.4803 H   0  0  0  0  0  0  0  0  0  0  0  0
   -0.8273    0.1202    7.8881 H   0  0  0  0  0  0  0  0  0  0  0  0
   -2.3829    2.4360    7.6133 H   0  0  0  0  0  0  0  0  0  0  0  0
   -1.2083    2.0895    8.7806 H   0  0  0  0  0  0  0  0  0  0  0  0
    0.0362    5.4709    8.0811 H   0  0  0  0  0  0  0  0  0  0  0  0
   -0.3880    4.2949    9.3221 H   0  0  0  0  0  0  0  0  0  0  0  0
   -1.6478    5.0011    8.3187 H   0  0  0  0  0  0  0  0  0  0  0  0
   -1.4861    4.5294    5.7157 H   0  0  0  0  0  0  0  0  0  0  0  0
    1.5503    3.8019    7.2140 H   0  0  0  0  0  0  0  0  0  0  0  0
    2.2334    1.9941    8.2021 H   0  0  0  0  0  0  0  0  0  0  0  0
   -3.4399    7.4551    0.0793 H   0  0  0  0  0  0  0  0  0  0  0  0
   -0.5811    6.7444    2.1257 H   0  0  0  0  0  0  0  0  0  0  0  0
  1  2  1  0
  1 29  1  0
  1 30  1  0
  1 31  1  0
  2  3  1  0
  2  4  2  0
  3 32  1  0
  3 63  1  0
  4  5  1  0
  4 64  1  0
  5 11  1  0
  5  6  1  0
  6 10  1  0
  6  7  1  0
  6 33  1  6
  7  8  1  0
  7 34  1  0
  7 35  1  0
  9  8  1  6
  8 36  1  0
  8 37  1  0
  9 25  1  0
 28  9  1  6
  9 10  1  0
 10 11  1  0
 10 38  1  6
 11 12  1  0
 11 39  1  6
 12 25  1  0
 12 13  1  0
 12 40  1  1
 13 14  1  0
 13 15  1  0
 13 41  1  6
 14 42  1  0
 15 28  1  0
 15 16  1  0
 15 43  1  1
 16 17  1  0
 16 44  1  0
 16 45  1  0
 17 18  1  0
 17 46  1  0
 17 47  1  0
 18 19  1  0
 18 20  1  0
 18 48  1  6
 19 49  1  0
 19 50  1  0
 19 51  1  0
 20 28  1  0
 20 21  1  0
 20 52  1  1
 21 22  1  0
 21 53  1  0
 21 54  1  0
 22 23  1  0
 22 55  1  0
 22 56  1  0
 23 24  1  1
 23 25  1  0
 23 26  1  0
 24 57  1  0
 24 58  1  0
 24 59  1  0
 25 60  1  1
 26 27  1  0
 26 28  1  0
 26 61  1  6
 27 62  1  0
M  CHG  1   4   1
M  END
>  <i_m_ct_stereo_status>  (235) 
1

>  <s_m_source_file>  (235) 
/var/tmp/pbs.5076255.sched01/tmple0dc7g8/88jbw3zpwn.sdf

>  <i_m_source_file_index>  (235) 
27

>  <i_lp_mmshare_version>  (235) 
48012

>  <i_f3d_flags>  (235) 
0

>  <s_epik_input>  (235) 
W0hdL049QyhcW0NIM10pW05IXU4xW0NASF0oW0NIMl1bQ0gyXTIpW0NASF0zW0NAQEhdMVtDQEhdKFtDQEBIXShbT0hdKVtDQEhdNFtDQEBdNTZbQ0BdMjM3KVtDQEBIXTdbQ0BdKFtDSDNdKShbQ0BIXTZbT0hdKVtDSDJdW0NIMl1bQ0BIXTVbQ0BIXShbQ0gzXSlbQ0gyXVtDSDJdNA==

>  <s_epik_cmdline>  (235) 
J2VwaWtfcHl0aG9uJywgJy1waHQnLCAnMi4wJywgJy1waCcsICc3LjAnLCAnLXRuJywgJzgnLCAnLW1hJywgJzIwMCcsICctaW1hZScsICc8aW5maWxlLm1hZT4nLCAnLW9tYWUnLCAnPG91dGZpbGUubWFlPic=

>  <r_lp_tautomer_probability>  (235) 
1

>  <r_epik_Ionization_Penalty>  (235) 
1.06109e-05

>  <r_epik_Ionization_Penalty_Charging>  (235) 
5.39102e-06

>  <r_epik_Ionization_Penalty_Neutral>  (235) 
5.2199e-06

>  <r_epik_State_Penalty>  (235) 
-0

>  <r_epik_Charging_Adjusted_Penalty>  (235) 
5.39102e-06

>  <i_epik_Tot_Q>  (235) 
1

>  <i_epik_Tot_abs_Q>  (235) 
1

>  <s_epik_Chemistry_Notes>  (235) 
This compound has an imine and may undergo hydrolysis.

>  <s_lp_Force_Field>  (235) 
OPLS3e

>  <r_lp_Energy>  (235) 
152.758

>  <b_lp_Chiralities_Consistent>  (235) 
1

>  <s_lp_Variant>  (235) 
69:0-1

>  <s_i_glide_gridfile>  (235) 
pfpi4k_grid

>  <i_i_glide_lignum>  (235) 
27

>  <i_i_glide_rotatable_bonds>  (235) 
3

>  <r_i_docking_score>  (235) 
-2.79313

>  <r_i_glide_ligand_efficiency>  (235) 
-0.0997547

>  <r_i_glide_ligand_efficiency_sa>  (235) 
-0.302914

>  <r_i_glide_ligand_efficiency_ln>  (235) 
-0.644737

>  <r_i_glide_gscore>  (235) 
-2.79313

>  <r_i_glide_lipo>  (235) 
0

>  <r_i_glide_hbond>  (235) 
-0.37501

>  <r_i_glide_metal>  (235) 
-0

>  <r_i_glide_rewards>  (235) 
-0.773517

>  <r_i_glide_evdw>  (235) 
-7.15012

>  <r_i_glide_ecoul>  (235) 
-7.20928

>  <r_i_glide_erotb>  (235) 
0.130266

>  <r_i_glide_esite>  (235) 
-0.335971

>  <r_i_glide_emodel>  (235) 
-16.2224

>  <r_i_glide_energy>  (235) 
-14.3594

>  <r_i_glide_einternal>  (235) 
1.53885

>  <r_i_glide_intrahb_reward>  (235) 
-0

>  <i_i_glide_confnum>  (235) 
6

>  <i_i_glide_posenum>  (235) 
27

>  <r_i_glide_eff_state_penalty>  (235) 
0

>  <ligand_id>  (235) 
69

>  <original_smiles>  (235) 
CC(=N)NN1C2CCC34C2C1C1C(O)C2CCC(C)C5CCC(C)(C13)C(O)C524

>  <smiles>  (235) 
[H]OC1([H])C2([H])C3([H])N([N+]([H])=C(N([H])[H])C([H])([H])[H])C4([H])C([H])([H])C([H])([H])C5(C43[H])C2([H])C2(C([H])([H])[H])C([H])([H])C([H])([H])C3([H])C([H])(C([H])([H])[H])C([H])([H])C([H])([H])C1([H])C35C2([H])O[H]

$$$$
69:0:1
     RDKit          3D

 64 70  0  0  1  0  0  0  0  0999 V2000
   -3.8434    5.5553    1.8188 C   0  0  0  0  0  0  0  0  0  0  0  0
   -2.5534    6.3108    1.5389 C   0  0  0  0  0  0  0  0  0  0  0  0
   -2.6101    7.2965    0.6254 N   0  0  0  0  0  0  0  0  0  0  0  0
   -1.3927    6.0975    2.2078 N   0  0  0  0  0  0  0  0  0  0  0  0
   -1.2492    5.0839    3.2937 N   0  0  0  0  0  0  0  0  0  0  0  0
   -1.4984    3.7042    2.8986 C   0  0  2  0  0  0  0  0  0  0  0  0
   -2.5994    3.0081    3.6331 C   0  0  0  0  0  0  0  0  0  0  0  0
   -1.9161    2.1801    4.7095 C   0  0  0  0  0  0  0  0  0  0  0  0
   -0.4979    2.8020    4.9464 C   0  0  1  0  0  0  0  0  0  0  0  0
   -0.2089    3.3669    3.5477 C   0  0  2  0  0  0  0  0  0  0  0  0
    0.1542    4.8088    3.6381 C   0  0  2  0  0  0  0  0  0  0  0  0
    0.5994    4.8470    5.0733 C   0  0  2  0  0  0  0  0  0  0  0  0
    2.0324    4.0991    4.9418 C   0  0  1  0  0  0  0  0  0  0  0  0
    3.0097    4.7821    5.6913 O   0  0  0  0  0  0  0  0  0  0  0  0
    2.0610    2.5425    5.2724 C   0  0  2  0  0  0  0  0  0  0  0  0
    2.4197    1.4964    4.1790 C   0  0  0  0  0  0  0  0  0  0  0  0
    2.0873    0.0392    4.6007 C   0  0  0  0  0  0  0  0  0  0  0  0
    0.6289   -0.1509    5.1015 C   0  0  1  0  0  0  0  0  0  0  0  0
    0.3307   -1.6213    5.4466 C   0  0  0  0  0  0  0  0  0  0  0  0
    0.4133    0.7832    6.3078 C   0  0  2  0  0  0  0  0  0  0  0  0
   -0.9609    0.8277    7.0762 C   0  0  0  0  0  0  0  0  0  0  0  0
   -1.3741    2.2462    7.7056 C   0  0  0  0  0  0  0  0  0  0  0  0
   -0.5169    3.5214    7.3051 C   0  0  2  0  0  0  0  0  0  0  0  0
   -0.7203    4.6691    8.3170 C   0  0  0  0  0  0  0  0  0  0  0  0
   -0.5828    4.0244    5.8152 C   0  0  2  0  0  0  0  0  0  0  0  0
    0.8419    3.0023    7.2528 C   0  0  1  0  0  0  0  0  0  0  0  0
    1.2836    2.3260    8.4282 O   0  0  0  0  0  0  0  0  0  0  0  0
    0.7028    2.2161    5.8783 C   0  0  2  0  0  0  0  0  0  0  0  0
   -4.6516    5.8787    1.1690 H   0  0  0  0  0  0  0  0  0  0  0  0
   -4.1383    5.7448    2.8401 H   0  0  0  0  0  0  0  0  0  0  0  0
   -3.7906    4.4812    1.6889 H   0  0  0  0  0  0  0  0  0  0  0  0
   -1.8351    7.9700    0.5113 H   0  0  0  0  0  0  0  0  0  0  0  0
   -1.4564    3.5524    1.8267 H   0  0  0  0  0  0  0  0  0  0  0  0
   -3.2907    3.7180    4.0660 H   0  0  0  0  0  0  0  0  0  0  0  0
   -3.1639    2.3771    2.9502 H   0  0  0  0  0  0  0  0  0  0  0  0
   -2.5961    2.1699    5.5409 H   0  0  0  0  0  0  0  0  0  0  0  0
   -1.8496    1.1659    4.3284 H   0  0  0  0  0  0  0  0  0  0  0  0
    0.3447    2.7760    2.8454 H   0  0  0  0  0  0  0  0  0  0  0  0
    0.8498    5.1147    2.8473 H   0  0  0  0  0  0  0  0  0  0  0  0
    0.6980    5.8709    5.4217 H   0  0  0  0  0  0  0  0  0  0  0  0
    2.4308    4.1887    3.9240 H   0  0  0  0  0  0  0  0  0  0  0  0
    3.0868    5.6617    5.3506 H   0  0  0  0  0  0  0  0  0  0  0  0
    2.8386    2.3780    6.0289 H   0  0  0  0  0  0  0  0  0  0  0  0
    1.9762    1.6955    3.2104 H   0  0  0  0  0  0  0  0  0  0  0  0
    3.4955    1.5491    3.9918 H   0  0  0  0  0  0  0  0  0  0  0  0
    2.2966   -0.6391    3.7754 H   0  0  0  0  0  0  0  0  0  0  0  0
    2.7707   -0.2487    5.4133 H   0  0  0  0  0  0  0  0  0  0  0  0
   -0.0224    0.1080    4.2608 H   0  0  0  0  0  0  0  0  0  0  0  0
    0.9435   -1.9626    6.2890 H   0  0  0  0  0  0  0  0  0  0  0  0
    0.5266   -2.2826    4.5964 H   0  0  0  0  0  0  0  0  0  0  0  0
   -0.7194   -1.7508    5.7226 H   0  0  0  0  0  0  0  0  0  0  0  0
    1.1681    0.4187    7.0159 H   0  0  0  0  0  0  0  0  0  0  0  0
   -1.7588    0.3787    6.4850 H   0  0  0  0  0  0  0  0  0  0  0  0
   -0.8532    0.1467    7.9147 H   0  0  0  0  0  0  0  0  0  0  0  0
   -2.4349    2.4433    7.5973 H   0  0  0  0  0  0  0  0  0  0  0  0
   -1.2780    2.1183    8.7863 H   0  0  0  0  0  0  0  0  0  0  0  0
   -0.0693    5.5157    8.0976 H   0  0  0  0  0  0  0  0  0  0  0  0
   -0.5002    4.3377    9.3367 H   0  0  0  0  0  0  0  0  0  0  0  0
   -1.7537    5.0227    8.3047 H   0  0  0  0  0  0  0  0  0  0  0  0
   -1.5368    4.5277    5.7046 H   0  0  0  0  0  0  0  0  0  0  0  0
    1.4908    3.8683    7.2740 H   0  0  0  0  0  0  0  0  0  0  0  0
    2.1951    2.1116    8.2866 H   0  0  0  0  0  0  0  0  0  0  0  0
   -3.4444    7.4578    0.0759 H   0  0  0  0  0  0  0  0  0  0  0  0
   -0.5831    6.7146    2.1110 H   0  0  0  0  0  0  0  0  0  0  0  0
  1  2  1  0
  1 29  1  0
  1 30  1  0
  1 31  1  0
  2  3  1  0
  2  4  2  0
  3 32  1  0
  3 63  1  0
  4  5  1  0
  4 64  1  0
  5 11  1  0
  5  6  1  0
  6 10  1  0
  6  7  1  0
  6 33  1  6
  7  8  1  0
  7 34  1  0
  7 35  1  0
  9  8  1  6
  8 36  1  0
  8 37  1  0
  9 25  1  0
 28  9  1  6
  9 10  1  0
 10 11  1  0
 10 38  1  6
 11 12  1  0
 11 39  1  6
 12 25  1  0
 12 13  1  0
 12 40  1  1
 13 14  1  0
 13 15  1  0
 13 41  1  6
 14 42  1  0
 15 28  1  0
 15 16  1  0
 15 43  1  1
 16 17  1  0
 16 44  1  0
 16 45  1  0
 17 18  1  0
 17 46  1  0
 17 47  1  0
 18 19  1  0
 18 20  1  0
 18 48  1  6
 19 49  1  0
 19 50  1  0
 19 51  1  0
 20 28  1  0
 20 21  1  0
 20 52  1  1
 21 22  1  0
 21 53  1  0
 21 54  1  0
 22 23  1  0
 22 55  1  0
 22 56  1  0
 23 24  1  1
 23 25  1  0
 23 26  1  0
 24 57  1  0
 24 58  1  0
 24 59  1  0
 25 60  1  1
 26 27  1  0
 26 28  1  0
 26 61  1  6
 27 62  1  0
M  CHG  1   4   1
M  END
>  <i_m_ct_stereo_status>  (236) 
1

>  <s_m_source_file>  (236) 
/var/tmp/pbs.5076255.sched01/tmple0dc7g8/88jbw3zpwn.sdf

>  <i_m_source_file_index>  (236) 
27

>  <i_lp_mmshare_version>  (236) 
48012

>  <i_f3d_flags>  (236) 
0

>  <s_epik_input>  (236) 
W0hdL049QyhcW0NIM10pW05IXU4xW0NASF0oW0NIMl1bQ0gyXTIpW0NASF0zW0NAQEhdMVtDQEhdKFtDQEBIXShbT0hdKVtDQEhdNFtDQEBdNTZbQ0BdMjM3KVtDQEBIXTdbQ0BdKFtDSDNdKShbQ0BIXTZbT0hdKVtDSDJdW0NIMl1bQ0BIXTVbQ0BIXShbQ0gzXSlbQ0gyXVtDSDJdNA==

>  <s_epik_cmdline>  (236) 
J2VwaWtfcHl0aG9uJywgJy1waHQnLCAnMi4wJywgJy1waCcsICc3LjAnLCAnLXRuJywgJzgnLCAnLW1hJywgJzIwMCcsICctaW1hZScsICc8aW5maWxlLm1hZT4nLCAnLW9tYWUnLCAnPG91dGZpbGUubWFlPic=

>  <r_lp_tautomer_probability>  (236) 
1

>  <r_epik_Ionization_Penalty>  (236) 
1.06109e-05

>  <r_epik_Ionization_Penalty_Charging>  (236) 
5.39102e-06

>  <r_epik_Ionization_Penalty_Neutral>  (236) 
5.2199e-06

>  <r_epik_State_Penalty>  (236) 
-0

>  <r_epik_Charging_Adjusted_Penalty>  (236) 
5.39102e-06

>  <i_epik_Tot_Q>  (236) 
1

>  <i_epik_Tot_abs_Q>  (236) 
1

>  <s_epik_Chemistry_Notes>  (236) 
This compound has an imine and may undergo hydrolysis.

>  <s_lp_Force_Field>  (236) 
OPLS3e

>  <r_lp_Energy>  (236) 
152.758

>  <b_lp_Chiralities_Consistent>  (236) 
1

>  <s_lp_Variant>  (236) 
69:0-1

>  <s_i_glide_gridfile>  (236) 
pfpi4k_grid

>  <i_i_glide_lignum>  (236) 
27

>  <i_i_glide_rotatable_bonds>  (236) 
3

>  <r_i_docking_score>  (236) 
-2.78773

>  <r_i_glide_ligand_efficiency>  (236) 
-0.0995616

>  <r_i_glide_ligand_efficiency_sa>  (236) 
-0.302328

>  <r_i_glide_ligand_efficiency_ln>  (236) 
-0.643489

>  <r_i_glide_gscore>  (236) 
-2.78773

>  <r_i_glide_lipo>  (236) 
0

>  <r_i_glide_hbond>  (236) 
-0.379942

>  <r_i_glide_metal>  (236) 
-0

>  <r_i_glide_rewards>  (236) 
-0.773517

>  <r_i_glide_evdw>  (236) 
-7.61534

>  <r_i_glide_ecoul>  (236) 
-6.99252

>  <r_i_glide_erotb>  (236) 
0.130266

>  <r_i_glide_esite>  (236) 
-0.334887

>  <r_i_glide_emodel>  (236) 
-16.4892

>  <r_i_glide_energy>  (236) 
-14.6079

>  <r_i_glide_einternal>  (236) 
1.67642

>  <r_i_glide_intrahb_reward>  (236) 
-0

>  <i_i_glide_confnum>  (236) 
6

>  <i_i_glide_posenum>  (236) 
39

>  <r_i_glide_eff_state_penalty>  (236) 
0

>  <ligand_id>  (236) 
69

>  <original_smiles>  (236) 
CC(=N)NN1C2CCC34C2C1C1C(O)C2CCC(C)C5CCC(C)(C13)C(O)C524

>  <smiles>  (236) 
[H]OC1([H])C2([H])C3([H])N([N+]([H])=C(N([H])[H])C([H])([H])[H])C4([H])C([H])([H])C([H])([H])C5(C43[H])C2([H])C2(C([H])([H])[H])C([H])([H])C([H])([H])C3([H])C([H])(C([H])([H])[H])C([H])([H])C([H])([H])C1([H])C35C2([H])O[H]

$$$$
69:0:2
     RDKit          3D

 64 70  0  0  1  0  0  0  0  0999 V2000
   -4.6439    3.3081    2.4710 C   0  0  0  0  0  0  0  0  0  0  0  0
   -4.1169    4.6106    2.0030 C   0  0  0  0  0  0  0  0  0  0  0  0
   -4.8864    5.2825    1.1335 N   0  0  0  0  0  0  0  0  0  0  0  0
   -2.9309    5.1077    2.4585 N   0  0  0  0  0  0  0  0  0  0  0  0
   -2.1237    4.5041    3.4697 N   0  0  0  0  0  0  0  0  0  0  0  0
   -1.6902    3.1376    3.1607 C   0  0  2  0  0  0  0  0  0  0  0  0
   -2.0969    2.1335    4.2101 C   0  0  0  0  0  0  0  0  0  0  0  0
   -0.8920    1.9055    5.1252 C   0  0  0  0  0  0  0  0  0  0  0  0
    0.0416    3.1601    4.9631 C   0  0  1  0  0  0  0  0  0  0  0  0
   -0.2992    3.5258    3.4965 C   0  0  2  0  0  0  0  0  0  0  0  0
   -0.7219    4.9563    3.4280 C   0  0  2  0  0  0  0  0  0  0  0  0
   -0.0370    5.4583    4.6885 C   0  0  2  0  0  0  0  0  0  0  0  0
    1.5092    5.4656    4.1912 C   0  0  1  0  0  0  0  0  0  0  0  0
    2.1383    6.6578    4.6085 O   0  0  0  0  0  0  0  0  0  0  0  0
    2.3703    4.1837    4.5687 C   0  0  2  0  0  0  0  0  0  0  0  0
    2.9500    3.2661    3.4596 C   0  0  0  0  0  0  0  0  0  0  0  0
    3.4933    1.9263    4.0301 C   0  0  0  0  0  0  0  0  0  0  0  0
    2.4865    1.1429    4.9054 C   0  0  1  0  0  0  0  0  0  0  0  0
    3.0503   -0.2028    5.3834 C   0  0  0  0  0  0  0  0  0  0  0  0
    2.1015    2.0557    6.0877 C   0  0  2  0  0  0  0  0  0  0  0  0
    1.0952    1.5777    7.1978 C   0  0  0  0  0  0  0  0  0  0  0  0
    0.1731    2.7167    7.8568 C   0  0  0  0  0  0  0  0  0  0  0  0
    0.1620    4.1638    7.1953 C   0  0  2  0  0  0  0  0  0  0  0  0
   -0.3634    5.2356    8.1640 C   0  0  0  0  0  0  0  0  0  0  0  0
   -0.4667    4.3285    5.7644 C   0  0  2  0  0  0  0  0  0  0  0  0
    1.5542    4.3544    6.7998 C   0  0  1  0  0  0  0  0  0  0  0  0
    2.5155    4.1795    7.8230 O   0  0  0  0  0  0  0  0  0  0  0  0
    1.5433    3.3738    5.5589 C   0  0  2  0  0  0  0  0  0  0  0  0
   -5.6759    3.1369    2.0977 H   0  0  0  0  0  0  0  0  0  0  0  0
   -4.6325    3.3275    3.5653 H   0  0  0  0  0  0  0  0  0  0  0  0
   -3.9887    2.5019    2.1401 H   0  0  0  0  0  0  0  0  0  0  0  0
   -4.6053    6.1321    0.6642 H   0  0  0  0  0  0  0  0  0  0  0  0
   -1.7191    2.8572    2.1053 H   0  0  0  0  0  0  0  0  0  0  0  0
   -2.9136    2.5382    4.8030 H   0  0  0  0  0  0  0  0  0  0  0  0
   -2.3739    1.1807    3.7818 H   0  0  0  0  0  0  0  0  0  0  0  0
   -1.3043    1.6976    6.1085 H   0  0  0  0  0  0  0  0  0  0  0  0
   -0.4117    0.9926    4.7815 H   0  0  0  0  0  0  0  0  0  0  0  0
    0.3372    3.1503    2.7065 H   0  0  0  0  0  0  0  0  0  0  0  0
   -0.4510    5.4704    2.5052 H   0  0  0  0  0  0  0  0  0  0  0  0
   -0.3797    6.4567    4.9659 H   0  0  0  0  0  0  0  0  0  0  0  0
    1.5609    5.5434    3.1048 H   0  0  0  0  0  0  0  0  0  0  0  0
    1.7351    7.3699    4.1288 H   0  0  0  0  0  0  0  0  0  0  0  0
    3.2651    4.5412    5.0854 H   0  0  0  0  0  0  0  0  0  0  0  0
    2.2667    3.0509    2.6481 H   0  0  0  0  0  0  0  0  0  0  0  0
    3.7672    3.8091    2.9934 H   0  0  0  0  0  0  0  0  0  0  0  0
    3.8160    1.2917    3.2086 H   0  0  0  0  0  0  0  0  0  0  0  0
    4.3813    2.1359    4.6243 H   0  0  0  0  0  0  0  0  0  0  0  0
    1.6327    0.9287    4.2751 H   0  0  0  0  0  0  0  0  0  0  0  0
    3.9132   -0.0606    6.0357 H   0  0  0  0  0  0  0  0  0  0  0  0
    3.3599   -0.8184    4.5373 H   0  0  0  0  0  0  0  0  0  0  0  0
    2.2957   -0.7631    5.9383 H   0  0  0  0  0  0  0  0  0  0  0  0
    3.0640    2.2301    6.5803 H   0  0  0  0  0  0  0  0  0  0  0  0
    0.5173    0.7145    6.8641 H   0  0  0  0  0  0  0  0  0  0  0  0
    1.6906    1.1693    8.0052 H   0  0  0  0  0  0  0  0  0  0  0  0
   -0.8456    2.3771    8.0270 H   0  0  0  0  0  0  0  0  0  0  0  0
    0.5483    2.8478    8.8726 H   0  0  0  0  0  0  0  0  0  0  0  0
   -0.2881    6.2364    7.7385 H   0  0  0  0  0  0  0  0  0  0  0  0
    0.2052    5.2259    9.0938 H   0  0  0  0  0  0  0  0  0  0  0  0
   -1.4065    5.0496    8.4130 H   0  0  0  0  0  0  0  0  0  0  0  0
   -1.5482    4.3018    5.8901 H   0  0  0  0  0  0  0  0  0  0  0  0
    1.6658    5.4084    6.5783 H   0  0  0  0  0  0  0  0  0  0  0  0
    3.3484    4.3939    7.4322 H   0  0  0  0  0  0  0  0  0  0  0  0
   -5.7458    4.8426    0.8086 H   0  0  0  0  0  0  0  0  0  0  0  0
   -2.4970    5.9079    2.0364 H   0  0  0  0  0  0  0  0  0  0  0  0
  1  2  1  0
  1 29  1  0
  1 30  1  0
  1 31  1  0
  2  3  1  0
  2  4  2  0
  3 32  1  0
  3 63  1  0
  4  5  1  0
  4 64  1  0
  5 11  1  0
  5  6  1  0
  6 10  1  0
  6  7  1  0
  6 33  1  6
  7  8  1  0
  7 34  1  0
  7 35  1  0
  9  8  1  1
  8 36  1  0
  8 37  1  0
  9 25  1  0
 28  9  1  6
  9 10  1  0
 10 11  1  0
 10 38  1  6
 11 12  1  0
 11 39  1  6
 12 25  1  0
 12 13  1  0
 12 40  1  1
 13 14  1  0
 13 15  1  0
 13 41  1  6
 14 42  1  0
 15 28  1  0
 15 16  1  0
 15 43  1  1
 16 17  1  0
 16 44  1  0
 16 45  1  0
 17 18  1  0
 17 46  1  0
 17 47  1  0
 18 19  1  0
 18 20  1  0
 18 48  1  6
 19 49  1  0
 19 50  1  0
 19 51  1  0
 20 28  1  0
 20 21  1  0
 20 52  1  1
 21 22  1  0
 21 53  1  0
 21 54  1  0
 22 23  1  0
 22 55  1  0
 22 56  1  0
 23 24  1  1
 23 25  1  0
 23 26  1  0
 24 57  1  0
 24 58  1  0
 24 59  1  0
 25 60  1  1
 26 27  1  0
 26 28  1  0
 26 61  1  6
 27 62  1  0
M  CHG  1   4   1
M  END
>  <i_m_ct_stereo_status>  (237) 
1

>  <s_m_source_file>  (237) 
/var/tmp/pbs.5076255.sched01/tmple0dc7g8/88jbw3zpwn.sdf

>  <i_m_source_file_index>  (237) 
27

>  <i_lp_mmshare_version>  (237) 
48012

>  <i_f3d_flags>  (237) 
0

>  <s_epik_input>  (237) 
W0hdL049QyhcW0NIM10pW05IXU4xW0NASF0oW0NIMl1bQ0gyXTIpW0NASF0zW0NAQEhdMVtDQEhdKFtDQEBIXShbT0hdKVtDQEhdNFtDQEBdNTZbQ0BdMjM3KVtDQEBIXTdbQ0BdKFtDSDNdKShbQ0BIXTZbT0hdKVtDSDJdW0NIMl1bQ0BIXTVbQ0BIXShbQ0gzXSlbQ0gyXVtDSDJdNA==

>  <s_epik_cmdline>  (237) 
J2VwaWtfcHl0aG9uJywgJy1waHQnLCAnMi4wJywgJy1waCcsICc3LjAnLCAnLXRuJywgJzgnLCAnLW1hJywgJzIwMCcsICctaW1hZScsICc8aW5maWxlLm1hZT4nLCAnLW9tYWUnLCAnPG91dGZpbGUubWFlPic=

>  <r_lp_tautomer_probability>  (237) 
1

>  <r_epik_Ionization_Penalty>  (237) 
1.06109e-05

>  <r_epik_Ionization_Penalty_Charging>  (237) 
5.39102e-06

>  <r_epik_Ionization_Penalty_Neutral>  (237) 
5.2199e-06

>  <r_epik_State_Penalty>  (237) 
-0

>  <r_epik_Charging_Adjusted_Penalty>  (237) 
5.39102e-06

>  <i_epik_Tot_Q>  (237) 
1

>  <i_epik_Tot_abs_Q>  (237) 
1

>  <s_epik_Chemistry_Notes>  (237) 
This compound has an imine and may undergo hydrolysis.

>  <s_lp_Force_Field>  (237) 
OPLS3e

>  <r_lp_Energy>  (237) 
152.758

>  <b_lp_Chiralities_Consistent>  (237) 
1

>  <s_lp_Variant>  (237) 
69:0-1

>  <s_i_glide_gridfile>  (237) 
pfpi4k_grid

>  <i_i_glide_lignum>  (237) 
27

>  <i_i_glide_rotatable_bonds>  (237) 
3

>  <r_i_docking_score>  (237) 
-2.57069

>  <r_i_glide_ligand_efficiency>  (237) 
-0.0918105

>  <r_i_glide_ligand_efficiency_sa>  (237) 
-0.278791

>  <r_i_glide_ligand_efficiency_ln>  (237) 
-0.593392

>  <r_i_glide_gscore>  (237) 
-2.57069

>  <r_i_glide_lipo>  (237) 
-0.190693

>  <r_i_glide_hbond>  (237) 
0

>  <r_i_glide_metal>  (237) 
-0

>  <r_i_glide_rewards>  (237) 
-0.773517

>  <r_i_glide_evdw>  (237) 
-11.0601

>  <r_i_glide_ecoul>  (237) 
-6.4506

>  <r_i_glide_erotb>  (237) 
0.130266

>  <r_i_glide_esite>  (237) 
-0.216154

>  <r_i_glide_emodel>  (237) 
-18.6961

>  <r_i_glide_energy>  (237) 
-17.5107

>  <r_i_glide_einternal>  (237) 
2.36972

>  <r_i_glide_intrahb_reward>  (237) 
-0

>  <i_i_glide_confnum>  (237) 
3

>  <i_i_glide_posenum>  (237) 
32

>  <r_i_glide_eff_state_penalty>  (237) 
0

>  <ligand_id>  (237) 
69

>  <original_smiles>  (237) 
CC(=N)NN1C2CCC34C2C1C1C(O)C2CCC(C)C5CCC(C)(C13)C(O)C524

>  <smiles>  (237) 
[H]OC1([H])C2([H])C3([H])N([N+]([H])=C(N([H])[H])C([H])([H])[H])C4([H])C([H])([H])C([H])([H])C5(C43[H])C2([H])C2(C([H])([H])[H])C([H])([H])C([H])([H])C3([H])C([H])(C([H])([H])[H])C([H])([H])C([H])([H])C1([H])C35C2([H])O[H]

$$$$
70:0:0
     RDKit          3D

 49 53  0  0  1  0  0  0  0  0999 V2000
   -6.9838   -4.7049   -3.1240 N   0  0  0  0  0  0  0  0  0  0  0  0
   -6.2959   -4.1964   -4.3103 C   0  0  0  0  0  0  0  0  0  0  0  0
   -6.1992   -5.2798   -5.3850 C   0  0  2  0  0  0  0  0  0  0  0  0
   -7.5688   -5.8751   -5.7200 C   0  0  0  0  0  0  0  0  0  0  0  0
   -7.5092   -6.9393   -6.8084 C   0  0  0  0  0  0  0  0  0  0  0  0
   -6.5197   -8.0851   -6.5021 C   0  0  1  0  0  0  0  0  0  0  0  0
   -5.1292   -7.5239   -6.1221 C   0  0  0  0  0  0  0  0  0  0  0  0
   -5.1970   -6.4049   -5.0534 C   0  0  0  0  0  0  0  0  0  0  0  0
   -6.9613   -8.7749   -5.3583 O   0  0  0  0  0  0  0  0  0  0  0  0
   -7.6762  -10.0015   -5.8983 O   0  0  0  0  0  0  0  0  0  0  0  0
   -7.4254  -10.0206   -7.2883 C   0  0  2  0  0  0  0  0  0  0  0  0
   -6.4523   -9.0187   -7.6065 O   0  0  0  0  0  0  0  0  0  0  0  0
   -8.7643   -9.7634   -8.0209 C   0  0  2  0  0  0  0  0  0  0  0  0
   -9.7944  -10.8397   -7.6491 C   0  0  0  0  0  0  0  0  0  0  0  0
   -9.2734  -12.2322   -8.0446 C   0  0  1  0  0  0  0  0  0  0  0  0
   -9.0277  -12.2526   -9.5666 C   0  0  0  0  0  0  0  0  0  0  0  0
   -7.9637  -11.2070   -9.9126 C   0  0  1  0  0  0  0  0  0  0  0  0
   -8.4666   -9.8029   -9.5300 C   0  0  0  0  0  0  0  0  0  0  0  0
   -6.6607  -11.5126   -9.1438 C   0  0  0  0  0  0  0  0  0  0  0  0
   -6.9023  -11.4486   -7.6258 C   0  0  2  0  0  0  0  0  0  0  0  0
   -7.9633  -12.5165   -7.2748 C   0  0  0  0  0  0  0  0  0  0  0  0
   -7.0322   -3.9996   -2.3954 H   0  0  0  0  0  0  0  0  0  0  0  0
   -6.4815   -5.5203   -2.7758 H   0  0  0  0  0  0  0  0  0  0  0  0
   -6.8596   -3.3355   -4.6733 H   0  0  0  0  0  0  0  0  0  0  0  0
   -5.3125   -3.8179   -4.0217 H   0  0  0  0  0  0  0  0  0  0  0  0
   -5.8805   -4.7197   -6.2485 H   0  0  0  0  0  0  0  0  0  0  0  0
   -8.0190   -6.3432   -4.8399 H   0  0  0  0  0  0  0  0  0  0  0  0
   -8.2508   -5.0905   -6.0409 H   0  0  0  0  0  0  0  0  0  0  0  0
   -8.5311   -7.2882   -6.8293 H   0  0  0  0  0  0  0  0  0  0  0  0
   -7.2229   -6.5069   -7.7620 H   0  0  0  0  0  0  0  0  0  0  0  0
   -4.4276   -8.2943   -5.7767 H   0  0  0  0  0  0  0  0  0  0  0  0
   -4.6955   -7.1100   -7.0170 H   0  0  0  0  0  0  0  0  0  0  0  0
   -4.2094   -5.9569   -4.9709 H   0  0  0  0  0  0  0  0  0  0  0  0
   -5.4303   -6.8434   -4.0747 H   0  0  0  0  0  0  0  0  0  0  0  0
   -9.2250   -8.8062   -7.7879 H   0  0  0  0  0  0  0  0  0  0  0  0
  -10.0095  -10.8078   -6.5832 H   0  0  0  0  0  0  0  0  0  0  0  0
  -10.7221  -10.6151   -8.1663 H   0  0  0  0  0  0  0  0  0  0  0  0
  -10.0307  -12.9743   -7.7848 H   0  0  0  0  0  0  0  0  0  0  0  0
   -8.7027  -13.2405   -9.8894 H   0  0  0  0  0  0  0  0  0  0  0  0
   -9.9558  -12.0332  -10.0994 H   0  0  0  0  0  0  0  0  0  0  0  0
   -7.7952  -11.2343  -10.9859 H   0  0  0  0  0  0  0  0  0  0  0  0
   -9.3777   -9.5555  -10.0695 H   0  0  0  0  0  0  0  0  0  0  0  0
   -7.7308   -9.0399   -9.8020 H   0  0  0  0  0  0  0  0  0  0  0  0
   -6.2787  -12.4905   -9.4385 H   0  0  0  0  0  0  0  0  0  0  0  0
   -5.9005  -10.7834   -9.4091 H   0  0  0  0  0  0  0  0  0  0  0  0
   -5.9614  -11.6716   -7.0987 H   0  0  0  0  0  0  0  0  0  0  0  0
   -8.1624  -12.5065   -6.2036 H   0  0  0  0  0  0  0  0  0  0  0  0
   -7.6035  -13.5138   -7.5309 H   0  0  0  0  0  0  0  0  0  0  0  0
   -7.9189   -4.9934   -3.3692 H   0  0  0  0  0  0  0  0  0  0  0  0
  1  2  1  0
  1 22  1  0
  1 23  1  0
  1 49  1  0
  2  3  1  0
  2 24  1  0
  2 25  1  0
  3  8  1  0
  3  4  1  0
  3 26  1  6
  4  5  1  0
  4 27  1  0
  4 28  1  0
  5  6  1  0
  5 29  1  0
  5 30  1  0
  6 12  1  6
  6  7  1  0
  6  9  1  0
  7  8  1  0
  7 31  1  0
  7 32  1  0
  8 33  1  0
  8 34  1  0
  9 10  1  0
 11 10  1  1
 11 20  1  0
 11 12  1  0
 11 13  1  0
 13 18  1  0
 13 14  1  0
 13 35  1  1
 14 15  1  0
 14 36  1  0
 14 37  1  0
 15 21  1  0
 15 16  1  0
 15 38  1  6
 16 17  1  0
 16 39  1  0
 16 40  1  0
 17 18  1  0
 17 19  1  0
 17 41  1  6
 18 42  1  0
 18 43  1  0
 19 20  1  0
 19 44  1  0
 19 45  1  0
 20 21  1  0
 20 46  1  1
 21 47  1  0
 21 48  1  0
M  CHG  1   1   1
M  END
>  <i_m_ct_stereo_status>  (238) 
1

>  <s_m_source_file>  (238) 
/var/tmp/pbs.5076255.sched01/tmple0dc7g8/88jbw3zpwn.sdf

>  <i_m_source_file_index>  (238) 
28

>  <i_lp_mmshare_version>  (238) 
48012

>  <i_f3d_flags>  (238) 
0

>  <s_epik_input>  (238) 
W05IMl1bQ0gyXVtDQEBIXShbQ0gyXVtDSDJdMSlbQ0gyXVtDSDJdW0NAXTEyT09bQ0BdMyhPMilbQ0BIXTRbQ0gyXVtDQEBIXTVbQ0gyXVtDQEhdKFtDSDJdNClbQ0gyXVtDQEhdM1tDSDJdNQ==

>  <s_epik_cmdline>  (238) 
J2VwaWtfcHl0aG9uJywgJy1waHQnLCAnMi4wJywgJy1waCcsICc3LjAnLCAnLXRuJywgJzgnLCAnLW1hJywgJzIwMCcsICctaW1hZScsICc8aW5maWxlLm1hZT4nLCAnLW9tYWUnLCAnPG91dGZpbGUubWFlPic=

>  <r_epik_Ionization_Penalty>  (238) 
0.000404043

>  <r_epik_Ionization_Penalty_Charging>  (238) 
0.000404043

>  <r_epik_Ionization_Penalty_Neutral>  (238) 
1.18402e-15

>  <r_epik_State_Penalty>  (238) 
0.0002478

>  <r_epik_Charging_Adjusted_Penalty>  (238) 
0.000651843

>  <i_epik_Tot_Q>  (238) 
1

>  <i_epik_Tot_abs_Q>  (238) 
1

>  <s_lp_Force_Field>  (238) 
OPLS3e

>  <r_lp_Energy>  (238) 
7.64873

>  <b_lp_Chiralities_Consistent>  (238) 
1

>  <s_lp_Variant>  (238) 
70:0-1

>  <s_i_glide_gridfile>  (238) 
pfpi4k_grid

>  <i_i_glide_lignum>  (238) 
28

>  <i_i_glide_rotatable_bonds>  (238) 
1

>  <r_i_docking_score>  (238) 
-4.89052

>  <r_i_glide_ligand_efficiency>  (238) 
-0.232882

>  <r_i_glide_ligand_efficiency_sa>  (238) 
-0.642504

>  <r_i_glide_ligand_efficiency_ln>  (238) 
-1.20917

>  <r_i_glide_gscore>  (238) 
-4.89052

>  <r_i_glide_lipo>  (238) 
-1.79339

>  <r_i_glide_hbond>  (238) 
0

>  <r_i_glide_metal>  (238) 
-0

>  <r_i_glide_rewards>  (238) 
-1.87088

>  <r_i_glide_evdw>  (238) 
-19.6297

>  <r_i_glide_ecoul>  (238) 
-1.63181

>  <r_i_glide_erotb>  (238) 
0

>  <r_i_glide_esite>  (238) 
0

>  <r_i_glide_emodel>  (238) 
-28.4928

>  <r_i_glide_energy>  (238) 
-21.2615

>  <r_i_glide_einternal>  (238) 
3.10311

>  <r_i_glide_intrahb_reward>  (238) 
-0

>  <i_i_glide_confnum>  (238) 
4

>  <i_i_glide_posenum>  (238) 
3

>  <r_i_glide_eff_state_penalty>  (238) 
0

>  <ligand_id>  (238) 
70

>  <original_smiles>  (238) 
NCC1CCC2(CC1)OOC1(O2)C2CC3CC(C2)CC1C3

>  <smiles>  (238) 
[H]C1([H])C([H])([H])C([H])(C([H])([H])[N+]([H])([H])[H])C([H])([H])C([H])([H])C12OOC1(O2)C2([H])C([H])([H])C3([H])C([H])([H])C([H])(C2([H])[H])C([H])([H])C1([H])C3([H])[H]

$$$$
70:0:1
     RDKit          3D

 49 53  0  0  1  0  0  0  0  0999 V2000
   -0.3045    3.5357    3.2858 N   0  0  0  0  0  0  0  0  0  0  0  0
    0.2565    2.3474    3.9477 C   0  0  0  0  0  0  0  0  0  0  0  0
    0.1632    1.0870    3.0566 C   0  0  2  0  0  0  0  0  0  0  0  0
    0.5471   -0.2099    3.8050 C   0  0  0  0  0  0  0  0  0  0  0  0
    2.0525   -0.2899    4.1004 C   0  0  0  0  0  0  0  0  0  0  0  0
    2.9104   -0.1284    2.8312 C   0  0  1  0  0  0  0  0  0  0  0  0
    2.5338    1.1661    2.0861 C   0  0  0  0  0  0  0  0  0  0  0  0
    1.0271    1.2221    1.7876 C   0  0  0  0  0  0  0  0  0  0  0  0
    4.2517   -0.0278    3.2651 O   0  0  0  0  0  0  0  0  0  0  0  0
    4.8271   -1.3654    2.9325 O   0  0  0  0  0  0  0  0  0  0  0  0
    4.1083   -1.7333    1.7779 C   0  0  2  0  0  0  0  0  0  0  0  0
    2.7803   -1.2631    1.9741 O   0  0  0  0  0  0  0  0  0  0  0  0
    4.1174   -3.2728    1.5797 C   0  0  2  0  0  0  0  0  0  0  0  0
    5.5790   -3.7758    1.4842 C   0  0  0  0  0  0  0  0  0  0  0  0
    6.2819   -3.1077    0.2829 C   0  0  1  0  0  0  0  0  0  0  0  0
    5.5517   -3.4969   -1.0208 C   0  0  0  0  0  0  0  0  0  0  0  0
    4.0968   -3.0068   -0.9429 C   0  0  1  0  0  0  0  0  0  0  0  0
    3.3887   -3.6602    0.2647 C   0  0  0  0  0  0  0  0  0  0  0  0
    4.0703   -1.4741   -0.7681 C   0  0  0  0  0  0  0  0  0  0  0  0
    4.7959   -1.0823    0.5413 C   0  0  2  0  0  0  0  0  0  0  0  0
    6.2572   -1.5753    0.4701 C   0  0  0  0  0  0  0  0  0  0  0  0
   -0.1827    4.3444    3.8592 H   0  0  0  0  0  0  0  0  0  0  0  0
   -1.2879    3.3797    3.0966 H   0  0  0  0  0  0  0  0  0  0  0  0
    1.2853    2.5743    4.2288 H   0  0  0  0  0  0  0  0  0  0  0  0
   -0.2705    2.1859    4.8904 H   0  0  0  0  0  0  0  0  0  0  0  0
   -0.8769    0.9683    2.7390 H   0  0  0  0  0  0  0  0  0  0  0  0
   -0.0276   -0.2929    4.7298 H   0  0  0  0  0  0  0  0  0  0  0  0
    0.2677   -1.0689    3.1924 H   0  0  0  0  0  0  0  0  0  0  0  0
    2.3123    0.5131    4.7872 H   0  0  0  0  0  0  0  0  0  0  0  0
    2.2956   -1.2153    4.6219 H   0  0  0  0  0  0  0  0  0  0  0  0
    2.8327    2.0239    2.6857 H   0  0  0  0  0  0  0  0  0  0  0  0
    3.0933    1.2751    1.1615 H   0  0  0  0  0  0  0  0  0  0  0  0
    0.7761    0.4107    1.1063 H   0  0  0  0  0  0  0  0  0  0  0  0
    0.7759    2.1417    1.2670 H   0  0  0  0  0  0  0  0  0  0  0  0
    3.6193   -3.7560    2.4205 H   0  0  0  0  0  0  0  0  0  0  0  0
    6.1224   -3.5495    2.4015 H   0  0  0  0  0  0  0  0  0  0  0  0
    5.5992   -4.8617    1.3673 H   0  0  0  0  0  0  0  0  0  0  0  0
    7.3159   -3.4505    0.2300 H   0  0  0  0  0  0  0  0  0  0  0  0
    6.0583   -3.0730   -1.8889 H   0  0  0  0  0  0  0  0  0  0  0  0
    5.5763   -4.5793   -1.1495 H   0  0  0  0  0  0  0  0  0  0  0  0
    3.5847   -3.2826   -1.8665 H   0  0  0  0  0  0  0  0  0  0  0  0
    3.3877   -4.7453    0.1417 H   0  0  0  0  0  0  0  0  0  0  0  0
    2.3401   -3.3547    0.2896 H   0  0  0  0  0  0  0  0  0  0  0  0
    4.5494   -0.9977   -1.6238 H   0  0  0  0  0  0  0  0  0  0  0  0
    3.0354   -1.1237   -0.7582 H   0  0  0  0  0  0  0  0  0  0  0  0
    4.8150    0.0021    0.6202 H   0  0  0  0  0  0  0  0  0  0  0  0
    6.7979   -1.3086    1.3786 H   0  0  0  0  0  0  0  0  0  0  0  0
    6.7811   -1.0879   -0.3465 H   0  0  0  0  0  0  0  0  0  0  0  0
    0.1267    3.7299    2.3673 H   0  0  0  0  0  0  0  0  0  0  0  0
  1  2  1  0
  1 22  1  0
  1 23  1  0
  1 49  1  0
  2  3  1  0
  2 24  1  0
  2 25  1  0
  3  8  1  0
  3  4  1  0
  3 26  1  6
  4  5  1  0
  4 27  1  0
  4 28  1  0
  5  6  1  0
  5 29  1  0
  5 30  1  0
  6 12  1  6
  6  7  1  0
  6  9  1  0
  7  8  1  0
  7 31  1  0
  7 32  1  0
  8 33  1  0
  8 34  1  0
  9 10  1  0
 11 10  1  1
 11 20  1  0
 11 12  1  0
 11 13  1  0
 13 18  1  0
 13 14  1  0
 13 35  1  1
 14 15  1  0
 14 36  1  0
 14 37  1  0
 15 21  1  0
 15 16  1  0
 15 38  1  6
 16 17  1  0
 16 39  1  0
 16 40  1  0
 17 18  1  0
 17 19  1  0
 17 41  1  6
 18 42  1  0
 18 43  1  0
 19 20  1  0
 19 44  1  0
 19 45  1  0
 20 21  1  0
 20 46  1  1
 21 47  1  0
 21 48  1  0
M  CHG  1   1   1
M  END
>  <i_m_ct_stereo_status>  (239) 
1

>  <s_m_source_file>  (239) 
/var/tmp/pbs.5076255.sched01/tmple0dc7g8/88jbw3zpwn.sdf

>  <i_m_source_file_index>  (239) 
28

>  <i_lp_mmshare_version>  (239) 
48012

>  <i_f3d_flags>  (239) 
0

>  <s_epik_input>  (239) 
W05IMl1bQ0gyXVtDQEBIXShbQ0gyXVtDSDJdMSlbQ0gyXVtDSDJdW0NAXTEyT09bQ0BdMyhPMilbQ0BIXTRbQ0gyXVtDQEBIXTVbQ0gyXVtDQEhdKFtDSDJdNClbQ0gyXVtDQEhdM1tDSDJdNQ==

>  <s_epik_cmdline>  (239) 
J2VwaWtfcHl0aG9uJywgJy1waHQnLCAnMi4wJywgJy1waCcsICc3LjAnLCAnLXRuJywgJzgnLCAnLW1hJywgJzIwMCcsICctaW1hZScsICc8aW5maWxlLm1hZT4nLCAnLW9tYWUnLCAnPG91dGZpbGUubWFlPic=

>  <r_epik_Ionization_Penalty>  (239) 
0.000404043

>  <r_epik_Ionization_Penalty_Charging>  (239) 
0.000404043

>  <r_epik_Ionization_Penalty_Neutral>  (239) 
1.18402e-15

>  <r_epik_State_Penalty>  (239) 
0.0002478

>  <r_epik_Charging_Adjusted_Penalty>  (239) 
0.000651843

>  <i_epik_Tot_Q>  (239) 
1

>  <i_epik_Tot_abs_Q>  (239) 
1

>  <s_lp_Force_Field>  (239) 
OPLS3e

>  <r_lp_Energy>  (239) 
7.64873

>  <b_lp_Chiralities_Consistent>  (239) 
1

>  <s_lp_Variant>  (239) 
70:0-1

>  <s_i_glide_gridfile>  (239) 
pfpi4k_grid

>  <i_i_glide_lignum>  (239) 
28

>  <i_i_glide_rotatable_bonds>  (239) 
1

>  <r_i_docking_score>  (239) 
-3.97388

>  <r_i_glide_ligand_efficiency>  (239) 
-0.189233

>  <r_i_glide_ligand_efficiency_sa>  (239) 
-0.522078

>  <r_i_glide_ligand_efficiency_ln>  (239) 
-0.982535

>  <r_i_glide_gscore>  (239) 
-3.97388

>  <r_i_glide_lipo>  (239) 
-0.364605

>  <r_i_glide_hbond>  (239) 
-0.2

>  <r_i_glide_metal>  (239) 
-0

>  <r_i_glide_rewards>  (239) 
-1.40176

>  <r_i_glide_evdw>  (239) 
-22.9201

>  <r_i_glide_ecoul>  (239) 
-5.04577

>  <r_i_glide_erotb>  (239) 
0

>  <r_i_glide_esite>  (239) 
-0.104655

>  <r_i_glide_emodel>  (239) 
-36.268

>  <r_i_glide_energy>  (239) 
-27.9658

>  <r_i_glide_einternal>  (239) 
0.00745265

>  <r_i_glide_intrahb_reward>  (239) 
-0

>  <i_i_glide_confnum>  (239) 
5

>  <i_i_glide_posenum>  (239) 
20

>  <r_i_glide_eff_state_penalty>  (239) 
0

>  <ligand_id>  (239) 
70

>  <original_smiles>  (239) 
NCC1CCC2(CC1)OOC1(O2)C2CC3CC(C2)CC1C3

>  <smiles>  (239) 
[H]C1([H])C([H])([H])C([H])(C([H])([H])[N+]([H])([H])[H])C([H])([H])C([H])([H])C12OOC1(O2)C2([H])C([H])([H])C3([H])C([H])([H])C([H])(C2([H])[H])C([H])([H])C1([H])C3([H])[H]

$$$$
70:0:2
     RDKit          3D

 49 53  0  0  1  0  0  0  0  0999 V2000
    3.4295   -0.6818    0.4680 N   0  0  0  0  0  0  0  0  0  0  0  0
    3.6850   -1.9531   -0.2393 C   0  0  0  0  0  0  0  0  0  0  0  0
    3.9194   -3.1275    0.7442 C   0  0  2  0  0  0  0  0  0  0  0  0
    4.1642   -4.4592   -0.0036 C   0  0  0  0  0  0  0  0  0  0  0  0
    4.3375   -5.6593    0.9578 C   0  0  0  0  0  0  0  0  0  0  0  0
    3.1321   -5.8177    1.9096 C   0  0  1  0  0  0  0  0  0  0  0  0
    2.8984   -4.4919    2.6630 C   0  0  0  0  0  0  0  0  0  0  0  0
    2.7258   -3.3035    1.7071 C   0  0  0  0  0  0  0  0  0  0  0  0
    1.9940   -6.1354    1.1342 O   0  0  0  0  0  0  0  0  0  0  0  0
    1.8018   -7.5927    1.3828 O   0  0  0  0  0  0  0  0  0  0  0  0
    2.2469   -7.7525    2.7106 C   0  0  2  0  0  0  0  0  0  0  0  0
    3.3582   -6.8694    2.8538 O   0  0  0  0  0  0  0  0  0  0  0  0
    2.6470   -9.2318    3.0018 C   0  0  2  0  0  0  0  0  0  0  0  0
    1.4415  -10.1603    2.7191 C   0  0  0  0  0  0  0  0  0  0  0  0
    0.2590   -9.7712    3.6263 C   0  0  1  0  0  0  0  0  0  0  0  0
    0.6591   -9.9535    5.1024 C   0  0  0  0  0  0  0  0  0  0  0  0
    1.8573   -9.0363    5.4049 C   0  0  1  0  0  0  0  0  0  0  0  0
    3.0463   -9.4103    4.4927 C   0  0  0  0  0  0  0  0  0  0  0  0
    1.4681   -7.5678    5.1460 C   0  0  0  0  0  0  0  0  0  0  0  0
    1.0651   -7.3844    3.6619 C   0  0  2  0  0  0  0  0  0  0  0  0
   -0.1401   -8.3073    3.3607 C   0  0  0  0  0  0  0  0  0  0  0  0
    3.2625    0.0607   -0.1923 H   0  0  0  0  0  0  0  0  0  0  0  0
    4.2059   -0.4326    1.0588 H   0  0  0  0  0  0  0  0  0  0  0  0
    2.8297   -2.1457   -0.8883 H   0  0  0  0  0  0  0  0  0  0  0  0
    4.5417   -1.8074   -0.9034 H   0  0  0  0  0  0  0  0  0  0  0  0
    4.8042   -2.9030    1.3361 H   0  0  0  0  0  0  0  0  0  0  0  0
    3.3380   -4.6492   -0.6924 H   0  0  0  0  0  0  0  0  0  0  0  0
    5.0552   -4.3631   -0.6292 H   0  0  0  0  0  0  0  0  0  0  0  0
    4.4741   -6.5730    0.3753 H   0  0  0  0  0  0  0  0  0  0  0  0
    5.2503   -5.5221    1.5408 H   0  0  0  0  0  0  0  0  0  0  0  0
    2.0180   -4.5420    3.3043 H   0  0  0  0  0  0  0  0  0  0  0  0
    3.7450   -4.2886    3.3132 H   0  0  0  0  0  0  0  0  0  0  0  0
    2.5718   -2.4073    2.3109 H   0  0  0  0  0  0  0  0  0  0  0  0
    1.8263   -3.4255    1.1063 H   0  0  0  0  0  0  0  0  0  0  0  0
    3.4850   -9.5225    2.3646 H   0  0  0  0  0  0  0  0  0  0  0  0
    1.1429  -10.0892    1.6784 H   0  0  0  0  0  0  0  0  0  0  0  0
    1.7165  -11.2027    2.8995 H   0  0  0  0  0  0  0  0  0  0  0  0
   -0.5833  -10.4209    3.3995 H   0  0  0  0  0  0  0  0  0  0  0  0
   -0.1801   -9.7213    5.7595 H   0  0  0  0  0  0  0  0  0  0  0  0
    0.9121  -10.9969    5.2925 H   0  0  0  0  0  0  0  0  0  0  0  0
    2.1307   -9.1686    6.4518 H   0  0  0  0  0  0  0  0  0  0  0  0
    3.3302  -10.4474    4.6765 H   0  0  0  0  0  0  0  0  0  0  0  0
    3.9173   -8.8036    4.7434 H   0  0  0  0  0  0  0  0  0  0  0  0
    0.6360   -7.2916    5.7950 H   0  0  0  0  0  0  0  0  0  0  0  0
    2.3010   -6.9135    5.4044 H   0  0  0  0  0  0  0  0  0  0  0  0
    0.7425   -6.3556    3.5082 H   0  0  0  0  0  0  0  0  0  0  0  0
   -0.4571   -8.2016    2.3205 H   0  0  0  0  0  0  0  0  0  0  0  0
   -0.9989   -8.0371    3.9786 H   0  0  0  0  0  0  0  0  0  0  0  0
    2.5934   -0.7771    1.0243 H   0  0  0  0  0  0  0  0  0  0  0  0
  1  2  1  0
  1 22  1  0
  1 23  1  0
  1 49  1  0
  2  3  1  0
  2 24  1  0
  2 25  1  0
  3  8  1  0
  3  4  1  0
  3 26  1  1
  4  5  1  0
  4 27  1  0
  4 28  1  0
  5  6  1  0
  5 29  1  0
  5 30  1  0
  6 12  1  1
  6  7  1  0
  6  9  1  0
  7  8  1  0
  7 31  1  0
  7 32  1  0
  8 33  1  0
  8 34  1  0
  9 10  1  0
 11 10  1  6
 11 20  1  0
 11 12  1  0
 11 13  1  0
 13 18  1  0
 13 14  1  0
 13 35  1  6
 14 15  1  0
 14 36  1  0
 14 37  1  0
 15 21  1  0
 15 16  1  0
 15 38  1  6
 16 17  1  0
 16 39  1  0
 16 40  1  0
 17 18  1  0
 17 19  1  0
 17 41  1  1
 18 42  1  0
 18 43  1  0
 19 20  1  0
 19 44  1  0
 19 45  1  0
 20 21  1  0
 20 46  1  1
 21 47  1  0
 21 48  1  0
M  CHG  1   1   1
M  END
>  <i_m_ct_stereo_status>  (240) 
1

>  <s_m_source_file>  (240) 
/var/tmp/pbs.5076255.sched01/tmple0dc7g8/88jbw3zpwn.sdf

>  <i_m_source_file_index>  (240) 
28

>  <i_lp_mmshare_version>  (240) 
48012

>  <i_f3d_flags>  (240) 
0

>  <s_epik_input>  (240) 
W05IMl1bQ0gyXVtDQEBIXShbQ0gyXVtDSDJdMSlbQ0gyXVtDSDJdW0NAXTEyT09bQ0BdMyhPMilbQ0BIXTRbQ0gyXVtDQEBIXTVbQ0gyXVtDQEhdKFtDSDJdNClbQ0gyXVtDQEhdM1tDSDJdNQ==

>  <s_epik_cmdline>  (240) 
J2VwaWtfcHl0aG9uJywgJy1waHQnLCAnMi4wJywgJy1waCcsICc3LjAnLCAnLXRuJywgJzgnLCAnLW1hJywgJzIwMCcsICctaW1hZScsICc8aW5maWxlLm1hZT4nLCAnLW9tYWUnLCAnPG91dGZpbGUubWFlPic=

>  <r_epik_Ionization_Penalty>  (240) 
0.000404043

>  <r_epik_Ionization_Penalty_Charging>  (240) 
0.000404043

>  <r_epik_Ionization_Penalty_Neutral>  (240) 
1.18402e-15

>  <r_epik_State_Penalty>  (240) 
0.0002478

>  <r_epik_Charging_Adjusted_Penalty>  (240) 
0.000651843

>  <i_epik_Tot_Q>  (240) 
1

>  <i_epik_Tot_abs_Q>  (240) 
1

>  <s_lp_Force_Field>  (240) 
OPLS3e

>  <r_lp_Energy>  (240) 
7.64873

>  <b_lp_Chiralities_Consistent>  (240) 
1

>  <s_lp_Variant>  (240) 
70:0-1

>  <s_i_glide_gridfile>  (240) 
pfpi4k_grid

>  <i_i_glide_lignum>  (240) 
28

>  <i_i_glide_rotatable_bonds>  (240) 
1

>  <r_i_docking_score>  (240) 
-3.27979

>  <r_i_glide_ligand_efficiency>  (240) 
-0.156181

>  <r_i_glide_ligand_efficiency_sa>  (240) 
-0.43089

>  <r_i_glide_ligand_efficiency_ln>  (240) 
-0.810922

>  <r_i_glide_gscore>  (240) 
-3.27979

>  <r_i_glide_lipo>  (240) 
-0.187177

>  <r_i_glide_hbond>  (240) 
0

>  <r_i_glide_metal>  (240) 
-0

>  <r_i_glide_rewards>  (240) 
-1.41881

>  <r_i_glide_evdw>  (240) 
-20.1422

>  <r_i_glide_ecoul>  (240) 
-4.03455

>  <r_i_glide_erotb>  (240) 
0

>  <r_i_glide_esite>  (240) 
-0.0615168

>  <r_i_glide_emodel>  (240) 
-30.6874

>  <r_i_glide_energy>  (240) 
-24.1767

>  <r_i_glide_einternal>  (240) 
0.405741

>  <r_i_glide_intrahb_reward>  (240) 
-0

>  <i_i_glide_confnum>  (240) 
1

>  <i_i_glide_posenum>  (240) 
2

>  <r_i_glide_eff_state_penalty>  (240) 
0

>  <ligand_id>  (240) 
70

>  <original_smiles>  (240) 
NCC1CCC2(CC1)OOC1(O2)C2CC3CC(C2)CC1C3

>  <smiles>  (240) 
[H]C1([H])C([H])([H])C([H])(C([H])([H])[N+]([H])([H])[H])C([H])([H])C([H])([H])C12OOC1(O2)C2([H])C([H])([H])C3([H])C([H])([H])C([H])(C2([H])[H])C([H])([H])C1([H])C3([H])[H]

$$$$
75:0:0
     RDKit          3D

 56 60  0  0  1  0  0  0  0  0999 V2000
    0.9862   -5.3464    3.3419 C   0  0  0  0  0  0  0  0  0  0  0  0
    1.7843   -4.8557    2.2552 O   0  0  0  0  0  0  0  0  0  0  0  0
    2.6787   -3.7385    2.4574 C   0  0  2  0  0  0  0  0  0  0  0  0
    1.8471   -2.4555    2.7724 C   0  0  0  0  0  0  0  0  0  0  0  0
    2.6447   -1.4022    3.5842 C   0  0  0  0  0  0  0  0  0  0  0  0
    4.1987   -1.5401    3.4683 C   0  0  2  0  0  0  0  0  0  0  0  0
    4.5576   -0.5693    2.4132 C   0  0  0  0  0  0  0  0  0  0  0  0
    4.2247   -0.7416    1.1375 C   0  0  0  0  0  0  0  0  0  0  0  0
    3.6458   -1.9776    0.4528 C   0  0  1  0  0  0  0  0  0  0  0  0
    4.3935   -2.1906   -0.8445 C   0  0  2  0  0  0  0  0  0  0  0  0
    4.1248   -1.1210   -1.9353 C   0  0  0  0  0  0  0  0  0  0  0  0
    3.6279   -3.4395   -1.2885 C   0  0  0  0  0  0  0  0  0  0  0  0
    2.9506   -4.0298   -0.2778 C   0  0  0  0  0  0  0  0  0  0  0  0
    3.4632   -3.4893    1.0290 C   0  0  2  0  0  0  0  0  0  0  0  0
    4.7447   -4.3531    1.1786 C   0  0  1  0  0  0  0  0  0  0  0  0
    5.4413   -5.3074    0.1369 C   0  0  0  0  0  0  0  0  0  0  0  0
    4.6121   -6.3874   -0.2564 O   0  0  0  0  0  0  0  0  0  0  0  0
    5.6582   -3.5036    2.0354 C   0  0  2  0  0  0  0  0  0  0  0  0
    4.8438   -2.9913    3.3542 C   0  0  2  0  0  0  0  0  0  0  0  0
    3.7033   -4.0208    3.7152 C   0  0  0  0  0  0  0  0  0  0  0  0
    3.0607   -3.7753    5.1386 C   0  0  0  0  0  0  0  0  0  0  0  0
    4.3139   -5.4726    3.9348 C   0  0  0  0  0  0  0  0  0  0  0  0
    6.4826   -2.6056    1.0196 C   0  0  0  0  0  0  0  0  0  0  0  0
    6.9330   -1.5131    1.6454 F   0  0  0  0  0  0  0  0  0  0  0  0
    7.6011   -3.2951    0.7856 F   0  0  0  0  0  0  0  0  0  0  0  0
    5.9462   -2.2669   -0.4731 C   0  0  0  0  0  0  0  0  0  0  0  0
    6.6025   -2.9430   -1.4164 F   0  0  0  0  0  0  0  0  0  0  0  0
    6.4342   -1.0405   -0.6425 F   0  0  0  0  0  0  0  0  0  0  0  0
    0.2943   -6.1009    2.9686 H   0  0  0  0  0  0  0  0  0  0  0  0
    0.3818   -4.5900    3.8369 H   0  0  0  0  0  0  0  0  0  0  0  0
    1.5864   -5.8366    4.1047 H   0  0  0  0  0  0  0  0  0  0  0  0
    1.4568   -2.0042    1.8610 H   0  0  0  0  0  0  0  0  0  0  0  0
    0.9374   -2.6536    3.3294 H   0  0  0  0  0  0  0  0  0  0  0  0
    2.3192   -0.4011    3.2882 H   0  0  0  0  0  0  0  0  0  0  0  0
    2.3686   -1.4152    4.6377 H   0  0  0  0  0  0  0  0  0  0  0  0
    4.6211   -1.1019    4.3775 H   0  0  0  0  0  0  0  0  0  0  0  0
    4.9564    0.3821    2.7333 H   0  0  0  0  0  0  0  0  0  0  0  0
    4.4189    0.0955    0.4850 H   0  0  0  0  0  0  0  0  0  0  0  0
    2.6482   -1.6256    0.1778 H   0  0  0  0  0  0  0  0  0  0  0  0
    4.4778   -0.1304   -1.6606 H   0  0  0  0  0  0  0  0  0  0  0  0
    3.0593   -1.0346   -2.1425 H   0  0  0  0  0  0  0  0  0  0  0  0
    4.6228   -1.3824   -2.8700 H   0  0  0  0  0  0  0  0  0  0  0  0
    3.5460   -3.7184   -2.3255 H   0  0  0  0  0  0  0  0  0  0  0  0
    2.3167   -4.8884   -0.3671 H   0  0  0  0  0  0  0  0  0  0  0  0
    4.3476   -5.2102    1.6738 H   0  0  0  0  0  0  0  0  0  0  0  0
    5.7996   -4.8624   -0.7758 H   0  0  0  0  0  0  0  0  0  0  0  0
    6.3200   -5.7435    0.6188 H   0  0  0  0  0  0  0  0  0  0  0  0
    4.0298   -6.0807   -0.9477 H   0  0  0  0  0  0  0  0  0  0  0  0
    6.4101   -4.1732    2.4526 H   0  0  0  0  0  0  0  0  0  0  0  0
    5.5729   -3.0370    4.1669 H   0  0  0  0  0  0  0  0  0  0  0  0
    3.5912   -3.0103    5.7006 H   0  0  0  0  0  0  0  0  0  0  0  0
    3.0427   -4.6483    5.7858 H   0  0  0  0  0  0  0  0  0  0  0  0
    2.0099   -3.5002    5.1074 H   0  0  0  0  0  0  0  0  0  0  0  0
    4.6192   -5.6654    4.9601 H   0  0  0  0  0  0  0  0  0  0  0  0
    5.2473   -5.6841    3.4258 H   0  0  0  0  0  0  0  0  0  0  0  0
    3.6264   -6.2676    3.6460 H   0  0  0  0  0  0  0  0  0  0  0  0
  1  2  1  0
  1 29  1  0
  1 30  1  0
  1 31  1  0
  3  2  1  6
  3 14  1  0
  3 20  1  0
  3  4  1  0
  4  5  1  0
  4 32  1  0
  4 33  1  0
  5  6  1  0
  5 34  1  0
  5 35  1  0
  6 19  1  0
  6  7  1  0
  6 36  1  1
  7  8  2  3
  7 37  1  0
  8  9  1  0
  8 38  1  0
  9 14  1  0
  9 10  1  0
  9 39  1  6
 10 26  1  0
 10 11  1  6
 10 12  1  0
 11 40  1  0
 11 41  1  0
 11 42  1  0
 12 13  2  0
 12 43  1  0
 14 13  1  6
 13 44  1  0
 14 15  1  0
 15 16  1  0
 15 18  1  0
 15 45  1  1
 16 17  1  0
 16 46  1  0
 16 47  1  0
 17 48  1  0
 18 19  1  0
 18 23  1  0
 18 49  1  1
 19 20  1  0
 19 50  1  1
 20 21  1  0
 20 22  1  0
 21 51  1  0
 21 52  1  0
 21 53  1  0
 22 54  1  0
 22 55  1  0
 22 56  1  0
 23 24  1  0
 23 25  1  0
 23 26  1  0
 26 27  1  0
 26 28  1  0
M  END
>  <i_m_ct_stereo_status>  (241) 
1

>  <s_m_source_file>  (241) 
/var/tmp/pbs.5076255.sched01/tmple0dc7g8/88jbw3zpwn.sdf

>  <i_m_source_file_index>  (241) 
34

>  <i_lp_mmshare_version>  (241) 
48012

>  <i_f3d_flags>  (241) 
0

>  <s_epik_input>  (241) 
W0NIM11PW0NAQF0xKFtDQF0yMzQpW0NIMl1bQ0gyXVtDQEhdNVtDQEBIXShDMShbQ0gzXSlbQ0gzXSlbQ0BASF0oW0NAQEhdNFtDSDJdW09IXSlDKEYpKEYpQyhGKShGKVtDQEBdKFtDSDNdKShbQ0hdPVtDSF0zKVtDQEBIXTIvW0NIXT1bQ0hdXDU=

>  <s_epik_cmdline>  (241) 
J2VwaWtfcHl0aG9uJywgJy1waHQnLCAnMi4wJywgJy1waCcsICc3LjAnLCAnLXRuJywgJzgnLCAnLW1hJywgJzIwMCcsICctaW1hZScsICc8aW5maWxlLm1hZT4nLCAnLW9tYWUnLCAnPG91dGZpbGUubWFlPic=

>  <r_lp_tautomer_probability>  (241) 
1

>  <r_epik_Ionization_Penalty>  (241) 
2.43472e-07

>  <r_epik_Ionization_Penalty_Charging>  (241) 
0

>  <r_epik_Ionization_Penalty_Neutral>  (241) 
2.43472e-07

>  <r_epik_State_Penalty>  (241) 
-0

>  <r_epik_Charging_Adjusted_Penalty>  (241) 
0

>  <i_epik_Tot_Q>  (241) 
0

>  <i_epik_Tot_abs_Q>  (241) 
0

>  <s_lp_Force_Field>  (241) 
OPLS3e

>  <r_lp_Energy>  (241) 
164.429

>  <b_lp_Chiralities_Consistent>  (241) 
1

>  <s_lp_Variant>  (241) 
75:0-1

>  <s_i_glide_gridfile>  (241) 
pfpi4k_grid

>  <i_i_glide_lignum>  (241) 
34

>  <i_i_glide_rotatable_bonds>  (241) 
3

>  <r_i_docking_score>  (241) 
-3.1855

>  <r_i_glide_ligand_efficiency>  (241) 
-0.113768

>  <r_i_glide_ligand_efficiency_sa>  (241) 
-0.345466

>  <r_i_glide_ligand_efficiency_ln>  (241) 
-0.735306

>  <r_i_glide_gscore>  (241) 
-3.1855

>  <r_i_glide_lipo>  (241) 
-0.44337

>  <r_i_glide_hbond>  (241) 
-0.323208

>  <r_i_glide_metal>  (241) 
-0

>  <r_i_glide_rewards>  (241) 
-0.861815

>  <r_i_glide_evdw>  (241) 
-18.1718

>  <r_i_glide_ecoul>  (241) 
-4.57341

>  <r_i_glide_erotb>  (241) 
0.122252

>  <r_i_glide_esite>  (241) 
-0.0847528

>  <r_i_glide_emodel>  (241) 
-25.1089

>  <r_i_glide_energy>  (241) 
-22.7452

>  <r_i_glide_einternal>  (241) 
3.24574

>  <r_i_glide_intrahb_reward>  (241) 
-0

>  <i_i_glide_confnum>  (241) 
5

>  <i_i_glide_posenum>  (241) 
5

>  <r_i_glide_eff_state_penalty>  (241) 
0

>  <ligand_id>  (241) 
75

>  <original_smiles>  (241) 
COC12CCC3C=CC4C5(C)C=CC41C(CO)C(C3C2(C)C)C(F)(F)C5(F)F

>  <smiles>  (241) 
[H]OC([H])([H])C1([H])C2([H])C(F)(F)C(F)(F)C3(C([H])([H])[H])C([H])=C([H])C14C3([H])C([H])=C([H])C1([H])C([H])([H])C([H])([H])C4(OC([H])([H])[H])C(C([H])([H])[H])(C([H])([H])[H])C12[H]

$$$$
75:0:1
     RDKit          3D

 56 60  0  0  1  0  0  0  0  0999 V2000
    1.4488   -1.3813    2.4614 C   0  0  0  0  0  0  0  0  0  0  0  0
    2.3086   -0.5005    3.1817 O   0  0  0  0  0  0  0  0  0  0  0  0
    1.8300    0.0767    4.4044 C   0  0  2  0  0  0  0  0  0  0  0  0
    1.0543   -0.9742    5.2660 C   0  0  0  0  0  0  0  0  0  0  0  0
    1.1573   -0.7200    6.7934 C   0  0  0  0  0  0  0  0  0  0  0  0
    1.5530    0.7417    7.1781 C   0  0  2  0  0  0  0  0  0  0  0  0
    0.2504    1.3969    7.4410 C   0  0  0  0  0  0  0  0  0  0  0  0
   -0.6240    1.6588    6.4803 C   0  0  0  0  0  0  0  0  0  0  0  0
   -0.4618    1.5796    4.9608 C   0  0  1  0  0  0  0  0  0  0  0  0
   -1.0596    2.8337    4.3651 C   0  0  2  0  0  0  0  0  0  0  0  0
   -2.5956    2.9232    4.4684 C   0  0  0  0  0  0  0  0  0  0  0  0
   -0.7590    2.5036    2.9025 C   0  0  0  0  0  0  0  0  0  0  0  0
    0.1880    1.5626    2.7572 C   0  0  0  0  0  0  0  0  0  0  0  0
    0.8831    1.3703    4.0807 C   0  0  2  0  0  0  0  0  0  0  0  0
    1.8980    2.5487    3.9870 C   0  0  1  0  0  0  0  0  0  0  0  0
    1.9690    3.7149    2.9293 C   0  0  0  0  0  0  0  0  0  0  0  0
    3.2196    4.3765    2.9936 O   0  0  0  0  0  0  0  0  0  0  0  0
    2.1808    2.8905    5.4387 C   0  0  2  0  0  0  0  0  0  0  0  0
    2.5777    1.5262    6.2508 C   0  0  2  0  0  0  0  0  0  0  0  0
    3.1816    0.4654    5.2484 C   0  0  0  0  0  0  0  0  0  0  0  0
    3.8903   -0.7620    5.9494 C   0  0  0  0  0  0  0  0  0  0  0  0
    4.4453    1.0463    4.4915 C   0  0  0  0  0  0  0  0  0  0  0  0
    1.0758    3.9597    5.8449 C   0  0  0  0  0  0  0  0  0  0  0  0
    0.9380    3.9662    7.1730 F   0  0  0  0  0  0  0  0  0  0  0  0
    1.6392    5.1469    5.6073 F   0  0  0  0  0  0  0  0  0  0  0  0
   -0.3568    4.0769    5.0838 C   0  0  0  0  0  0  0  0  0  0  0  0
   -0.4176    5.1231    4.2558 F   0  0  0  0  0  0  0  0  0  0  0  0
   -1.1624    4.4657    6.0781 F   0  0  0  0  0  0  0  0  0  0  0  0
    1.8288   -1.4827    1.4455 H   0  0  0  0  0  0  0  0  0  0  0  0
    0.4237   -1.0226    2.4006 H   0  0  0  0  0  0  0  0  0  0  0  0
    1.4316   -2.3783    2.9003 H   0  0  0  0  0  0  0  0  0  0  0  0
    0.0115   -1.0381    4.9619 H   0  0  0  0  0  0  0  0  0  0  0  0
    1.4263   -1.9802    5.0811 H   0  0  0  0  0  0  0  0  0  0  0  0
    0.2183   -1.0155    7.2690 H   0  0  0  0  0  0  0  0  0  0  0  0
    1.8575   -1.4180    7.2552 H   0  0  0  0  0  0  0  0  0  0  0  0
    2.0216    0.6866    8.1628 H   0  0  0  0  0  0  0  0  0  0  0  0
   -0.0357    1.5305    8.4763 H   0  0  0  0  0  0  0  0  0  0  0  0
   -1.5842    2.0217    6.8177 H   0  0  0  0  0  0  0  0  0  0  0  0
   -1.1326    0.7600    4.7055 H   0  0  0  0  0  0  0  0  0  0  0  0
   -2.9706    2.9917    5.4886 H   0  0  0  0  0  0  0  0  0  0  0  0
   -3.0460    2.0471    4.0149 H   0  0  0  0  0  0  0  0  0  0  0  0
   -2.9722    3.7887    3.9258 H   0  0  0  0  0  0  0  0  0  0  0  0
   -1.3417    2.9143    2.0884 H   0  0  0  0  0  0  0  0  0  0  0  0
    0.5298    1.1620    1.8178 H   0  0  0  0  0  0  0  0  0  0  0  0
    2.6773    2.0541    3.4449 H   0  0  0  0  0  0  0  0  0  0  0  0
    1.8845    3.3269    1.9115 H   0  0  0  0  0  0  0  0  0  0  0  0
    1.2142    4.4771    2.9978 H   0  0  0  0  0  0  0  0  0  0  0  0
    3.8784    3.8190    2.5974 H   0  0  0  0  0  0  0  0  0  0  0  0
    3.1120    3.4592    5.4533 H   0  0  0  0  0  0  0  0  0  0  0  0
    3.3842    1.8342    6.9207 H   0  0  0  0  0  0  0  0  0  0  0  0
    3.9082   -0.6510    7.0350 H   0  0  0  0  0  0  0  0  0  0  0  0
    4.9319   -0.9293    5.6768 H   0  0  0  0  0  0  0  0  0  0  0  0
    3.4508   -1.7242    5.6981 H   0  0  0  0  0  0  0  0  0  0  0  0
    5.3789    0.9389    5.0426 H   0  0  0  0  0  0  0  0  0  0  0  0
    4.4547    2.1225    4.3394 H   0  0  0  0  0  0  0  0  0  0  0  0
    4.5837    0.5616    3.5235 H   0  0  0  0  0  0  0  0  0  0  0  0
  1  2  1  0
  1 29  1  0
  1 30  1  0
  1 31  1  0
  3  2  1  6
  3 14  1  0
  3 20  1  0
  3  4  1  0
  4  5  1  0
  4 32  1  0
  4 33  1  0
  5  6  1  0
  5 34  1  0
  5 35  1  0
  6 19  1  0
  6  7  1  0
  6 36  1  1
  7  8  2  3
  7 37  1  0
  8  9  1  0
  8 38  1  0
  9 14  1  0
  9 10  1  0
  9 39  1  6
 10 26  1  0
 10 11  1  6
 10 12  1  0
 11 40  1  0
 11 41  1  0
 11 42  1  0
 12 13  2  0
 12 43  1  0
 14 13  1  6
 13 44  1  0
 14 15  1  0
 15 16  1  0
 15 18  1  0
 15 45  1  6
 16 17  1  0
 16 46  1  0
 16 47  1  0
 17 48  1  0
 18 19  1  0
 18 23  1  0
 18 49  1  6
 19 20  1  0
 19 50  1  1
 20 21  1  0
 20 22  1  0
 21 51  1  0
 21 52  1  0
 21 53  1  0
 22 54  1  0
 22 55  1  0
 22 56  1  0
 23 24  1  0
 23 25  1  0
 23 26  1  0
 26 27  1  0
 26 28  1  0
M  END
>  <i_m_ct_stereo_status>  (242) 
1

>  <s_m_source_file>  (242) 
/var/tmp/pbs.5076255.sched01/tmple0dc7g8/88jbw3zpwn.sdf

>  <i_m_source_file_index>  (242) 
34

>  <i_lp_mmshare_version>  (242) 
48012

>  <i_f3d_flags>  (242) 
0

>  <s_epik_input>  (242) 
W0NIM11PW0NAQF0xKFtDQF0yMzQpW0NIMl1bQ0gyXVtDQEhdNVtDQEBIXShDMShbQ0gzXSlbQ0gzXSlbQ0BASF0oW0NAQEhdNFtDSDJdW09IXSlDKEYpKEYpQyhGKShGKVtDQEBdKFtDSDNdKShbQ0hdPVtDSF0zKVtDQEBIXTIvW0NIXT1bQ0hdXDU=

>  <s_epik_cmdline>  (242) 
J2VwaWtfcHl0aG9uJywgJy1waHQnLCAnMi4wJywgJy1waCcsICc3LjAnLCAnLXRuJywgJzgnLCAnLW1hJywgJzIwMCcsICctaW1hZScsICc8aW5maWxlLm1hZT4nLCAnLW9tYWUnLCAnPG91dGZpbGUubWFlPic=

>  <r_lp_tautomer_probability>  (242) 
1

>  <r_epik_Ionization_Penalty>  (242) 
2.43472e-07

>  <r_epik_Ionization_Penalty_Charging>  (242) 
0

>  <r_epik_Ionization_Penalty_Neutral>  (242) 
2.43472e-07

>  <r_epik_State_Penalty>  (242) 
-0

>  <r_epik_Charging_Adjusted_Penalty>  (242) 
0

>  <i_epik_Tot_Q>  (242) 
0

>  <i_epik_Tot_abs_Q>  (242) 
0

>  <s_lp_Force_Field>  (242) 
OPLS3e

>  <r_lp_Energy>  (242) 
164.429

>  <b_lp_Chiralities_Consistent>  (242) 
1

>  <s_lp_Variant>  (242) 
75:0-1

>  <s_i_glide_gridfile>  (242) 
pfpi4k_grid

>  <i_i_glide_lignum>  (242) 
34

>  <i_i_glide_rotatable_bonds>  (242) 
3

>  <r_i_docking_score>  (242) 
-2.49438

>  <r_i_glide_ligand_efficiency>  (242) 
-0.089085

>  <r_i_glide_ligand_efficiency_sa>  (242) 
-0.270514

>  <r_i_glide_ligand_efficiency_ln>  (242) 
-0.575776

>  <r_i_glide_gscore>  (242) 
-2.49438

>  <r_i_glide_lipo>  (242) 
-0.0104023

>  <r_i_glide_hbond>  (242) 
-0.32

>  <r_i_glide_metal>  (242) 
-0

>  <r_i_glide_rewards>  (242) 
-0.678749

>  <r_i_glide_evdw>  (242) 
-15.6768

>  <r_i_glide_ecoul>  (242) 
-4.77903

>  <r_i_glide_erotb>  (242) 
0.122252

>  <r_i_glide_esite>  (242) 
-0.106786

>  <r_i_glide_emodel>  (242) 
-23.7469

>  <r_i_glide_energy>  (242) 
-20.4558

>  <r_i_glide_einternal>  (242) 
0.180578

>  <r_i_glide_intrahb_reward>  (242) 
-0

>  <i_i_glide_confnum>  (242) 
1

>  <i_i_glide_posenum>  (242) 
32

>  <r_i_glide_eff_state_penalty>  (242) 
0

>  <ligand_id>  (242) 
75

>  <original_smiles>  (242) 
COC12CCC3C=CC4C5(C)C=CC41C(CO)C(C3C2(C)C)C(F)(F)C5(F)F

>  <smiles>  (242) 
[H]OC([H])([H])C1([H])C2([H])C(F)(F)C(F)(F)C3(C([H])([H])[H])C([H])=C([H])C14C3([H])C([H])=C([H])C1([H])C([H])([H])C([H])([H])C4(OC([H])([H])[H])C(C([H])([H])[H])(C([H])([H])[H])C12[H]

$$$$
75:0:2
     RDKit          3D

 56 60  0  0  1  0  0  0  0  0999 V2000
    3.1809    0.0792    1.6783 C   0  0  0  0  0  0  0  0  0  0  0  0
    3.2693    0.0318    3.1026 O   0  0  0  0  0  0  0  0  0  0  0  0
    2.0876   -0.2900    3.8515 C   0  0  2  0  0  0  0  0  0  0  0  0
    1.2574   -1.4178    3.1565 C   0  0  0  0  0  0  0  0  0  0  0  0
    0.4562   -2.2965    4.1519 C   0  0  0  0  0  0  0  0  0  0  0  0
    0.2041   -1.6327    5.5444 C   0  0  2  0  0  0  0  0  0  0  0  0
   -1.1467   -1.0467    5.4074 C   0  0  0  0  0  0  0  0  0  0  0  0
   -1.3989   -0.0026    4.6235 C   0  0  0  0  0  0  0  0  0  0  0  0
   -0.4313    0.9282    3.8983 C   0  0  1  0  0  0  0  0  0  0  0  0
   -0.9025    2.3479    4.1172 C   0  0  2  0  0  0  0  0  0  0  0  0
   -2.2192    2.7054    3.3826 C   0  0  0  0  0  0  0  0  0  0  0  0
    0.2146    3.0376    3.3360 C   0  0  0  0  0  0  0  0  0  0  0  0
    1.2843    2.2491    3.1324 C   0  0  0  0  0  0  0  0  0  0  0  0
    1.1771    1.0575    4.0465 C   0  0  2  0  0  0  0  0  0  0  0  0
    1.7501    1.7012    5.3445 C   0  0  1  0  0  0  0  0  0  0  0  0
    2.0940    3.2104    5.6364 C   0  0  0  0  0  0  0  0  0  0  0  0
    2.9215    3.3247    6.7780 O   0  0  0  0  0  0  0  0  0  0  0  0
    1.1116    0.8916    6.4557 C   0  0  2  0  0  0  0  0  0  0  0  0
    1.3361   -0.7003    6.1623 C   0  0  2  0  0  0  0  0  0  0  0  0
    2.6244   -0.9072    5.2723 C   0  0  0  0  0  0  0  0  0  0  0  0
    3.1208   -2.4035    5.1812 C   0  0  0  0  0  0  0  0  0  0  0  0
    3.9052   -0.2866    5.9673 C   0  0  0  0  0  0  0  0  0  0  0  0
   -0.2652    1.6220    6.7779 C   0  0  0  0  0  0  0  0  0  0  0  0
   -1.0956    0.7615    7.3755 F   0  0  0  0  0  0  0  0  0  0  0  0
    0.0242    2.4787    7.7592 F   0  0  0  0  0  0  0  0  0  0  0  0
   -1.0375    2.5600    5.6958 C   0  0  0  0  0  0  0  0  0  0  0  0
   -0.8920    3.8629    5.9466 F   0  0  0  0  0  0  0  0  0  0  0  0
   -2.3188    2.3536    6.0183 F   0  0  0  0  0  0  0  0  0  0  0  0
    4.0571    0.5995    1.2961 H   0  0  0  0  0  0  0  0  0  0  0  0
    2.2955    0.5996    1.3155 H   0  0  0  0  0  0  0  0  0  0  0  0
    3.1899   -0.9189    1.2401 H   0  0  0  0  0  0  0  0  0  0  0  0
    0.6042   -1.0069    2.3914 H   0  0  0  0  0  0  0  0  0  0  0  0
    1.9023   -2.0859    2.5902 H   0  0  0  0  0  0  0  0  0  0  0  0
   -0.4827   -2.5977    3.6855 H   0  0  0  0  0  0  0  0  0  0  0  0
    0.9400   -3.2626    4.2933 H   0  0  0  0  0  0  0  0  0  0  0  0
    0.0674   -2.4495    6.2569 H   0  0  0  0  0  0  0  0  0  0  0  0
   -1.9722   -1.5918    5.8379 H   0  0  0  0  0  0  0  0  0  0  0  0
   -2.4402    0.2441    4.5027 H   0  0  0  0  0  0  0  0  0  0  0  0
   -0.6323    0.6909    2.8531 H   0  0  0  0  0  0  0  0  0  0  0  0
   -3.0818    2.1510    3.7457 H   0  0  0  0  0  0  0  0  0  0  0  0
   -2.1440    2.5012    2.3149 H   0  0  0  0  0  0  0  0  0  0  0  0
   -2.4527    3.7651    3.4964 H   0  0  0  0  0  0  0  0  0  0  0  0
    0.0785    4.0063    2.8809 H   0  0  0  0  0  0  0  0  0  0  0  0
    2.1592    2.5107    2.5642 H   0  0  0  0  0  0  0  0  0  0  0  0
    2.7909    1.5364    5.1553 H   0  0  0  0  0  0  0  0  0  0  0  0
    2.6530    3.6541    4.8083 H   0  0  0  0  0  0  0  0  0  0  0  0
    1.2593    3.8697    5.7966 H   0  0  0  0  0  0  0  0  0  0  0  0
    3.7378    2.8809    6.5993 H   0  0  0  0  0  0  0  0  0  0  0  0
    1.7124    1.0589    7.3500 H   0  0  0  0  0  0  0  0  0  0  0  0
    1.5490   -1.1305    7.1431 H   0  0  0  0  0  0  0  0  0  0  0  0
    2.5246   -3.0652    5.8101 H   0  0  0  0  0  0  0  0  0  0  0  0
    4.1483   -2.5824    5.4962 H   0  0  0  0  0  0  0  0  0  0  0  0
    3.1399   -2.7982    4.1686 H   0  0  0  0  0  0  0  0  0  0  0  0
    4.3847   -0.9595    6.6789 H   0  0  0  0  0  0  0  0  0  0  0  0
    3.7364    0.5669    6.6187 H   0  0  0  0  0  0  0  0  0  0  0  0
    4.6599   -0.0071    5.2284 H   0  0  0  0  0  0  0  0  0  0  0  0
  1  2  1  0
  1 29  1  0
  1 30  1  0
  1 31  1  0
  3  2  1  6
  3 14  1  0
  3 20  1  0
  3  4  1  0
  4  5  1  0
  4 32  1  0
  4 33  1  0
  5  6  1  0
  5 34  1  0
  5 35  1  0
  6 19  1  0
  6  7  1  0
  6 36  1  1
  7  8  2  3
  7 37  1  0
  8  9  1  0
  8 38  1  0
  9 14  1  0
  9 10  1  0
  9 39  1  6
 10 26  1  0
 10 11  1  6
 10 12  1  0
 11 40  1  0
 11 41  1  0
 11 42  1  0
 12 13  2  0
 12 43  1  0
 14 13  1  6
 13 44  1  0
 14 15  1  0
 15 16  1  0
 15 18  1  0
 15 45  1  6
 16 17  1  0
 16 46  1  0
 16 47  1  0
 17 48  1  0
 18 19  1  0
 18 23  1  0
 18 49  1  1
 19 20  1  0
 19 50  1  1
 20 21  1  0
 20 22  1  0
 21 51  1  0
 21 52  1  0
 21 53  1  0
 22 54  1  0
 22 55  1  0
 22 56  1  0
 23 24  1  0
 23 25  1  0
 23 26  1  0
 26 27  1  0
 26 28  1  0
M  END
>  <i_m_ct_stereo_status>  (243) 
1

>  <s_m_source_file>  (243) 
/var/tmp/pbs.5076255.sched01/tmple0dc7g8/88jbw3zpwn.sdf

>  <i_m_source_file_index>  (243) 
34

>  <i_lp_mmshare_version>  (243) 
48012

>  <i_f3d_flags>  (243) 
0

>  <s_epik_input>  (243) 
W0NIM11PW0NAQF0xKFtDQF0yMzQpW0NIMl1bQ0gyXVtDQEhdNVtDQEBIXShDMShbQ0gzXSlbQ0gzXSlbQ0BASF0oW0NAQEhdNFtDSDJdW09IXSlDKEYpKEYpQyhGKShGKVtDQEBdKFtDSDNdKShbQ0hdPVtDSF0zKVtDQEBIXTIvW0NIXT1bQ0hdXDU=

>  <s_epik_cmdline>  (243) 
J2VwaWtfcHl0aG9uJywgJy1waHQnLCAnMi4wJywgJy1waCcsICc3LjAnLCAnLXRuJywgJzgnLCAnLW1hJywgJzIwMCcsICctaW1hZScsICc8aW5maWxlLm1hZT4nLCAnLW9tYWUnLCAnPG91dGZpbGUubWFlPic=

>  <r_lp_tautomer_probability>  (243) 
1

>  <r_epik_Ionization_Penalty>  (243) 
2.43472e-07

>  <r_epik_Ionization_Penalty_Charging>  (243) 
0

>  <r_epik_Ionization_Penalty_Neutral>  (243) 
2.43472e-07

>  <r_epik_State_Penalty>  (243) 
-0

>  <r_epik_Charging_Adjusted_Penalty>  (243) 
0

>  <i_epik_Tot_Q>  (243) 
0

>  <i_epik_Tot_abs_Q>  (243) 
0

>  <s_lp_Force_Field>  (243) 
OPLS3e

>  <r_lp_Energy>  (243) 
164.429

>  <b_lp_Chiralities_Consistent>  (243) 
1

>  <s_lp_Variant>  (243) 
75:0-1

>  <s_i_glide_gridfile>  (243) 
pfpi4k_grid

>  <i_i_glide_lignum>  (243) 
34

>  <i_i_glide_rotatable_bonds>  (243) 
3

>  <r_i_docking_score>  (243) 
-2.03848

>  <r_i_glide_ligand_efficiency>  (243) 
-0.0728027

>  <r_i_glide_ligand_efficiency_sa>  (243) 
-0.221072

>  <r_i_glide_ligand_efficiency_ln>  (243) 
-0.47054

>  <r_i_glide_gscore>  (243) 
-2.03848

>  <r_i_glide_lipo>  (243) 
-0.0713608

>  <r_i_glide_hbond>  (243) 
0

>  <r_i_glide_metal>  (243) 
-0

>  <r_i_glide_rewards>  (243) 
-0.751628

>  <r_i_glide_evdw>  (243) 
-16.9682

>  <r_i_glide_ecoul>  (243) 
-2.62297

>  <r_i_glide_erotb>  (243) 
0.122252

>  <r_i_glide_esite>  (243) 
-0.095884

>  <r_i_glide_emodel>  (243) 
-22.4047

>  <r_i_glide_energy>  (243) 
-19.5912

>  <r_i_glide_einternal>  (243) 
0.00876746

>  <r_i_glide_intrahb_reward>  (243) 
-0

>  <i_i_glide_confnum>  (243) 
4

>  <i_i_glide_posenum>  (243) 
33

>  <r_i_glide_eff_state_penalty>  (243) 
0

>  <ligand_id>  (243) 
75

>  <original_smiles>  (243) 
COC12CCC3C=CC4C5(C)C=CC41C(CO)C(C3C2(C)C)C(F)(F)C5(F)F

>  <smiles>  (243) 
[H]OC([H])([H])C1([H])C2([H])C(F)(F)C(F)(F)C3(C([H])([H])[H])C([H])=C([H])C14C3([H])C([H])=C([H])C1([H])C([H])([H])C([H])([H])C4(OC([H])([H])[H])C(C([H])([H])[H])(C([H])([H])[H])C12[H]

$$$$
75:1:0
     RDKit          3D

 56 60  0  0  1  0  0  0  0  0999 V2000
    2.2012   -1.6025    1.9354 C   0  0  0  0  0  0  0  0  0  0  0  0
    1.1992   -0.6678    2.3694 O   0  0  0  0  0  0  0  0  0  0  0  0
    1.5181    0.2995    3.3799 C   0  0  1  0  0  0  0  0  0  0  0  0
    2.6483    1.2882    2.9018 C   0  0  0  0  0  0  0  0  0  0  0  0
    3.4920    1.8983    4.0768 C   0  0  0  0  0  0  0  0  0  0  0  0
    2.8600    1.8670    5.5183 C   0  0  1  0  0  0  0  0  0  0  0  0
    2.2320    3.2183    5.5819 C   0  0  0  0  0  0  0  0  0  0  0  0
    1.1688    3.5354    4.8161 C   0  0  0  0  0  0  0  0  0  0  0  0
    0.2269    2.7769    3.8518 C   0  0  2  0  0  0  0  0  0  0  0  0
   -1.2082    3.2041    4.1033 C   0  0  1  0  0  0  0  0  0  0  0  0
   -1.4848    4.6731    3.6717 C   0  0  0  0  0  0  0  0  0  0  0  0
   -1.8118    2.3005    3.0101 C   0  0  0  0  0  0  0  0  0  0  0  0
   -0.9929    1.2885    2.6329 C   0  0  0  0  0  0  0  0  0  0  0  0
    0.1271    1.1247    3.6498 C   0  0  1  0  0  0  0  0  0  0  0  0
   -0.5884    0.4289    4.8039 C   0  0  1  0  0  0  0  0  0  0  0  0
   -1.2464   -0.9370    4.4670 C   0  0  0  0  0  0  0  0  0  0  0  0
   -1.7820   -1.5955    5.5641 O   0  0  0  0  0  0  0  0  0  0  0  0
    0.2191    0.7848    6.0541 C   0  0  1  0  0  0  0  0  0  0  0  0
    1.8425    0.6418    5.8162 C   0  0  1  0  0  0  0  0  0  0  0  0
    2.0917   -0.4432    4.7139 C   0  0  0  0  0  0  0  0  0  0  0  0
    1.4919   -1.8289    5.1943 C   0  0  0  0  0  0  0  0  0  0  0  0
    3.6158   -0.8918    4.6212 C   0  0  0  0  0  0  0  0  0  0  0  0
   -0.5418    2.0633    6.6096 C   0  0  0  0  0  0  0  0  0  0  0  0
   -1.3991    1.5836    7.5083 F   0  0  0  0  0  0  0  0  0  0  0  0
    0.2875    2.7928    7.3477 F   0  0  0  0  0  0  0  0  0  0  0  0
   -1.4989    2.9740    5.6594 C   0  0  0  0  0  0  0  0  0  0  0  0
   -2.7621    2.5572    5.7140 F   0  0  0  0  0  0  0  0  0  0  0  0
   -1.5161    4.1555    6.2788 F   0  0  0  0  0  0  0  0  0  0  0  0
    1.8338   -2.1528    1.0641 H   0  0  0  0  0  0  0  0  0  0  0  0
    2.4489   -2.3607    2.6845 H   0  0  0  0  0  0  0  0  0  0  0  0
    3.1409   -1.1359    1.6314 H   0  0  0  0  0  0  0  0  0  0  0  0
    3.3621    0.7930    2.2451 H   0  0  0  0  0  0  0  0  0  0  0  0
    2.2236    2.0515    2.2430 H   0  0  0  0  0  0  0  0  0  0  0  0
    4.4494    1.4063    4.1200 H   0  0  0  0  0  0  0  0  0  0  0  0
    3.7723    2.9144    3.7677 H   0  0  0  0  0  0  0  0  0  0  0  0
    3.6519    1.8993    6.2662 H   0  0  0  0  0  0  0  0  0  0  0  0
    2.6299    4.0526    6.1740 H   0  0  0  0  0  0  0  0  0  0  0  0
    1.2506    2.5942    4.5035 H   0  0  0  0  0  0  0  0  0  0  0  0
    0.5313    3.2342    2.9017 H   0  0  0  0  0  0  0  0  0  0  0  0
   -0.9673    5.3944    4.2993 H   0  0  0  0  0  0  0  0  0  0  0  0
   -2.5536    4.8791    3.7289 H   0  0  0  0  0  0  0  0  0  0  0  0
   -1.1834    4.8891    2.6487 H   0  0  0  0  0  0  0  0  0  0  0  0
   -2.7554    2.5517    2.5149 H   0  0  0  0  0  0  0  0  0  0  0  0
   -1.1746    0.5671    1.8592 H   0  0  0  0  0  0  0  0  0  0  0  0
   -1.5703    0.8236    5.0000 H   0  0  0  0  0  0  0  0  0  0  0  0
   -2.1386   -0.7984    3.8618 H   0  0  0  0  0  0  0  0  0  0  0  0
   -0.6514   -1.6467    3.9278 H   0  0  0  0  0  0  0  0  0  0  0  0
   -1.0925   -2.0061    6.0739 H   0  0  0  0  0  0  0  0  0  0  0  0
   -0.0028    0.0142    6.7871 H   0  0  0  0  0  0  0  0  0  0  0  0
    2.2109    0.2589    6.7585 H   0  0  0  0  0  0  0  0  0  0  0  0
    2.1620   -2.3726    5.8696 H   0  0  0  0  0  0  0  0  0  0  0  0
    1.2747   -2.5155    4.3724 H   0  0  0  0  0  0  0  0  0  0  0  0
    0.6250   -1.7652    5.8347 H   0  0  0  0  0  0  0  0  0  0  0  0
    4.2462   -0.4156    5.3775 H   0  0  0  0  0  0  0  0  0  0  0  0
    4.0762   -0.7045    3.6535 H   0  0  0  0  0  0  0  0  0  0  0  0
    3.8083   -1.9589    4.7408 H   0  0  0  0  0  0  0  0  0  0  0  0
  1  2  1  0
  1 29  1  0
  1 30  1  0
  1 31  1  0
  3  2  1  6
  3 14  1  0
  3 20  1  0
  3  4  1  0
  4  5  1  0
  4 32  1  0
  4 33  1  0
  5  6  1  0
  5 34  1  0
  5 35  1  0
  6 19  1  0
  6  7  1  0
  6 36  1  1
  7  8  2  3
  7 37  1  0
  8  9  1  0
  8 38  1  0
  9 14  1  0
  9 10  1  0
  9 39  1  6
 10 26  1  0
 10 11  1  6
 10 12  1  0
 11 40  1  0
 11 41  1  0
 11 42  1  0
 12 13  2  0
 12 43  1  0
 14 13  1  6
 13 44  1  0
 14 15  1  0
 15 16  1  0
 15 18  1  0
 15 45  1  1
 16 17  1  0
 16 46  1  0
 16 47  1  0
 17 48  1  0
 18 19  1  0
 18 23  1  0
 18 49  1  1
 19 20  1  0
 19 50  1  1
 20 21  1  0
 20 22  1  0
 21 51  1  0
 21 52  1  0
 21 53  1  0
 22 54  1  0
 22 55  1  0
 22 56  1  0
 23 24  1  0
 23 25  1  0
 23 26  1  0
 26 27  1  0
 26 28  1  0
M  END
>  <i_m_ct_stereo_status>  (244) 
1

>  <s_m_source_file>  (244) 
/var/tmp/pbs.5076255.sched01/tmple0dc7g8/88jbw3zpwn.sdf

>  <i_m_source_file_index>  (244) 
35

>  <i_lp_mmshare_version>  (244) 
48012

>  <i_f3d_flags>  (244) 
3

>  <s_epik_input>  (244) 
W0NIM11PW0NAQF0xKFtDQF0yMzQpW0NIMl1bQ0gyXVtDQEhdNVtDQEBIXShDMShbQ0gzXSlbQ0gzXSlbQ0BASF0oW0NAQEhdNFtDSDJdW09IXSlDKEYpKEYpQyhGKShGKVtDQEBdKFtDSDNdKShbQ0hdPVtDSF0zKVtDQEBIXTIvW0NIXT1bQ0hdXDU=

>  <s_epik_cmdline>  (244) 
J2VwaWtfcHl0aG9uJywgJy1waHQnLCAnMi4wJywgJy1waCcsICc3LjAnLCAnLXRuJywgJzgnLCAnLW1hJywgJzIwMCcsICctaW1hZScsICc8aW5maWxlLm1hZT4nLCAnLW9tYWUnLCAnPG91dGZpbGUubWFlPic=

>  <r_lp_tautomer_probability>  (244) 
1

>  <r_epik_Ionization_Penalty>  (244) 
2.43472e-07

>  <r_epik_Ionization_Penalty_Charging>  (244) 
0

>  <r_epik_Ionization_Penalty_Neutral>  (244) 
2.43472e-07

>  <r_epik_State_Penalty>  (244) 
-0

>  <r_epik_Charging_Adjusted_Penalty>  (244) 
0

>  <i_epik_Tot_Q>  (244) 
0

>  <i_epik_Tot_abs_Q>  (244) 
0

>  <s_lp_Force_Field>  (244) 
OPLS3e

>  <r_lp_Energy>  (244) 
189.667

>  <b_lp_Chiralities_Consistent>  (244) 
0

>  <s_lp_Variant>  (244) 
75:0-2

>  <s_i_glide_gridfile>  (244) 
pfpi4k_grid

>  <i_i_glide_lignum>  (244) 
35

>  <i_i_glide_rotatable_bonds>  (244) 
3

>  <r_i_docking_score>  (244) 
-0.717365

>  <r_i_glide_ligand_efficiency>  (244) 
-0.0256202

>  <r_i_glide_ligand_efficiency_sa>  (244) 
-0.0777979

>  <r_i_glide_ligand_efficiency_ln>  (244) 
-0.165589

>  <r_i_glide_gscore>  (244) 
-0.717365

>  <r_i_glide_lipo>  (244) 
-0.0121736

>  <r_i_glide_hbond>  (244) 
0

>  <r_i_glide_metal>  (244) 
-0

>  <r_i_glide_rewards>  (244) 
-0.75561

>  <r_i_glide_evdw>  (244) 
-18.7593

>  <r_i_glide_ecoul>  (244) 
-2.44582

>  <r_i_glide_erotb>  (244) 
0.122252

>  <r_i_glide_esite>  (244) 
-0.0409054

>  <r_i_glide_emodel>  (244) 
-14.1259

>  <r_i_glide_energy>  (244) 
-21.2051

>  <r_i_glide_einternal>  (244) 
1.71872

>  <r_i_glide_intrahb_reward>  (244) 
-0

>  <i_i_glide_confnum>  (244) 
1

>  <i_i_glide_posenum>  (244) 
22

>  <r_i_glide_eff_state_penalty>  (244) 
0

>  <ligand_id>  (244) 
75

>  <original_smiles>  (244) 
COC12CCC3C=CC4C5(C)C=CC41C(CO)C(C3C2(C)C)C(F)(F)C5(F)F

>  <smiles>  (244) 
[H]OC([H])([H])C1([H])C2([H])C(F)(F)C(F)(F)C3(C([H])([H])[H])C([H])=C([H])C14C3([H])C([H])=C([H])C1([H])C([H])([H])C([H])([H])C4(OC([H])([H])[H])C(C([H])([H])[H])(C([H])([H])[H])C12[H]

$$$$
75:1:1
     RDKit          3D

 56 60  0  0  1  0  0  0  0  0999 V2000
    2.5641   -1.4946    2.1764 C   0  0  0  0  0  0  0  0  0  0  0  0
    1.5156   -0.5973    2.5684 O   0  0  0  0  0  0  0  0  0  0  0  0
    1.7576    0.3838    3.5855 C   0  0  1  0  0  0  0  0  0  0  0  0
    2.8722    1.4091    3.1549 C   0  0  0  0  0  0  0  0  0  0  0  0
    3.6407    2.0551    4.3606 C   0  0  0  0  0  0  0  0  0  0  0  0
    2.9457    2.0040    5.7715 C   0  0  1  0  0  0  0  0  0  0  0  0
    2.2591    3.3341    5.7957 C   0  0  0  0  0  0  0  0  0  0  0  0
    1.2389    3.6142    4.9882 C   0  0  0  0  0  0  0  0  0  0  0  0
    0.3588    2.8210    3.9772 C   0  0  2  0  0  0  0  0  0  0  0  0
   -1.0982    3.1895    4.1714 C   0  0  1  0  0  0  0  0  0  0  0  0
   -1.4084    4.6495    3.7205 C   0  0  0  0  0  0  0  0  0  0  0  0
   -1.6249    2.2622    3.0570 C   0  0  0  0  0  0  0  0  0  0  0  0
   -0.7457    1.2804    2.7162 C   0  0  0  0  0  0  0  0  0  0  0  0
    0.3310    1.1583    3.7855 C   0  0  1  0  0  0  0  0  0  0  0  0
   -0.4156    0.4344    4.9066 C   0  0  1  0  0  0  0  0  0  0  0  0
   -1.0281   -0.9613    4.5820 C   0  0  0  0  0  0  0  0  0  0  0  0
   -1.7400   -1.4998    5.6810 O   0  0  0  0  0  0  0  0  0  0  0  0
    0.3221    0.8296    6.1938 C   0  0  1  0  0  0  0  0  0  0  0  0
    1.9571    0.7488    6.0343 C   0  0  1  0  0  0  0  0  0  0  0  0
    2.2973   -0.3331    4.9523 C   0  0  0  0  0  0  0  0  0  0  0  0
    1.7280   -1.7356    5.4201 C   0  0  0  0  0  0  0  0  0  0  0  0
    3.8381   -0.7279    4.9226 C   0  0  0  0  0  0  0  0  0  0  0  0
   -0.5030    2.0858    6.7165 C   0  0  0  0  0  0  0  0  0  0  0  0
   -1.3831    1.5824    7.5797 F   0  0  0  0  0  0  0  0  0  0  0  0
    0.2685    2.8479    7.4830 F   0  0  0  0  0  0  0  0  0  0  0  0
   -1.4459    2.9596    5.7184 C   0  0  0  0  0  0  0  0  0  0  0  0
   -2.6916    2.4981    5.7204 F   0  0  0  0  0  0  0  0  0  0  0  0
   -1.5414    4.1463    6.3238 F   0  0  0  0  0  0  0  0  0  0  0  0
    2.2517   -2.0536    1.2897 H   0  0  0  0  0  0  0  0  0  0  0  0
    2.8055   -2.2430    2.9370 H   0  0  0  0  0  0  0  0  0  0  0  0
    3.4987   -0.9953    1.9134 H   0  0  0  0  0  0  0  0  0  0  0  0
    3.6310    0.9357    2.5357 H   0  0  0  0  0  0  0  0  0  0  0  0
    2.4524    2.1545    2.4708 H   0  0  0  0  0  0  0  0  0  0  0  0
    4.6132    1.5966    4.4489 H   0  0  0  0  0  0  0  0  0  0  0  0
    3.8949    3.0816    4.0626 H   0  0  0  0  0  0  0  0  0  0  0  0
    3.7014    2.0709    6.5537 H   0  0  0  0  0  0  0  0  0  0  0  0
    2.6129    4.1823    6.4060 H   0  0  0  0  0  0  0  0  0  0  0  0
    1.3368    2.6796    4.6694 H   0  0  0  0  0  0  0  0  0  0  0  0
    0.6877    3.2792    3.0291 H   0  0  0  0  0  0  0  0  0  0  0  0
   -0.9475    5.3905    4.3664 H   0  0  0  0  0  0  0  0  0  0  0  0
   -2.4853    4.8158    3.7319 H   0  0  0  0  0  0  0  0  0  0  0  0
   -1.0667    4.8711    2.7117 H   0  0  0  0  0  0  0  0  0  0  0  0
   -2.5464    2.4766    2.5224 H   0  0  0  0  0  0  0  0  0  0  0  0
   -0.8660    0.5519    1.9455 H   0  0  0  0  0  0  0  0  0  0  0  0
   -1.4160    0.8069    5.0508 H   0  0  0  0  0  0  0  0  0  0  0  0
   -1.7715   -0.8697    3.7956 H   0  0  0  0  0  0  0  0  0  0  0  0
   -0.3617   -1.7001    4.1771 H   0  0  0  0  0  0  0  0  0  0  0  0
   -1.8525   -2.4214    5.5598 H   0  0  0  0  0  0  0  0  0  0  0  0
    0.0929    0.0527    6.9189 H   0  0  0  0  0  0  0  0  0  0  0  0
    2.3011    0.3813    6.9936 H   0  0  0  0  0  0  0  0  0  0  0  0
    2.3879   -2.2489    6.1313 H   0  0  0  0  0  0  0  0  0  0  0  0
    1.5940   -2.4381    4.5933 H   0  0  0  0  0  0  0  0  0  0  0  0
    0.8184   -1.7087    6.0079 H   0  0  0  0  0  0  0  0  0  0  0  0
    4.4210   -0.2273    5.7021 H   0  0  0  0  0  0  0  0  0  0  0  0
    4.3345   -0.5290    3.9742 H   0  0  0  0  0  0  0  0  0  0  0  0
    4.0666   -1.7870    5.0559 H   0  0  0  0  0  0  0  0  0  0  0  0
  1  2  1  0
  1 29  1  0
  1 30  1  0
  1 31  1  0
  3  2  1  6
  3 14  1  0
  3 20  1  0
  3  4  1  0
  4  5  1  0
  4 32  1  0
  4 33  1  0
  5  6  1  0
  5 34  1  0
  5 35  1  0
  6 19  1  0
  6  7  1  0
  6 36  1  1
  7  8  2  3
  7 37  1  0
  8  9  1  0
  8 38  1  0
  9 14  1  0
  9 10  1  0
  9 39  1  6
 10 26  1  0
 10 11  1  6
 10 12  1  0
 11 40  1  0
 11 41  1  0
 11 42  1  0
 12 13  2  0
 12 43  1  0
 14 13  1  6
 13 44  1  0
 14 15  1  0
 15 16  1  0
 15 18  1  0
 15 45  1  1
 16 17  1  0
 16 46  1  0
 16 47  1  0
 17 48  1  0
 18 19  1  0
 18 23  1  0
 18 49  1  1
 19 20  1  0
 19 50  1  1
 20 21  1  0
 20 22  1  0
 21 51  1  0
 21 52  1  0
 21 53  1  0
 22 54  1  0
 22 55  1  0
 22 56  1  0
 23 24  1  0
 23 25  1  0
 23 26  1  0
 26 27  1  0
 26 28  1  0
M  END
>  <i_m_ct_stereo_status>  (245) 
1

>  <s_m_source_file>  (245) 
/var/tmp/pbs.5076255.sched01/tmple0dc7g8/88jbw3zpwn.sdf

>  <i_m_source_file_index>  (245) 
35

>  <i_lp_mmshare_version>  (245) 
48012

>  <i_f3d_flags>  (245) 
3

>  <s_epik_input>  (245) 
W0NIM11PW0NAQF0xKFtDQF0yMzQpW0NIMl1bQ0gyXVtDQEhdNVtDQEBIXShDMShbQ0gzXSlbQ0gzXSlbQ0BASF0oW0NAQEhdNFtDSDJdW09IXSlDKEYpKEYpQyhGKShGKVtDQEBdKFtDSDNdKShbQ0hdPVtDSF0zKVtDQEBIXTIvW0NIXT1bQ0hdXDU=

>  <s_epik_cmdline>  (245) 
J2VwaWtfcHl0aG9uJywgJy1waHQnLCAnMi4wJywgJy1waCcsICc3LjAnLCAnLXRuJywgJzgnLCAnLW1hJywgJzIwMCcsICctaW1hZScsICc8aW5maWxlLm1hZT4nLCAnLW9tYWUnLCAnPG91dGZpbGUubWFlPic=

>  <r_lp_tautomer_probability>  (245) 
1

>  <r_epik_Ionization_Penalty>  (245) 
2.43472e-07

>  <r_epik_Ionization_Penalty_Charging>  (245) 
0

>  <r_epik_Ionization_Penalty_Neutral>  (245) 
2.43472e-07

>  <r_epik_State_Penalty>  (245) 
-0

>  <r_epik_Charging_Adjusted_Penalty>  (245) 
0

>  <i_epik_Tot_Q>  (245) 
0

>  <i_epik_Tot_abs_Q>  (245) 
0

>  <s_lp_Force_Field>  (245) 
OPLS3e

>  <r_lp_Energy>  (245) 
189.667

>  <b_lp_Chiralities_Consistent>  (245) 
0

>  <s_lp_Variant>  (245) 
75:0-2

>  <s_i_glide_gridfile>  (245) 
pfpi4k_grid

>  <i_i_glide_lignum>  (245) 
35

>  <i_i_glide_rotatable_bonds>  (245) 
3

>  <r_i_docking_score>  (245) 
-0.597037

>  <r_i_glide_ligand_efficiency>  (245) 
-0.0213227

>  <r_i_glide_ligand_efficiency_sa>  (245) 
-0.0647484

>  <r_i_glide_ligand_efficiency_ln>  (245) 
-0.137814

>  <r_i_glide_gscore>  (245) 
-0.597037

>  <r_i_glide_lipo>  (245) 
-0.0128999

>  <r_i_glide_hbond>  (245) 
-0.000144356

>  <r_i_glide_metal>  (245) 
-0

>  <r_i_glide_rewards>  (245) 
-0.758817

>  <r_i_glide_evdw>  (245) 
-18.3144

>  <r_i_glide_ecoul>  (245) 
-2.5238

>  <r_i_glide_erotb>  (245) 
0.122252

>  <r_i_glide_esite>  (245) 
-0.0409569

>  <r_i_glide_emodel>  (245) 
-13.4458

>  <r_i_glide_energy>  (245) 
-20.8382

>  <r_i_glide_einternal>  (245) 
1.41523

>  <r_i_glide_intrahb_reward>  (245) 
-0

>  <i_i_glide_confnum>  (245) 
4

>  <i_i_glide_posenum>  (245) 
12

>  <r_i_glide_eff_state_penalty>  (245) 
0

>  <ligand_id>  (245) 
75

>  <original_smiles>  (245) 
COC12CCC3C=CC4C5(C)C=CC41C(CO)C(C3C2(C)C)C(F)(F)C5(F)F

>  <smiles>  (245) 
[H]OC([H])([H])C1([H])C2([H])C(F)(F)C(F)(F)C3(C([H])([H])[H])C([H])=C([H])C14C3([H])C([H])=C([H])C1([H])C([H])([H])C([H])([H])C4(OC([H])([H])[H])C(C([H])([H])[H])(C([H])([H])[H])C12[H]

$$$$
75:1:2
     RDKit          3D

 56 60  0  0  1  0  0  0  0  0999 V2000
   -2.4736    3.2501    3.2287 C   0  0  0  0  0  0  0  0  0  0  0  0
   -1.2517    2.5420    2.9653 O   0  0  0  0  0  0  0  0  0  0  0  0
   -0.6309    1.7714    3.9974 C   0  0  1  0  0  0  0  0  0  0  0  0
   -1.5468    0.5783    4.4637 C   0  0  0  0  0  0  0  0  0  0  0  0
   -1.3085    0.1270    5.9389 C   0  0  0  0  0  0  0  0  0  0  0  0
    0.0819    0.5246    6.5582 C   0  0  1  0  0  0  0  0  0  0  0  0
    0.8790   -0.7075    6.3286 C   0  0  0  0  0  0  0  0  0  0  0  0
    1.2403   -1.0724    5.0819 C   0  0  0  0  0  0  0  0  0  0  0  0
    1.1473   -0.4144    3.6779 C   0  0  2  0  0  0  0  0  0  0  0  0
    2.4730   -0.6104    2.9701 C   0  0  1  0  0  0  0  0  0  0  0  0
    2.7283   -2.0851    2.5765 C   0  0  0  0  0  0  0  0  0  0  0  0
    2.0277    0.1262    1.6911 C   0  0  0  0  0  0  0  0  0  0  0  0
    0.9561    0.9363    1.8670 C   0  0  0  0  0  0  0  0  0  0  0  0
    0.7413    1.1691    3.3406 C   0  0  1  0  0  0  0  0  0  0  0  0
    1.8551    2.1887    3.6609 C   0  0  1  0  0  0  0  0  0  0  0  0
    1.8619    3.5381    2.8760 C   0  0  0  0  0  0  0  0  0  0  0  0
    2.9818    4.3410    3.2033 O   0  0  0  0  0  0  0  0  0  0  0  0
    2.1345    2.0006    5.1564 C   0  0  1  0  0  0  0  0  0  0  0  0
    0.7531    1.8961    6.0443 C   0  0  1  0  0  0  0  0  0  0  0  0
   -0.3769    2.7061    5.3107 C   0  0  0  0  0  0  0  0  0  0  0  0
    0.0658    4.2161    5.1597 C   0  0  0  0  0  0  0  0  0  0  0  0
   -1.6743    2.9505    6.2056 C   0  0  0  0  0  0  0  0  0  0  0  0
    3.3332    0.9478    5.1855 C   0  0  0  0  0  0  0  0  0  0  0  0
    4.4477    1.6793    5.2733 F   0  0  0  0  0  0  0  0  0  0  0  0
    3.3350    0.2889    6.3439 F   0  0  0  0  0  0  0  0  0  0  0  0
    3.6418   -0.0181    3.9115 C   0  0  0  0  0  0  0  0  0  0  0  0
    4.4969    0.5952    3.0843 F   0  0  0  0  0  0  0  0  0  0  0  0
    4.3189   -1.0475    4.4436 F   0  0  0  0  0  0  0  0  0  0  0  0
   -2.8763    3.6373    2.2894 H   0  0  0  0  0  0  0  0  0  0  0  0
   -2.3412    4.1147    3.8838 H   0  0  0  0  0  0  0  0  0  0  0  0
   -3.2494    2.6223    3.6707 H   0  0  0  0  0  0  0  0  0  0  0  0
   -2.5891    0.8795    4.4413 H   0  0  0  0  0  0  0  0  0  0  0  0
   -1.5211   -0.2518    3.7500 H   0  0  0  0  0  0  0  0  0  0  0  0
   -2.1015    0.5408    6.5531 H   0  0  0  0  0  0  0  0  0  0  0  0
   -1.5050   -0.9504    5.9880 H   0  0  0  0  0  0  0  0  0  0  0  0
   -0.0322    0.5641    7.6326 H   0  0  0  0  0  0  0  0  0  0  0  0
    1.1102   -1.3980    7.1243 H   0  0  0  0  0  0  0  0  0  0  0  0
    0.8086   -0.2392    4.7392 H   0  0  0  0  0  0  0  0  0  0  0  0
    0.4027   -1.0745    3.2045 H   0  0  0  0  0  0  0  0  0  0  0  0
    2.9092   -2.7381    3.4326 H   0  0  0  0  0  0  0  0  0  0  0  0
    3.6055   -2.1643    1.9350 H   0  0  0  0  0  0  0  0  0  0  0  0
    1.8920   -2.5326    2.0263 H   0  0  0  0  0  0  0  0  0  0  0  0
    2.4724   -0.1112    0.7216 H   0  0  0  0  0  0  0  0  0  0  0  0
    0.4407    1.5057    1.1118 H   0  0  0  0  0  0  0  0  0  0  0  0
    2.7793    1.9430    3.1845 H   0  0  0  0  0  0  0  0  0  0  0  0
    1.9579    3.3530    1.8050 H   0  0  0  0  0  0  0  0  0  0  0  0
    0.9612    4.1342    2.9122 H   0  0  0  0  0  0  0  0  0  0  0  0
    3.1052    4.9942    2.5264 H   0  0  0  0  0  0  0  0  0  0  0  0
    2.5972    2.9290    5.4949 H   0  0  0  0  0  0  0  0  0  0  0  0
    0.9856    2.4259    6.9681 H   0  0  0  0  0  0  0  0  0  0  0  0
   -0.1122    4.8119    6.0613 H   0  0  0  0  0  0  0  0  0  0  0  0
   -0.4638    4.7337    4.3559 H   0  0  0  0  0  0  0  0  0  0  0  0
    1.1310    4.3914    5.0422 H   0  0  0  0  0  0  0  0  0  0  0  0
   -1.5657    2.5666    7.2233 H   0  0  0  0  0  0  0  0  0  0  0  0
   -2.5920    2.5343    5.7941 H   0  0  0  0  0  0  0  0  0  0  0  0
   -1.9753    3.9932    6.3466 H   0  0  0  0  0  0  0  0  0  0  0  0
  1  2  1  0
  1 29  1  0
  1 30  1  0
  1 31  1  0
  3  2  1  6
  3 14  1  0
  3 20  1  0
  3  4  1  0
  4  5  1  0
  4 32  1  0
  4 33  1  0
  5  6  1  0
  5 34  1  0
  5 35  1  0
  6 19  1  0
  6  7  1  0
  6 36  1  1
  7  8  2  3
  7 37  1  0
  8  9  1  0
  8 38  1  0
  9 14  1  0
  9 10  1  0
  9 39  1  6
 10 26  1  0
 10 11  1  6
 10 12  1  0
 11 40  1  0
 11 41  1  0
 11 42  1  0
 12 13  2  0
 12 43  1  0
 14 13  1  6
 13 44  1  0
 14 15  1  0
 15 16  1  0
 15 18  1  0
 15 45  1  6
 16 17  1  0
 16 46  1  0
 16 47  1  0
 17 48  1  0
 18 19  1  0
 18 23  1  0
 18 49  1  1
 19 20  1  0
 19 50  1  1
 20 21  1  0
 20 22  1  0
 21 51  1  0
 21 52  1  0
 21 53  1  0
 22 54  1  0
 22 55  1  0
 22 56  1  0
 23 24  1  0
 23 25  1  0
 23 26  1  0
 26 27  1  0
 26 28  1  0
M  END
>  <i_m_ct_stereo_status>  (246) 
1

>  <s_m_source_file>  (246) 
/var/tmp/pbs.5076255.sched01/tmple0dc7g8/88jbw3zpwn.sdf

>  <i_m_source_file_index>  (246) 
35

>  <i_lp_mmshare_version>  (246) 
48012

>  <i_f3d_flags>  (246) 
3

>  <s_epik_input>  (246) 
W0NIM11PW0NAQF0xKFtDQF0yMzQpW0NIMl1bQ0gyXVtDQEhdNVtDQEBIXShDMShbQ0gzXSlbQ0gzXSlbQ0BASF0oW0NAQEhdNFtDSDJdW09IXSlDKEYpKEYpQyhGKShGKVtDQEBdKFtDSDNdKShbQ0hdPVtDSF0zKVtDQEBIXTIvW0NIXT1bQ0hdXDU=

>  <s_epik_cmdline>  (246) 
J2VwaWtfcHl0aG9uJywgJy1waHQnLCAnMi4wJywgJy1waCcsICc3LjAnLCAnLXRuJywgJzgnLCAnLW1hJywgJzIwMCcsICctaW1hZScsICc8aW5maWxlLm1hZT4nLCAnLW9tYWUnLCAnPG91dGZpbGUubWFlPic=

>  <r_lp_tautomer_probability>  (246) 
1

>  <r_epik_Ionization_Penalty>  (246) 
2.43472e-07

>  <r_epik_Ionization_Penalty_Charging>  (246) 
0

>  <r_epik_Ionization_Penalty_Neutral>  (246) 
2.43472e-07

>  <r_epik_State_Penalty>  (246) 
-0

>  <r_epik_Charging_Adjusted_Penalty>  (246) 
0

>  <i_epik_Tot_Q>  (246) 
0

>  <i_epik_Tot_abs_Q>  (246) 
0

>  <s_lp_Force_Field>  (246) 
OPLS3e

>  <r_lp_Energy>  (246) 
189.667

>  <b_lp_Chiralities_Consistent>  (246) 
0

>  <s_lp_Variant>  (246) 
75:0-2

>  <s_i_glide_gridfile>  (246) 
pfpi4k_grid

>  <i_i_glide_lignum>  (246) 
35

>  <i_i_glide_rotatable_bonds>  (246) 
3

>  <r_i_docking_score>  (246) 
-0.101976

>  <r_i_glide_ligand_efficiency>  (246) 
-0.00364199

>  <r_i_glide_ligand_efficiency_sa>  (246) 
-0.0110592

>  <r_i_glide_ligand_efficiency_ln>  (246) 
-0.023539

>  <r_i_glide_gscore>  (246) 
-0.101976

>  <r_i_glide_lipo>  (246) 
-0.0494397

>  <r_i_glide_hbond>  (246) 
0

>  <r_i_glide_metal>  (246) 
-0

>  <r_i_glide_rewards>  (246) 
-0.696027

>  <r_i_glide_evdw>  (246) 
-20.0142

>  <r_i_glide_ecoul>  (246) 
-0.239346

>  <r_i_glide_erotb>  (246) 
0.122252

>  <r_i_glide_esite>  (246) 
-0.0074773

>  <r_i_glide_emodel>  (246) 
-11.8284

>  <r_i_glide_energy>  (246) 
-20.2536

>  <r_i_glide_einternal>  (246) 
1.14348

>  <r_i_glide_intrahb_reward>  (246) 
-0

>  <i_i_glide_confnum>  (246) 
4

>  <i_i_glide_posenum>  (246) 
18

>  <r_i_glide_eff_state_penalty>  (246) 
0

>  <ligand_id>  (246) 
75

>  <original_smiles>  (246) 
COC12CCC3C=CC4C5(C)C=CC41C(CO)C(C3C2(C)C)C(F)(F)C5(F)F

>  <smiles>  (246) 
[H]OC([H])([H])C1([H])C2([H])C(F)(F)C(F)(F)C3(C([H])([H])[H])C([H])=C([H])C14C3([H])C([H])=C([H])C1([H])C([H])([H])C([H])([H])C4(OC([H])([H])[H])C(C([H])([H])[H])(C([H])([H])[H])C12[H]

$$$$
76:0:0
     RDKit          3D

 22 25  0  0  1  0  0  0  0  0999 V2000
    8.0689   -1.4556    0.0872 O   0  0  0  0  0  0  0  0  0  0  0  0
    7.4715   -2.5278    0.1325 C   0  0  0  0  0  0  0  0  0  0  0  0
    7.8554   -3.6166    0.8531 N   0  0  0  0  0  0  0  0  0  0  0  0
    7.0955   -4.7375    0.9485 C   0  0  0  0  0  0  0  0  0  0  0  0
    7.3143   -5.8332    1.6622 N   0  0  0  0  0  0  0  0  0  0  0  0
    6.2437   -6.6615    1.3558 N   0  0  0  0  0  0  0  0  0  0  0  0
    5.4108   -6.0911    0.5212 N   0  0  0  0  0  0  0  0  0  0  0  0
    5.9417   -4.8771    0.2704 N   0  0  0  0  0  0  0  0  0  0  0  0
    5.4462   -3.8641   -0.5722 C   0  0  0  0  0  0  0  0  0  0  0  0
    4.3016   -4.0251   -1.2719 N   0  0  0  0  0  0  0  0  0  0  0  0
    3.9159   -3.0351   -2.1077 C   0  0  0  0  0  0  0  0  0  0  0  0
    2.7565   -3.1700   -2.8963 C   0  0  0  0  0  0  0  0  0  0  0  0
    2.3517   -2.1889   -3.7908 C   0  0  0  0  0  0  0  0  0  0  0  0
    3.0441   -0.9731   -3.8509 C   0  0  0  0  0  0  0  0  0  0  0  0
    4.1670   -0.7941   -3.0320 C   0  0  0  0  0  0  0  0  0  0  0  0
    4.6590   -1.8186   -2.1961 C   0  0  0  0  0  0  0  0  0  0  0  0
    5.7963   -1.6463   -1.4723 N   0  0  0  0  0  0  0  0  0  0  0  0
    6.2002   -2.6725   -0.6753 C   0  0  0  0  0  0  0  0  0  0  0  0
    2.1043   -4.0122   -2.8270 H   0  0  0  0  0  0  0  0  0  0  0  0
    1.4324   -2.3404   -4.3173 H   0  0  0  0  0  0  0  0  0  0  0  0
    2.6696   -0.1519   -4.4495 H   0  0  0  0  0  0  0  0  0  0  0  0
    4.5989    0.1900   -3.0270 H   0  0  0  0  0  0  0  0  0  0  0  0
  1  2  2  0
  2 18  1  0
  2  3  1  0
  3  4  1  0
  4  8  1  0
  4  5  2  0
  5  6  1  0
  6  7  2  0
  7  8  1  0
  8  9  1  0
  9 18  2  0
  9 10  1  0
 10 11  2  0
 11 16  1  0
 11 12  1  0
 12 13  2  0
 12 19  1  0
 13 14  1  0
 13 20  1  0
 14 15  2  0
 14 21  1  0
 15 16  1  0
 15 22  1  0
 16 17  2  0
 17 18  1  0
M  CHG  1   3  -1
M  END
>  <i_m_ct_stereo_status>  (247) 
1

>  <s_m_source_file>  (247) 
/var/tmp/pbs.5076255.sched01/tmple0dc7g8/88jbw3zpwn.sdf

>  <i_m_source_file_index>  (247) 
36

>  <i_lp_mmshare_version>  (247) 
48012

>  <i_f3d_flags>  (247) 
0

>  <s_epik_input>  (247) 
bjFubm4oYzEyKWMzYyhjKD1PKVtuSF0yKW5jNGMobjMpW2NIXVtjSF1bY0hdW2NIXTQ=

>  <s_epik_cmdline>  (247) 
J2VwaWtfcHl0aG9uJywgJy1waHQnLCAnMi4wJywgJy1waCcsICc3LjAnLCAnLXRuJywgJzgnLCAnLW1hJywgJzIwMCcsICctaW1hZScsICc8aW5maWxlLm1hZT4nLCAnLW9tYWUnLCAnPG91dGZpbGUubWFlPic=

>  <r_lp_tautomer_probability>  (247) 
1

>  <r_epik_Ionization_Penalty>  (247) 
2.04021e-12

>  <r_epik_Ionization_Penalty_Charging>  (247) 
1.35308e-12

>  <r_epik_Ionization_Penalty_Neutral>  (247) 
6.87129e-13

>  <r_epik_State_Penalty>  (247) 
-0

>  <r_epik_Charging_Adjusted_Penalty>  (247) 
1.35308e-12

>  <i_epik_Tot_Q>  (247) 
-1

>  <i_epik_Tot_abs_Q>  (247) 
1

>  <s_lp_Force_Field>  (247) 
OPLS3e

>  <r_lp_Energy>  (247) 
43.5328

>  <b_lp_Chiralities_Consistent>  (247) 
1

>  <s_lp_Variant>  (247) 
76:0-1

>  <s_i_glide_gridfile>  (247) 
pfpi4k_grid

>  <i_i_glide_lignum>  (247) 
36

>  <i_i_glide_rotatable_bonds>  (247) 
0

>  <r_i_docking_score>  (247) 
-4.18642

>  <r_i_glide_ligand_efficiency>  (247) 
-0.232579

>  <r_i_glide_ligand_efficiency_sa>  (247) 
-0.609529

>  <r_i_glide_ligand_efficiency_ln>  (247) 
-1.0761

>  <r_i_glide_gscore>  (247) 
-4.18642

>  <r_i_glide_lipo>  (247) 
-0.676635

>  <r_i_glide_hbond>  (247) 
-0.137771

>  <r_i_glide_metal>  (247) 
-0

>  <r_i_glide_rewards>  (247) 
-2.16156

>  <r_i_glide_evdw>  (247) 
-19.1019

>  <r_i_glide_ecoul>  (247) 
-1.70242

>  <r_i_glide_erotb>  (247) 
0

>  <r_i_glide_esite>  (247) 
0

>  <r_i_glide_emodel>  (247) 
-29.4228

>  <r_i_glide_energy>  (247) 
-20.8043

>  <r_i_glide_einternal>  (247) 
0

>  <r_i_glide_intrahb_reward>  (247) 
-0

>  <i_i_glide_confnum>  (247) 
1

>  <i_i_glide_posenum>  (247) 
13

>  <r_i_glide_eff_state_penalty>  (247) 
0

>  <ligand_id>  (247) 
76

>  <original_smiles>  (247) 
O=c1[nH]c2nnnn2c2nc3ccccc3nc12

>  <smiles>  (247) 
[H]c1c([H])c([H])c2nc3c(nc2c1[H])c(=O)[n-]c1nnnn13

$$$$
76:0:1
     RDKit          3D

 22 25  0  0  1  0  0  0  0  0999 V2000
    6.5091   -3.9086    1.5873 O   0  0  0  0  0  0  0  0  0  0  0  0
    5.3859   -4.3667    1.4184 C   0  0  0  0  0  0  0  0  0  0  0  0
    4.7596   -5.3244    2.1783 N   0  0  0  0  0  0  0  0  0  0  0  0
    3.5080   -5.7835    1.8990 C   0  0  0  0  0  0  0  0  0  0  0  0
    2.7906   -6.7013    2.5372 N   0  0  0  0  0  0  0  0  0  0  0  0
    1.5933   -6.7708    1.8308 N   0  0  0  0  0  0  0  0  0  0  0  0
    1.5815   -5.9422    0.8252 N   0  0  0  0  0  0  0  0  0  0  0  0
    2.7759   -5.3203    0.8704 N   0  0  0  0  0  0  0  0  0  0  0  0
    3.2551   -4.3175    0.0129 C   0  0  0  0  0  0  0  0  0  0  0  0
    2.5125   -3.8519   -1.0162 N   0  0  0  0  0  0  0  0  0  0  0  0
    3.0831   -2.9395   -1.8354 C   0  0  0  0  0  0  0  0  0  0  0  0
    2.3973   -2.4781   -2.9837 C   0  0  0  0  0  0  0  0  0  0  0  0
    2.9505   -1.4634   -3.7980 C   0  0  0  0  0  0  0  0  0  0  0  0
    4.2076   -0.9411   -3.5088 C   0  0  0  0  0  0  0  0  0  0  0  0
    4.9038   -1.4264   -2.3901 C   0  0  0  0  0  0  0  0  0  0  0  0
    4.3791   -2.4251   -1.5634 C   0  0  0  0  0  0  0  0  0  0  0  0
    5.1146   -2.8742   -0.5212 N   0  0  0  0  0  0  0  0  0  0  0  0
    4.5606   -3.8348    0.2587 C   0  0  0  0  0  0  0  0  0  0  0  0
    1.4164   -2.8734   -3.1966 H   0  0  0  0  0  0  0  0  0  0  0  0
    2.3793   -1.0431   -4.6171 H   0  0  0  0  0  0  0  0  0  0  0  0
    4.6039   -0.1582   -4.1397 H   0  0  0  0  0  0  0  0  0  0  0  0
    5.8581   -1.0405   -2.1150 H   0  0  0  0  0  0  0  0  0  0  0  0
  1  2  2  0
  2 18  1  0
  2  3  1  0
  3  4  1  0
  4  8  1  0
  4  5  2  0
  5  6  1  0
  6  7  2  0
  7  8  1  0
  8  9  1  0
  9 18  2  0
  9 10  1  0
 10 11  2  0
 11 16  1  0
 11 12  1  0
 12 13  2  0
 12 19  1  0
 13 14  1  0
 13 20  1  0
 14 15  2  0
 14 21  1  0
 15 16  1  0
 15 22  1  0
 16 17  2  0
 17 18  1  0
M  CHG  1   3  -1
M  END
>  <i_m_ct_stereo_status>  (248) 
1

>  <s_m_source_file>  (248) 
/var/tmp/pbs.5076255.sched01/tmple0dc7g8/88jbw3zpwn.sdf

>  <i_m_source_file_index>  (248) 
36

>  <i_lp_mmshare_version>  (248) 
48012

>  <i_f3d_flags>  (248) 
0

>  <s_epik_input>  (248) 
bjFubm4oYzEyKWMzYyhjKD1PKVtuSF0yKW5jNGMobjMpW2NIXVtjSF1bY0hdW2NIXTQ=

>  <s_epik_cmdline>  (248) 
J2VwaWtfcHl0aG9uJywgJy1waHQnLCAnMi4wJywgJy1waCcsICc3LjAnLCAnLXRuJywgJzgnLCAnLW1hJywgJzIwMCcsICctaW1hZScsICc8aW5maWxlLm1hZT4nLCAnLW9tYWUnLCAnPG91dGZpbGUubWFlPic=

>  <r_lp_tautomer_probability>  (248) 
1

>  <r_epik_Ionization_Penalty>  (248) 
2.04021e-12

>  <r_epik_Ionization_Penalty_Charging>  (248) 
1.35308e-12

>  <r_epik_Ionization_Penalty_Neutral>  (248) 
6.87129e-13

>  <r_epik_State_Penalty>  (248) 
-0

>  <r_epik_Charging_Adjusted_Penalty>  (248) 
1.35308e-12

>  <i_epik_Tot_Q>  (248) 
-1

>  <i_epik_Tot_abs_Q>  (248) 
1

>  <s_lp_Force_Field>  (248) 
OPLS3e

>  <r_lp_Energy>  (248) 
43.5328

>  <b_lp_Chiralities_Consistent>  (248) 
1

>  <s_lp_Variant>  (248) 
76:0-1

>  <s_i_glide_gridfile>  (248) 
pfpi4k_grid

>  <i_i_glide_lignum>  (248) 
36

>  <i_i_glide_rotatable_bonds>  (248) 
0

>  <r_i_docking_score>  (248) 
-3.4271

>  <r_i_glide_ligand_efficiency>  (248) 
-0.190394

>  <r_i_glide_ligand_efficiency_sa>  (248) 
-0.498974

>  <r_i_glide_ligand_efficiency_ln>  (248) 
-0.880917

>  <r_i_glide_gscore>  (248) 
-3.4271

>  <r_i_glide_lipo>  (248) 
-0.41767

>  <r_i_glide_hbond>  (248) 
0

>  <r_i_glide_metal>  (248) 
-0

>  <r_i_glide_rewards>  (248) 
-1.80592

>  <r_i_glide_evdw>  (248) 
-18.417

>  <r_i_glide_ecoul>  (248) 
-0.71937

>  <r_i_glide_erotb>  (248) 
0

>  <r_i_glide_esite>  (248) 
-0.174754

>  <r_i_glide_emodel>  (248) 
-26.2199

>  <r_i_glide_energy>  (248) 
-19.1364

>  <r_i_glide_einternal>  (248) 
0

>  <r_i_glide_intrahb_reward>  (248) 
-0

>  <i_i_glide_confnum>  (248) 
1

>  <i_i_glide_posenum>  (248) 
6

>  <r_i_glide_eff_state_penalty>  (248) 
0

>  <ligand_id>  (248) 
76

>  <original_smiles>  (248) 
O=c1[nH]c2nnnn2c2nc3ccccc3nc12

>  <smiles>  (248) 
[H]c1c([H])c([H])c2nc3c(nc2c1[H])c(=O)[n-]c1nnnn13

$$$$
76:0:2
     RDKit          3D

 22 25  0  0  1  0  0  0  0  0999 V2000
    1.3513   -6.0618    1.0416 O   0  0  0  0  0  0  0  0  0  0  0  0
    2.2155   -5.3655    1.5782 C   0  0  0  0  0  0  0  0  0  0  0  0
    2.6357   -5.4662    2.8719 N   0  0  0  0  0  0  0  0  0  0  0  0
    3.5680   -4.6491    3.4183 C   0  0  0  0  0  0  0  0  0  0  0  0
    4.0631   -4.6649    4.6499 N   0  0  0  0  0  0  0  0  0  0  0  0
    4.9699   -3.6044    4.6659 N   0  0  0  0  0  0  0  0  0  0  0  0
    5.0142   -2.9895    3.5165 N   0  0  0  0  0  0  0  0  0  0  0  0
    4.1325   -3.6472    2.7262 N   0  0  0  0  0  0  0  0  0  0  0  0
    3.7994   -3.3903    1.3783 C   0  0  0  0  0  0  0  0  0  0  0  0
    4.3694   -2.3744    0.6814 N   0  0  0  0  0  0  0  0  0  0  0  0
    3.9875   -2.2023   -0.6075 C   0  0  0  0  0  0  0  0  0  0  0  0
    4.5561   -1.1712   -1.3856 C   0  0  0  0  0  0  0  0  0  0  0  0
    4.1702   -0.9728   -2.7255 C   0  0  0  0  0  0  0  0  0  0  0  0
    3.2127   -1.8166   -3.3089 C   0  0  0  0  0  0  0  0  0  0  0  0
    2.6439   -2.8539   -2.5513 C   0  0  0  0  0  0  0  0  0  0  0  0
    3.0136   -3.0572   -1.2041 C   0  0  0  0  0  0  0  0  0  0  0  0
    2.4420   -4.0554   -0.4946 N   0  0  0  0  0  0  0  0  0  0  0  0
    2.8392   -4.2395    0.7839 C   0  0  0  0  0  0  0  0  0  0  0  0
    5.2832   -0.5147   -0.9372 H   0  0  0  0  0  0  0  0  0  0  0  0
    4.5906   -0.1648   -3.3020 H   0  0  0  0  0  0  0  0  0  0  0  0
    2.8957   -1.6593   -4.3274 H   0  0  0  0  0  0  0  0  0  0  0  0
    1.8971   -3.4928   -2.9992 H   0  0  0  0  0  0  0  0  0  0  0  0
  1  2  2  0
  2 18  1  0
  2  3  1  0
  3  4  1  0
  4  8  1  0
  4  5  2  0
  5  6  1  0
  6  7  2  0
  7  8  1  0
  8  9  1  0
  9 18  2  0
  9 10  1  0
 10 11  2  0
 11 16  1  0
 11 12  1  0
 12 13  2  0
 12 19  1  0
 13 14  1  0
 13 20  1  0
 14 15  2  0
 14 21  1  0
 15 16  1  0
 15 22  1  0
 16 17  2  0
 17 18  1  0
M  CHG  1   3  -1
M  END
>  <i_m_ct_stereo_status>  (249) 
1

>  <s_m_source_file>  (249) 
/var/tmp/pbs.5076255.sched01/tmple0dc7g8/88jbw3zpwn.sdf

>  <i_m_source_file_index>  (249) 
36

>  <i_lp_mmshare_version>  (249) 
48012

>  <i_f3d_flags>  (249) 
0

>  <s_epik_input>  (249) 
bjFubm4oYzEyKWMzYyhjKD1PKVtuSF0yKW5jNGMobjMpW2NIXVtjSF1bY0hdW2NIXTQ=

>  <s_epik_cmdline>  (249) 
J2VwaWtfcHl0aG9uJywgJy1waHQnLCAnMi4wJywgJy1waCcsICc3LjAnLCAnLXRuJywgJzgnLCAnLW1hJywgJzIwMCcsICctaW1hZScsICc8aW5maWxlLm1hZT4nLCAnLW9tYWUnLCAnPG91dGZpbGUubWFlPic=

>  <r_lp_tautomer_probability>  (249) 
1

>  <r_epik_Ionization_Penalty>  (249) 
2.04021e-12

>  <r_epik_Ionization_Penalty_Charging>  (249) 
1.35308e-12

>  <r_epik_Ionization_Penalty_Neutral>  (249) 
6.87129e-13

>  <r_epik_State_Penalty>  (249) 
-0

>  <r_epik_Charging_Adjusted_Penalty>  (249) 
1.35308e-12

>  <i_epik_Tot_Q>  (249) 
-1

>  <i_epik_Tot_abs_Q>  (249) 
1

>  <s_lp_Force_Field>  (249) 
OPLS3e

>  <r_lp_Energy>  (249) 
43.5328

>  <b_lp_Chiralities_Consistent>  (249) 
1

>  <s_lp_Variant>  (249) 
76:0-1

>  <s_i_glide_gridfile>  (249) 
pfpi4k_grid

>  <i_i_glide_lignum>  (249) 
36

>  <i_i_glide_rotatable_bonds>  (249) 
0

>  <r_i_docking_score>  (249) 
-3.36452

>  <r_i_glide_ligand_efficiency>  (249) 
-0.186918

>  <r_i_glide_ligand_efficiency_sa>  (249) 
-0.489863

>  <r_i_glide_ligand_efficiency_ln>  (249) 
-0.864833

>  <r_i_glide_gscore>  (249) 
-3.36452

>  <r_i_glide_lipo>  (249) 
-0.133053

>  <r_i_glide_hbond>  (249) 
-0.16

>  <r_i_glide_metal>  (249) 
-0

>  <r_i_glide_rewards>  (249) 
-1.79676

>  <r_i_glide_evdw>  (249) 
-19.4949

>  <r_i_glide_ecoul>  (249) 
-1.99975

>  <r_i_glide_erotb>  (249) 
0

>  <r_i_glide_esite>  (249) 
0

>  <r_i_glide_emodel>  (249) 
-28.4848

>  <r_i_glide_energy>  (249) 
-21.4947

>  <r_i_glide_einternal>  (249) 
0

>  <r_i_glide_intrahb_reward>  (249) 
-0

>  <i_i_glide_confnum>  (249) 
2

>  <i_i_glide_posenum>  (249) 
14

>  <r_i_glide_eff_state_penalty>  (249) 
0

>  <ligand_id>  (249) 
76

>  <original_smiles>  (249) 
O=c1[nH]c2nnnn2c2nc3ccccc3nc12

>  <smiles>  (249) 
[H]c1c([H])c([H])c2nc3c(nc2c1[H])c(=O)[n-]c1nnnn13

$$$$
77:0:0
     RDKit          3D

 24 27  0  0  1  0  0  0  0  0999 V2000
    2.2407   -3.4592   -2.0812 N   0  0  0  0  0  0  0  0  0  0  0  0
    3.5488   -2.8493   -2.2599 C   0  0  2  0  0  0  0  0  0  0  0  0
    3.6979   -1.4094   -1.7919 C   0  0  2  0  0  0  0  0  0  0  0  0
    3.4594   -0.6203   -3.0943 C   0  0  0  0  0  0  0  0  0  0  0  0
    4.0292   -1.4672   -4.2382 C   0  0  0  0  0  0  0  0  0  0  0  0
    4.1060   -2.8719   -3.6641 C   0  0  1  0  0  0  0  0  0  0  0  0
    5.4332   -3.2153   -3.0010 C   0  0  2  0  0  0  0  0  0  0  0  0
    5.8396   -2.5555   -1.6905 C   0  0  1  0  0  0  0  0  0  0  0  0
    5.1934   -1.2394   -1.3467 C   0  0  0  0  0  0  0  0  0  0  0  0
    4.7360   -3.5239   -1.7047 C   0  0  1  0  0  0  0  0  0  0  0  0
    2.0276   -3.4390   -1.1033 H   0  0  0  0  0  0  0  0  0  0  0  0
    2.2647   -4.3971   -2.4252 H   0  0  0  0  0  0  0  0  0  0  0  0
    3.0192   -1.1420   -0.9854 H   0  0  0  0  0  0  0  0  0  0  0  0
    2.3837   -0.5392   -3.2340 H   0  0  0  0  0  0  0  0  0  0  0  0
    3.8649    0.3959   -3.0715 H   0  0  0  0  0  0  0  0  0  0  0  0
    3.3934   -1.4105   -5.1184 H   0  0  0  0  0  0  0  0  0  0  0  0
    5.0001   -1.0873   -4.5165 H   0  0  0  0  0  0  0  0  0  0  0  0
    3.7536   -3.6952   -4.2913 H   0  0  0  0  0  0  0  0  0  0  0  0
    6.0721   -3.9495   -3.4590 H   0  0  0  0  0  0  0  0  0  0  0  0
    6.7833   -2.8325   -1.2178 H   0  0  0  0  0  0  0  0  0  0  0  0
    5.7155   -0.4444   -1.8894 H   0  0  0  0  0  0  0  0  0  0  0  0
    5.2848   -1.0718   -0.2696 H   0  0  0  0  0  0  0  0  0  0  0  0
    4.7576   -4.5722   -1.4070 H   0  0  0  0  0  0  0  0  0  0  0  0
    1.5583   -2.9045   -2.5964 H   0  0  0  0  0  0  0  0  0  0  0  0
  2  1  1  6
  1 11  1  0
  1 12  1  0
  1 24  1  0
  2  6  1  0
  2 10  1  0
  2  3  1  0
  3  9  1  0
  3  4  1  0
  3 13  1  1
  4  5  1  0
  4 14  1  0
  4 15  1  0
  5  6  1  0
  5 16  1  0
  5 17  1  0
  6  7  1  0
  6 18  1  6
  7 10  1  0
  7  8  1  0
  7 19  1  6
  8  9  1  0
  8 10  1  0
  8 20  1  1
  9 21  1  0
  9 22  1  0
 10 23  1  1
M  CHG  1   1   1
M  END
>  <i_m_ct_stereo_status>  (250) 
1

>  <s_m_source_file>  (250) 
/var/tmp/pbs.5076255.sched01/tmple0dc7g8/88jbw3zpwn.sdf

>  <i_m_source_file_index>  (250) 
37

>  <i_lp_mmshare_version>  (250) 
48012

>  <i_f3d_flags>  (250) 
0

>  <s_epik_input>  (250) 
W05IMl1bQ0BdMTJbQ0BASF0zW0NIMl1bQ0gyXVtDQEhdMVtDQEhdNFtDQEBIXShbQ0gyXTMpW0NAQEhdMjQ=

>  <s_epik_cmdline>  (250) 
J2VwaWtfcHl0aG9uJywgJy1waHQnLCAnMi4wJywgJy1waCcsICc3LjAnLCAnLXRuJywgJzgnLCAnLW1hJywgJzIwMCcsICctaW1hZScsICc8aW5maWxlLm1hZT4nLCAnLW9tYWUnLCAnPG91dGZpbGUubWFlPic=

>  <r_lp_tautomer_probability>  (250) 
1

>  <r_epik_Ionization_Penalty>  (250) 
6.5524e-05

>  <r_epik_Ionization_Penalty_Charging>  (250) 
6.5524e-05

>  <r_epik_Ionization_Penalty_Neutral>  (250) 
0

>  <r_epik_State_Penalty>  (250) 
-0

>  <r_epik_Charging_Adjusted_Penalty>  (250) 
6.5524e-05

>  <i_epik_Tot_Q>  (250) 
1

>  <i_epik_Tot_abs_Q>  (250) 
1

>  <s_lp_Force_Field>  (250) 
OPLS3e

>  <r_lp_Energy>  (250) 
40.159

>  <b_lp_Chiralities_Consistent>  (250) 
1

>  <s_lp_Variant>  (250) 
77:0-1

>  <s_i_glide_gridfile>  (250) 
pfpi4k_grid

>  <i_i_glide_lignum>  (250) 
37

>  <i_i_glide_rotatable_bonds>  (250) 
0

>  <r_i_docking_score>  (250) 
-4.59418

>  <r_i_glide_ligand_efficiency>  (250) 
-0.459418

>  <r_i_glide_ligand_efficiency_sa>  (250) 
-0.989787

>  <r_i_glide_ligand_efficiency_ln>  (250) 
-1.39109

>  <r_i_glide_gscore>  (250) 
-4.59418

>  <r_i_glide_lipo>  (250) 
-0.46978

>  <r_i_glide_hbond>  (250) 
0

>  <r_i_glide_metal>  (250) 
-0

>  <r_i_glide_rewards>  (250) 
-2.25

>  <r_i_glide_evdw>  (250) 
-16.4671

>  <r_i_glide_ecoul>  (250) 
-7.00699

>  <r_i_glide_erotb>  (250) 
0

>  <r_i_glide_esite>  (250) 
0

>  <r_i_glide_emodel>  (250) 
-31.9806

>  <r_i_glide_energy>  (250) 
-23.4741

>  <r_i_glide_einternal>  (250) 
0

>  <r_i_glide_intrahb_reward>  (250) 
-0

>  <i_i_glide_confnum>  (250) 
2

>  <i_i_glide_posenum>  (250) 
40

>  <r_i_glide_eff_state_penalty>  (250) 
0

>  <ligand_id>  (250) 
77

>  <original_smiles>  (250) 
NC12C3CCC1C1C(C3)C12

>  <smiles>  (250) 
[H]C1([H])C([H])([H])C2([H])C3([H])C4([H])C([H])([H])C1([H])C2([N+]([H])([H])[H])C43[H]

$$$$
77:0:1
     RDKit          3D

 24 27  0  0  1  0  0  0  0  0999 V2000
    2.3092   -3.0573   -0.9215 N   0  0  0  0  0  0  0  0  0  0  0  0
    3.4737   -2.5569   -1.6025 C   0  0  2  0  0  0  0  0  0  0  0  0
    4.6342   -3.5278   -1.8051 C   0  0  2  0  0  0  0  0  0  0  0  0
    5.5591   -3.2137   -0.6287 C   0  0  0  0  0  0  0  0  0  0  0  0
    5.4436   -1.6886   -0.3869 C   0  0  0  0  0  0  0  0  0  0  0  0
    4.1232   -1.3015   -1.0287 C   0  0  1  0  0  0  0  0  0  0  0  0
    4.2218   -0.8270   -2.4634 C   0  0  2  0  0  0  0  0  0  0  0  0
    4.5954   -1.8225   -3.5531 C   0  0  1  0  0  0  0  0  0  0  0  0
    5.3107   -3.0897   -3.1440 C   0  0  0  0  0  0  0  0  0  0  0  0
    3.2880   -1.9046   -2.9126 C   0  0  1  0  0  0  0  0  0  0  0  0
    1.9041   -3.8123   -1.4588 H   0  0  0  0  0  0  0  0  0  0  0  0
    1.6528   -2.2746   -0.8355 H   0  0  0  0  0  0  0  0  0  0  0  0
    4.3042   -4.5650   -1.8370 H   0  0  0  0  0  0  0  0  0  0  0  0
    5.1602   -3.7166    0.2481 H   0  0  0  0  0  0  0  0  0  0  0  0
    6.5781   -3.5502   -0.7949 H   0  0  0  0  0  0  0  0  0  0  0  0
    5.4720   -1.4590    0.6859 H   0  0  0  0  0  0  0  0  0  0  0  0
    6.2655   -1.1538   -0.8550 H   0  0  0  0  0  0  0  0  0  0  0  0
    3.4564   -0.6645   -0.4353 H   0  0  0  0  0  0  0  0  0  0  0  0
    3.9640    0.2002   -2.7016 H   0  0  0  0  0  0  0  0  0  0  0  0
    4.6512   -1.4720   -4.5809 H   0  0  0  0  0  0  0  0  0  0  0  0
    6.3780   -2.8798   -3.0501 H   0  0  0  0  0  0  0  0  0  0  0  0
    5.1562   -3.8406   -3.9255 H   0  0  0  0  0  0  0  0  0  0  0  0
    2.3248   -1.5434   -3.2767 H   0  0  0  0  0  0  0  0  0  0  0  0
    2.6071   -3.3707   -0.0126 H   0  0  0  0  0  0  0  0  0  0  0  0
  2  1  1  1
  1 11  1  0
  1 12  1  0
  1 24  1  0
  2  6  1  0
  2 10  1  0
  2  3  1  0
  3  9  1  0
  3  4  1  0
  3 13  1  6
  4  5  1  0
  4 14  1  0
  4 15  1  0
  5  6  1  0
  5 16  1  0
  5 17  1  0
  6  7  1  0
  6 18  1  1
  7 10  1  0
  7  8  1  0
  7 19  1  1
  8  9  1  0
  8 10  1  0
  8 20  1  6
  9 21  1  0
  9 22  1  0
 10 23  1  6
M  CHG  1   1   1
M  END
>  <i_m_ct_stereo_status>  (251) 
1

>  <s_m_source_file>  (251) 
/var/tmp/pbs.5076255.sched01/tmple0dc7g8/88jbw3zpwn.sdf

>  <i_m_source_file_index>  (251) 
37

>  <i_lp_mmshare_version>  (251) 
48012

>  <i_f3d_flags>  (251) 
0

>  <s_epik_input>  (251) 
W05IMl1bQ0BdMTJbQ0BASF0zW0NIMl1bQ0gyXVtDQEhdMVtDQEhdNFtDQEBIXShbQ0gyXTMpW0NAQEhdMjQ=

>  <s_epik_cmdline>  (251) 
J2VwaWtfcHl0aG9uJywgJy1waHQnLCAnMi4wJywgJy1waCcsICc3LjAnLCAnLXRuJywgJzgnLCAnLW1hJywgJzIwMCcsICctaW1hZScsICc8aW5maWxlLm1hZT4nLCAnLW9tYWUnLCAnPG91dGZpbGUubWFlPic=

>  <r_lp_tautomer_probability>  (251) 
1

>  <r_epik_Ionization_Penalty>  (251) 
6.5524e-05

>  <r_epik_Ionization_Penalty_Charging>  (251) 
6.5524e-05

>  <r_epik_Ionization_Penalty_Neutral>  (251) 
0

>  <r_epik_State_Penalty>  (251) 
-0

>  <r_epik_Charging_Adjusted_Penalty>  (251) 
6.5524e-05

>  <i_epik_Tot_Q>  (251) 
1

>  <i_epik_Tot_abs_Q>  (251) 
1

>  <s_lp_Force_Field>  (251) 
OPLS3e

>  <r_lp_Energy>  (251) 
40.159

>  <b_lp_Chiralities_Consistent>  (251) 
1

>  <s_lp_Variant>  (251) 
77:0-1

>  <s_i_glide_gridfile>  (251) 
pfpi4k_grid

>  <i_i_glide_lignum>  (251) 
37

>  <i_i_glide_rotatable_bonds>  (251) 
0

>  <r_i_docking_score>  (251) 
-4.56419

>  <r_i_glide_ligand_efficiency>  (251) 
-0.456419

>  <r_i_glide_ligand_efficiency_sa>  (251) 
-0.983326

>  <r_i_glide_ligand_efficiency_ln>  (251) 
-1.38201

>  <r_i_glide_gscore>  (251) 
-4.56419

>  <r_i_glide_lipo>  (251) 
-0.322721

>  <r_i_glide_hbond>  (251) 
-0.2

>  <r_i_glide_metal>  (251) 
-0

>  <r_i_glide_rewards>  (251) 
-2.25

>  <r_i_glide_evdw>  (251) 
-14.4095

>  <r_i_glide_ecoul>  (251) 
-6.85948

>  <r_i_glide_erotb>  (251) 
0

>  <r_i_glide_esite>  (251) 
-0.0420742

>  <r_i_glide_emodel>  (251) 
-29.8137

>  <r_i_glide_energy>  (251) 
-21.269

>  <r_i_glide_einternal>  (251) 
0

>  <r_i_glide_intrahb_reward>  (251) 
-0

>  <i_i_glide_confnum>  (251) 
1

>  <i_i_glide_posenum>  (251) 
24

>  <r_i_glide_eff_state_penalty>  (251) 
0

>  <ligand_id>  (251) 
77

>  <original_smiles>  (251) 
NC12C3CCC1C1C(C3)C12

>  <smiles>  (251) 
[H]C1([H])C([H])([H])C2([H])C3([H])C4([H])C([H])([H])C1([H])C2([N+]([H])([H])[H])C43[H]

$$$$
77:0:2
     RDKit          3D

 24 27  0  0  1  0  0  0  0  0999 V2000
    2.6104   -3.0598   -0.4138 N   0  0  0  0  0  0  0  0  0  0  0  0
    3.4132   -2.8313   -1.5871 C   0  0  2  0  0  0  0  0  0  0  0  0
    4.6292   -3.7386   -1.8221 C   0  0  2  0  0  0  0  0  0  0  0  0
    5.7723   -2.9354   -1.1949 C   0  0  0  0  0  0  0  0  0  0  0  0
    5.4166   -1.4463   -1.4446 C   0  0  0  0  0  0  0  0  0  0  0  0
    3.9357   -1.4154   -1.7228 C   0  0  1  0  0  0  0  0  0  0  0  0
    3.5344   -1.5141   -3.1869 C   0  0  2  0  0  0  0  0  0  0  0  0
    3.7687   -2.8290   -3.9246 C   0  0  1  0  0  0  0  0  0  0  0  0
    4.8127   -3.7884   -3.3827 C   0  0  0  0  0  0  0  0  0  0  0  0
    2.7361   -2.7503   -2.8951 C   0  0  1  0  0  0  0  0  0  0  0  0
    2.2145   -3.9811   -0.4963 H   0  0  0  0  0  0  0  0  0  0  0  0
    1.8879   -2.3528   -0.3989 H   0  0  0  0  0  0  0  0  0  0  0  0
    4.5108   -4.7354   -1.3970 H   0  0  0  0  0  0  0  0  0  0  0  0
    5.7502   -3.1055   -0.1161 H   0  0  0  0  0  0  0  0  0  0  0  0
    6.7508   -3.2189   -1.5786 H   0  0  0  0  0  0  0  0  0  0  0  0
    5.6939   -0.8209   -0.5950 H   0  0  0  0  0  0  0  0  0  0  0  0
    5.9434   -1.0717   -2.3037 H   0  0  0  0  0  0  0  0  0  0  0  0
    3.3436   -0.6751   -1.1851 H   0  0  0  0  0  0  0  0  0  0  0  0
    2.9998   -0.6762   -3.6413 H   0  0  0  0  0  0  0  0  0  0  0  0
    3.4398   -2.9483   -4.9541 H   0  0  0  0  0  0  0  0  0  0  0  0
    5.8061   -3.4739   -3.7215 H   0  0  0  0  0  0  0  0  0  0  0  0
    4.6197   -4.7876   -3.7860 H   0  0  0  0  0  0  0  0  0  0  0  0
    1.6588   -2.6556   -3.0127 H   0  0  0  0  0  0  0  0  0  0  0  0
    3.2018   -2.9756    0.4014 H   0  0  0  0  0  0  0  0  0  0  0  0
  2  1  1  1
  1 11  1  0
  1 12  1  0
  1 24  1  0
  2  6  1  0
  2 10  1  0
  2  3  1  0
  3  9  1  0
  3  4  1  0
  3 13  1  1
  4  5  1  0
  4 14  1  0
  4 15  1  0
  5  6  1  0
  5 16  1  0
  5 17  1  0
  6  7  1  0
  6 18  1  1
  7 10  1  0
  7  8  1  0
  7 19  1  6
  8  9  1  0
  8 10  1  0
  8 20  1  6
  9 21  1  0
  9 22  1  0
 10 23  1  6
M  CHG  1   1   1
M  END
>  <i_m_ct_stereo_status>  (252) 
1

>  <s_m_source_file>  (252) 
/var/tmp/pbs.5076255.sched01/tmple0dc7g8/88jbw3zpwn.sdf

>  <i_m_source_file_index>  (252) 
37

>  <i_lp_mmshare_version>  (252) 
48012

>  <i_f3d_flags>  (252) 
0

>  <s_epik_input>  (252) 
W05IMl1bQ0BdMTJbQ0BASF0zW0NIMl1bQ0gyXVtDQEhdMVtDQEhdNFtDQEBIXShbQ0gyXTMpW0NAQEhdMjQ=

>  <s_epik_cmdline>  (252) 
J2VwaWtfcHl0aG9uJywgJy1waHQnLCAnMi4wJywgJy1waCcsICc3LjAnLCAnLXRuJywgJzgnLCAnLW1hJywgJzIwMCcsICctaW1hZScsICc8aW5maWxlLm1hZT4nLCAnLW9tYWUnLCAnPG91dGZpbGUubWFlPic=

>  <r_lp_tautomer_probability>  (252) 
1

>  <r_epik_Ionization_Penalty>  (252) 
6.5524e-05

>  <r_epik_Ionization_Penalty_Charging>  (252) 
6.5524e-05

>  <r_epik_Ionization_Penalty_Neutral>  (252) 
0

>  <r_epik_State_Penalty>  (252) 
-0

>  <r_epik_Charging_Adjusted_Penalty>  (252) 
6.5524e-05

>  <i_epik_Tot_Q>  (252) 
1

>  <i_epik_Tot_abs_Q>  (252) 
1

>  <s_lp_Force_Field>  (252) 
OPLS3e

>  <r_lp_Energy>  (252) 
40.159

>  <b_lp_Chiralities_Consistent>  (252) 
1

>  <s_lp_Variant>  (252) 
77:0-1

>  <s_i_glide_gridfile>  (252) 
pfpi4k_grid

>  <i_i_glide_lignum>  (252) 
37

>  <i_i_glide_rotatable_bonds>  (252) 
0

>  <r_i_docking_score>  (252) 
-4.24194

>  <r_i_glide_ligand_efficiency>  (252) 
-0.424194

>  <r_i_glide_ligand_efficiency_sa>  (252) 
-0.913899

>  <r_i_glide_ligand_efficiency_ln>  (252) 
-1.28443

>  <r_i_glide_gscore>  (252) 
-4.24194

>  <r_i_glide_lipo>  (252) 
-0.210674

>  <r_i_glide_hbond>  (252) 
-0.2

>  <r_i_glide_metal>  (252) 
-0

>  <r_i_glide_rewards>  (252) 
-2.25

>  <r_i_glide_evdw>  (252) 
-16.733

>  <r_i_glide_ecoul>  (252) 
-4.68061

>  <r_i_glide_erotb>  (252) 
0

>  <r_i_glide_esite>  (252) 
-0.0425293

>  <r_i_glide_emodel>  (252) 
-29.2809

>  <r_i_glide_energy>  (252) 
-21.4136

>  <r_i_glide_einternal>  (252) 
0

>  <r_i_glide_intrahb_reward>  (252) 
-0

>  <i_i_glide_confnum>  (252) 
2

>  <i_i_glide_posenum>  (252) 
12

>  <r_i_glide_eff_state_penalty>  (252) 
0

>  <ligand_id>  (252) 
77

>  <original_smiles>  (252) 
NC12C3CCC1C1C(C3)C12

>  <smiles>  (252) 
[H]C1([H])C([H])([H])C2([H])C3([H])C4([H])C([H])([H])C1([H])C2([N+]([H])([H])[H])C43[H]

$$$$
78:0:0
     RDKit          3D

 48 52  0  0  1  0  0  0  0  0999 V2000
    4.2341   -0.2578   -2.3326 O   0  0  0  0  0  0  0  0  0  0  0  0
    4.4873   -1.5780   -2.6558 C   0  0  2  0  0  0  0  0  0  0  0  0
    3.2135   -2.4246   -3.1183 C   0  0  1  0  0  0  0  0  0  0  0  0
    3.9820   -3.4616   -3.8332 C   0  0  0  0  0  0  0  0  0  0  0  0
    4.9693   -3.7302   -2.7072 C   0  0  0  0  0  0  0  0  0  0  0  0
    4.9224   -2.5565   -1.5807 C   0  0  1  0  0  0  0  0  0  0  0  0
    6.1169   -2.9263   -0.6926 C   0  0  2  0  0  0  0  0  0  0  0  0
    7.5639   -3.0627   -1.1841 C   0  0  0  0  0  0  0  0  0  0  0  0
    8.4397   -3.3785    0.0501 C   0  0  0  0  0  0  0  0  0  0  0  0
    7.9296   -4.5760    0.8975 C   0  0  0  0  0  0  0  0  0  0  0  0
    6.4127   -4.5508    1.2213 C   0  0  0  0  0  0  0  0  0  0  0  0
    5.6186   -4.2927   -0.0650 C   0  0  1  0  0  0  0  0  0  0  0  0
    4.0278   -4.5913   -0.0417 C   0  0  0  0  0  0  0  0  0  0  0  0
    3.0127   -3.4633   -0.5510 C   0  0  2  0  0  0  0  0  0  0  0  0
    2.3707   -3.2675   -2.0129 C   0  0  0  0  0  0  0  0  0  0  0  0
    3.7766   -2.2289   -0.4797 C   0  0  1  0  0  0  0  0  0  0  0  0
    4.0995   -1.6776    0.9237 C   0  0  0  0  0  0  0  0  0  0  0  0
    3.6691   -2.2670    2.1320 C   0  0  0  0  0  0  0  0  0  0  0  0
    3.9388   -1.7358    3.3365 N   0  0  0  0  0  0  0  0  0  0  0  0
    4.6279   -0.6051    3.3501 C   0  0  0  0  0  0  0  0  0  0  0  0
    5.0767    0.0485    2.2959 N   0  0  0  0  0  0  0  0  0  0  0  0
    4.7908   -0.4491    1.0792 C   0  0  0  0  0  0  0  0  0  0  0  0
    3.4258   -0.2280   -1.8430 H   0  0  0  0  0  0  0  0  0  0  0  0
    5.2197   -1.4966   -3.4467 H   0  0  0  0  0  0  0  0  0  0  0  0
    2.5580   -1.8792   -3.8010 H   0  0  0  0  0  0  0  0  0  0  0  0
    3.3904   -4.3258   -4.1329 H   0  0  0  0  0  0  0  0  0  0  0  0
    4.4694   -3.0651   -4.7204 H   0  0  0  0  0  0  0  0  0  0  0  0
    4.7972   -4.7470   -2.3887 H   0  0  0  0  0  0  0  0  0  0  0  0
    5.9467   -3.7503   -3.1853 H   0  0  0  0  0  0  0  0  0  0  0  0
    6.2595   -2.1882    0.0820 H   0  0  0  0  0  0  0  0  0  0  0  0
    7.6886   -3.8505   -1.9234 H   0  0  0  0  0  0  0  0  0  0  0  0
    7.9057   -2.1499   -1.6593 H   0  0  0  0  0  0  0  0  0  0  0  0
    9.4563   -3.5731   -0.2795 H   0  0  0  0  0  0  0  0  0  0  0  0
    8.5007   -2.4942    0.6821 H   0  0  0  0  0  0  0  0  0  0  0  0
    8.1614   -5.5055    0.3754 H   0  0  0  0  0  0  0  0  0  0  0  0
    8.4894   -4.6193    1.8340 H   0  0  0  0  0  0  0  0  0  0  0  0
    6.1144   -5.4995    1.6715 H   0  0  0  0  0  0  0  0  0  0  0  0
    6.1939   -3.7671    1.9469 H   0  0  0  0  0  0  0  0  0  0  0  0
    5.9755   -5.0873   -0.7116 H   0  0  0  0  0  0  0  0  0  0  0  0
    3.8261   -5.5053   -0.5968 H   0  0  0  0  0  0  0  0  0  0  0  0
    3.7595   -4.8716    0.9752 H   0  0  0  0  0  0  0  0  0  0  0  0
    2.1734   -3.4428    0.1340 H   0  0  0  0  0  0  0  0  0  0  0  0
    1.4365   -2.7164   -1.8963 H   0  0  0  0  0  0  0  0  0  0  0  0
    2.0213   -4.2202   -2.3965 H   0  0  0  0  0  0  0  0  0  0  0  0
    3.0503   -1.4556   -0.7469 H   0  0  0  0  0  0  0  0  0  0  0  0
    3.0913   -3.1813    2.1619 H   0  0  0  0  0  0  0  0  0  0  0  0
    4.8453   -0.1760    4.3124 H   0  0  0  0  0  0  0  0  0  0  0  0
    5.1532    0.1161    0.2288 H   0  0  0  0  0  0  0  0  0  0  0  0
  1  2  1  0
  1 23  1  0
  2  6  1  0
  2  3  1  0
  2 24  1  6
  3 15  1  0
  3  4  1  0
  3 25  1  6
  4  5  1  0
  4 26  1  0
  4 27  1  0
  6  5  1  6
  5 28  1  0
  5 29  1  0
  6 16  1  0
  6  7  1  0
  7 12  1  0
  7  8  1  0
  7 30  1  1
  8  9  1  0
  8 31  1  0
  8 32  1  0
  9 10  1  0
  9 33  1  0
  9 34  1  0
 10 11  1  0
 10 35  1  0
 10 36  1  0
 11 12  1  0
 11 37  1  0
 11 38  1  0
 12 13  1  0
 12 39  1  6
 13 14  1  0
 13 40  1  0
 13 41  1  0
 14 15  1  0
 14 16  1  0
 14 42  1  1
 15 43  1  0
 15 44  1  0
 16 17  1  0
 16 45  1  6
 17 22  1  0
 17 18  2  0
 18 19  1  0
 18 46  1  0
 19 20  2  0
 20 21  1  0
 20 47  1  0
 21 22  2  0
 22 48  1  0
M  END
>  <i_m_ct_stereo_status>  (253) 
1

>  <s_m_source_file>  (253) 
/var/tmp/pbs.5076255.sched01/tmple0dc7g8/88jbw3zpwn.sdf

>  <i_m_source_file_index>  (253) 
38

>  <i_lp_mmshare_version>  (253) 
48012

>  <i_f3d_flags>  (253) 
0

>  <s_epik_input>  (253) 
W0NIMl0xW0NIMl1bQ0gyXVtDSDJdW0NASF0oW0NAQEhdMVtDQEBdMjM0KVtDSDJdW0NASF0oW0NIMl1bQ0BASF0oW0NASF0yW09IXSlbQ0gyXVtDSDJdMylbQ0BIXTRjNVtjSF1uW2NIXW5bY0hdNQ==

>  <s_epik_cmdline>  (253) 
J2VwaWtfcHl0aG9uJywgJy1waHQnLCAnMi4wJywgJy1waCcsICc3LjAnLCAnLXRuJywgJzgnLCAnLW1hJywgJzIwMCcsICctaW1hZScsICc8aW5maWxlLm1hZT4nLCAnLW9tYWUnLCAnPG91dGZpbGUubWFlPic=

>  <r_lp_tautomer_probability>  (253) 
1

>  <r_epik_Ionization_Penalty>  (253) 
6.72237e-06

>  <r_epik_Ionization_Penalty_Charging>  (253) 
0

>  <r_epik_Ionization_Penalty_Neutral>  (253) 
6.72237e-06

>  <r_epik_State_Penalty>  (253) 
-0

>  <r_epik_Charging_Adjusted_Penalty>  (253) 
0

>  <i_epik_Tot_Q>  (253) 
0

>  <i_epik_Tot_abs_Q>  (253) 
0

>  <s_epik_Chemistry_Notes>  (253) 
This compound contains an electron-poor aromatic ring that is susceptible to covalent hydrolysis at low pH, typically resulting in measured values for nitrogen ring protonation that are around two units higher than predicted values.

>  <s_lp_Force_Field>  (253) 
OPLS3e

>  <r_lp_Energy>  (253) 
175.446

>  <b_lp_Chiralities_Consistent>  (253) 
1

>  <s_lp_Variant>  (253) 
78:0-1

>  <s_i_glide_gridfile>  (253) 
pfpi4k_grid

>  <i_i_glide_lignum>  (253) 
38

>  <i_i_glide_rotatable_bonds>  (253) 
2

>  <r_i_docking_score>  (253) 
-3.90694

>  <r_i_glide_ligand_efficiency>  (253) 
-0.177588

>  <r_i_glide_ligand_efficiency_sa>  (253) 
-0.497609

>  <r_i_glide_ligand_efficiency_ln>  (253) 
-0.954999

>  <r_i_glide_gscore>  (253) 
-3.90694

>  <r_i_glide_lipo>  (253) 
-0.994072

>  <r_i_glide_hbond>  (253) 
-0.165174

>  <r_i_glide_metal>  (253) 
-0

>  <r_i_glide_rewards>  (253) 
-1.48494

>  <r_i_glide_evdw>  (253) 
-24.3012

>  <r_i_glide_ecoul>  (253) 
-1.69168

>  <r_i_glide_erotb>  (253) 
0.206059

>  <r_i_glide_esite>  (253) 
0

>  <r_i_glide_emodel>  (253) 
-32.0512

>  <r_i_glide_energy>  (253) 
-25.9929

>  <r_i_glide_einternal>  (253) 
0.891199

>  <r_i_glide_intrahb_reward>  (253) 
-0

>  <i_i_glide_confnum>  (253) 
2

>  <i_i_glide_posenum>  (253) 
36

>  <r_i_glide_eff_state_penalty>  (253) 
0

>  <ligand_id>  (253) 
78

>  <original_smiles>  (253) 
OC1C2CCC13C1CCCCC1CC(C2)C3c1cncnc1

>  <smiles>  (253) 
[H]OC1([H])C2([H])C([H])([H])C([H])([H])C13C([H])(c1c([H])nc([H])nc1[H])C([H])(C2([H])[H])C([H])([H])C1([H])C([H])([H])C([H])([H])C([H])([H])C([H])([H])C13[H]

$$$$
78:0:1
     RDKit          3D

 48 52  0  0  1  0  0  0  0  0999 V2000
    1.8274   -3.8566   -1.6010 O   0  0  0  0  0  0  0  0  0  0  0  0
    2.7627   -2.8030   -1.7963 C   0  0  2  0  0  0  0  0  0  0  0  0
    3.9176   -3.0217   -2.8825 C   0  0  1  0  0  0  0  0  0  0  0  0
    4.2253   -1.5793   -3.0771 C   0  0  0  0  0  0  0  0  0  0  0  0
    4.3742   -1.2484   -1.5988 C   0  0  0  0  0  0  0  0  0  0  0  0
    3.7257   -2.4257   -0.6733 C   0  0  1  0  0  0  0  0  0  0  0  0
    3.7663   -1.7931    0.7270 C   0  0  2  0  0  0  0  0  0  0  0  0
    3.1197   -0.4563    1.1111 C   0  0  0  0  0  0  0  0  0  0  0  0
    3.3352   -0.2369    2.6260 C   0  0  0  0  0  0  0  0  0  0  0  0
    4.8164   -0.3519    3.0580 C   0  0  0  0  0  0  0  0  0  0  0  0
    5.5496   -1.5819    2.4803 C   0  0  0  0  0  0  0  0  0  0  0  0
    5.3287   -1.6782    0.9683 C   0  0  1  0  0  0  0  0  0  0  0  0
    6.3142   -2.6426    0.1120 C   0  0  0  0  0  0  0  0  0  0  0  0
    5.6658   -3.7523   -0.8386 C   0  0  2  0  0  0  0  0  0  0  0  0
    5.3510   -3.6387   -2.4106 C   0  0  0  0  0  0  0  0  0  0  0  0
    4.3010   -3.9064   -0.3650 C   0  0  1  0  0  0  0  0  0  0  0  0
    4.0756   -4.6385    0.9883 C   0  0  0  0  0  0  0  0  0  0  0  0
    5.1114   -4.9926    1.8867 C   0  0  0  0  0  0  0  0  0  0  0  0
    4.8612   -5.6194    3.0495 N   0  0  0  0  0  0  0  0  0  0  0  0
    3.5958   -5.9347    3.3172 C   0  0  0  0  0  0  0  0  0  0  0  0
    2.5370   -5.6826    2.5445 N   0  0  0  0  0  0  0  0  0  0  0  0
    2.7785   -5.0435    1.3806 C   0  0  0  0  0  0  0  0  0  0  0  0
    2.2081   -4.6727   -1.9128 H   0  0  0  0  0  0  0  0  0  0  0  0
    2.1528   -1.9585   -2.1038 H   0  0  0  0  0  0  0  0  0  0  0  0
    3.5582   -3.4566   -3.8176 H   0  0  0  0  0  0  0  0  0  0  0  0
    5.1076   -1.4060   -3.6742 H   0  0  0  0  0  0  0  0  0  0  0  0
    3.4062   -1.0284   -3.5461 H   0  0  0  0  0  0  0  0  0  0  0  0
    5.4129   -0.9708   -1.4490 H   0  0  0  0  0  0  0  0  0  0  0  0
    3.8219   -0.3271   -1.4532 H   0  0  0  0  0  0  0  0  0  0  0  0
    3.2925   -2.4559    1.4425 H   0  0  0  0  0  0  0  0  0  0  0  0
    3.5499    0.3857    0.5683 H   0  0  0  0  0  0  0  0  0  0  0  0
    2.0551   -0.4818    0.8921 H   0  0  0  0  0  0  0  0  0  0  0  0
    2.9569    0.7457    2.9048 H   0  0  0  0  0  0  0  0  0  0  0  0
    2.7400   -0.9640    3.1811 H   0  0  0  0  0  0  0  0  0  0  0  0
    5.3454    0.5480    2.7489 H   0  0  0  0  0  0  0  0  0  0  0  0
    4.8752   -0.3795    4.1458 H   0  0  0  0  0  0  0  0  0  0  0  0
    6.6141   -1.4692    2.6766 H   0  0  0  0  0  0  0  0  0  0  0  0
    5.2088   -2.4893    2.9829 H   0  0  0  0  0  0  0  0  0  0  0  0
    5.6363   -0.6862    0.6314 H   0  0  0  0  0  0  0  0  0  0  0  0
    6.9976   -2.0440   -0.4935 H   0  0  0  0  0  0  0  0  0  0  0  0
    7.0053   -3.1279    0.7990 H   0  0  0  0  0  0  0  0  0  0  0  0
    6.2151   -4.6777   -0.6988 H   0  0  0  0  0  0  0  0  0  0  0  0
    5.3428   -4.6571   -2.7928 H   0  0  0  0  0  0  0  0  0  0  0  0
    6.2013   -3.1651   -2.9092 H   0  0  0  0  0  0  0  0  0  0  0  0
    3.8986   -4.7087   -0.9854 H   0  0  0  0  0  0  0  0  0  0  0  0
    6.1605   -4.7998    1.7075 H   0  0  0  0  0  0  0  0  0  0  0  0
    3.4223   -6.4390    4.2548 H   0  0  0  0  0  0  0  0  0  0  0  0
    1.9078   -4.8642    0.7599 H   0  0  0  0  0  0  0  0  0  0  0  0
  1  2  1  0
  1 23  1  0
  2  6  1  0
  2  3  1  0
  2 24  1  6
  3 15  1  0
  3  4  1  0
  3 25  1  6
  4  5  1  0
  4 26  1  0
  4 27  1  0
  6  5  1  6
  5 28  1  0
  5 29  1  0
  6 16  1  0
  6  7  1  0
  7 12  1  0
  7  8  1  0
  7 30  1  1
  8  9  1  0
  8 31  1  0
  8 32  1  0
  9 10  1  0
  9 33  1  0
  9 34  1  0
 10 11  1  0
 10 35  1  0
 10 36  1  0
 11 12  1  0
 11 37  1  0
 11 38  1  0
 12 13  1  0
 12 39  1  6
 13 14  1  0
 13 40  1  0
 13 41  1  0
 14 15  1  0
 14 16  1  0
 14 42  1  6
 15 43  1  0
 15 44  1  0
 16 17  1  0
 16 45  1  6
 17 22  1  0
 17 18  2  0
 18 19  1  0
 18 46  1  0
 19 20  2  0
 20 21  1  0
 20 47  1  0
 21 22  2  0
 22 48  1  0
M  END
>  <i_m_ct_stereo_status>  (254) 
1

>  <s_m_source_file>  (254) 
/var/tmp/pbs.5076255.sched01/tmple0dc7g8/88jbw3zpwn.sdf

>  <i_m_source_file_index>  (254) 
38

>  <i_lp_mmshare_version>  (254) 
48012

>  <i_f3d_flags>  (254) 
0

>  <s_epik_input>  (254) 
W0NIMl0xW0NIMl1bQ0gyXVtDSDJdW0NASF0oW0NAQEhdMVtDQEBdMjM0KVtDSDJdW0NASF0oW0NIMl1bQ0BASF0oW0NASF0yW09IXSlbQ0gyXVtDSDJdMylbQ0BIXTRjNVtjSF1uW2NIXW5bY0hdNQ==

>  <s_epik_cmdline>  (254) 
J2VwaWtfcHl0aG9uJywgJy1waHQnLCAnMi4wJywgJy1waCcsICc3LjAnLCAnLXRuJywgJzgnLCAnLW1hJywgJzIwMCcsICctaW1hZScsICc8aW5maWxlLm1hZT4nLCAnLW9tYWUnLCAnPG91dGZpbGUubWFlPic=

>  <r_lp_tautomer_probability>  (254) 
1

>  <r_epik_Ionization_Penalty>  (254) 
6.72237e-06

>  <r_epik_Ionization_Penalty_Charging>  (254) 
0

>  <r_epik_Ionization_Penalty_Neutral>  (254) 
6.72237e-06

>  <r_epik_State_Penalty>  (254) 
-0

>  <r_epik_Charging_Adjusted_Penalty>  (254) 
0

>  <i_epik_Tot_Q>  (254) 
0

>  <i_epik_Tot_abs_Q>  (254) 
0

>  <s_epik_Chemistry_Notes>  (254) 
This compound contains an electron-poor aromatic ring that is susceptible to covalent hydrolysis at low pH, typically resulting in measured values for nitrogen ring protonation that are around two units higher than predicted values.

>  <s_lp_Force_Field>  (254) 
OPLS3e

>  <r_lp_Energy>  (254) 
175.446

>  <b_lp_Chiralities_Consistent>  (254) 
1

>  <s_lp_Variant>  (254) 
78:0-1

>  <s_i_glide_gridfile>  (254) 
pfpi4k_grid

>  <i_i_glide_lignum>  (254) 
38

>  <i_i_glide_rotatable_bonds>  (254) 
2

>  <r_i_docking_score>  (254) 
-3.79301

>  <r_i_glide_ligand_efficiency>  (254) 
-0.17241

>  <r_i_glide_ligand_efficiency_sa>  (254) 
-0.483098

>  <r_i_glide_ligand_efficiency_ln>  (254) 
-0.92715

>  <r_i_glide_gscore>  (254) 
-3.79301

>  <r_i_glide_lipo>  (254) 
-0.631842

>  <r_i_glide_hbond>  (254) 
-0.32

>  <r_i_glide_metal>  (254) 
-0

>  <r_i_glide_rewards>  (254) 
-1.37439

>  <r_i_glide_evdw>  (254) 
-22.701

>  <r_i_glide_ecoul>  (254) 
-3.58523

>  <r_i_glide_erotb>  (254) 
0.206059

>  <r_i_glide_esite>  (254) 
0

>  <r_i_glide_emodel>  (254) 
-31.6102

>  <r_i_glide_energy>  (254) 
-26.2862

>  <r_i_glide_einternal>  (254) 
1.16667

>  <r_i_glide_intrahb_reward>  (254) 
-0

>  <i_i_glide_confnum>  (254) 
4

>  <i_i_glide_posenum>  (254) 
9

>  <r_i_glide_eff_state_penalty>  (254) 
0

>  <ligand_id>  (254) 
78

>  <original_smiles>  (254) 
OC1C2CCC13C1CCCCC1CC(C2)C3c1cncnc1

>  <smiles>  (254) 
[H]OC1([H])C2([H])C([H])([H])C([H])([H])C13C([H])(c1c([H])nc([H])nc1[H])C([H])(C2([H])[H])C([H])([H])C1([H])C([H])([H])C([H])([H])C([H])([H])C([H])([H])C13[H]

$$$$
78:0:2
     RDKit          3D

 48 52  0  0  1  0  0  0  0  0999 V2000
    2.2830   -3.4590   -2.1582 O   0  0  0  0  0  0  0  0  0  0  0  0
    3.1974   -2.4906   -1.6612 C   0  0  2  0  0  0  0  0  0  0  0  0
    4.6466   -2.4580   -2.3557 C   0  0  1  0  0  0  0  0  0  0  0  0
    4.9937   -1.0719   -1.9545 C   0  0  0  0  0  0  0  0  0  0  0  0
    4.6507   -1.2382   -0.4889 C   0  0  0  0  0  0  0  0  0  0  0  0
    3.7695   -2.5875   -0.2458 C   0  0  1  0  0  0  0  0  0  0  0  0
    3.3778   -2.4324    1.2307 C   0  0  2  0  0  0  0  0  0  0  0  0
    2.6163   -1.2304    1.8067 C   0  0  0  0  0  0  0  0  0  0  0  0
    2.3540   -1.5178    3.3056 C   0  0  0  0  0  0  0  0  0  0  0  0
    3.6345   -1.8964    4.0972 C   0  0  0  0  0  0  0  0  0  0  0  0
    4.5373   -2.9531    3.4100 C   0  0  0  0  0  0  0  0  0  0  0  0
    4.7852   -2.5504    1.9497 C   0  0  1  0  0  0  0  0  0  0  0  0
    5.9851   -3.2961    1.1581 C   0  0  0  0  0  0  0  0  0  0  0  0
    5.6852   -3.9731   -0.2575 C   0  0  2  0  0  0  0  0  0  0  0  0
    5.8696   -3.3353   -1.7197 C   0  0  0  0  0  0  0  0  0  0  0  0
    4.2426   -4.1339   -0.2913 C   0  0  1  0  0  0  0  0  0  0  0  0
    3.6034   -5.2277    0.5954 C   0  0  0  0  0  0  0  0  0  0  0  0
    2.2243   -5.5066    0.4813 C   0  0  0  0  0  0  0  0  0  0  0  0
    1.6074   -6.4491    1.2176 N   0  0  0  0  0  0  0  0  0  0  0  0
    2.3823   -7.1672    2.0310 C   0  0  0  0  0  0  0  0  0  0  0  0
    3.6955   -7.0246    2.2014 N   0  0  0  0  0  0  0  0  0  0  0  0
    4.3094   -6.0632    1.4838 C   0  0  0  0  0  0  0  0  0  0  0  0
    2.7047   -4.3087   -2.2341 H   0  0  0  0  0  0  0  0  0  0  0  0
    2.6478   -1.5574   -1.8103 H   0  0  0  0  0  0  0  0  0  0  0  0
    4.6022   -2.5431   -3.4429 H   0  0  0  0  0  0  0  0  0  0  0  0
    6.0292   -0.8103   -2.1293 H   0  0  0  0  0  0  0  0  0  0  0  0
    4.3652   -0.3325   -2.4541 H   0  0  0  0  0  0  0  0  0  0  0  0
    5.5843   -1.1209    0.0500 H   0  0  0  0  0  0  0  0  0  0  0  0
    4.0710   -0.3550   -0.2315 H   0  0  0  0  0  0  0  0  0  0  0  0
    2.7189   -3.2380    1.5280 H   0  0  0  0  0  0  0  0  0  0  0  0
    3.1663   -0.2929    1.7162 H   0  0  0  0  0  0  0  0  0  0  0  0
    1.6700   -1.1024    1.2810 H   0  0  0  0  0  0  0  0  0  0  0  0
    1.8874   -0.6470    3.7660 H   0  0  0  0  0  0  0  0  0  0  0  0
    1.6253   -2.3253    3.3920 H   0  0  0  0  0  0  0  0  0  0  0  0
    4.2185   -0.9895    4.2629 H   0  0  0  0  0  0  0  0  0  0  0  0
    3.3499   -2.2564    5.0861 H   0  0  0  0  0  0  0  0  0  0  0  0
    5.4825   -3.0334    3.9511 H   0  0  0  0  0  0  0  0  0  0  0  0
    4.0634   -3.9343    3.4494 H   0  0  0  0  0  0  0  0  0  0  0  0
    5.1727   -1.5382    2.0614 H   0  0  0  0  0  0  0  0  0  0  0  0
    6.8308   -2.6165    1.0409 H   0  0  0  0  0  0  0  0  0  0  0  0
    6.3860   -4.0646    1.8182 H   0  0  0  0  0  0  0  0  0  0  0  0
    6.1920   -4.9344   -0.2825 H   0  0  0  0  0  0  0  0  0  0  0  0
    5.9909   -4.1703   -2.4065 H   0  0  0  0  0  0  0  0  0  0  0  0
    6.8284   -2.8150   -1.7660 H   0  0  0  0  0  0  0  0  0  0  0  0
    4.0694   -4.6580   -1.2316 H   0  0  0  0  0  0  0  0  0  0  0  0
    1.5893   -4.9581   -0.1954 H   0  0  0  0  0  0  0  0  0  0  0  0
    1.8968   -7.9345    2.6137 H   0  0  0  0  0  0  0  0  0  0  0  0
    5.3777   -5.9913    1.6374 H   0  0  0  0  0  0  0  0  0  0  0  0
  1  2  1  0
  1 23  1  0
  2  6  1  0
  2  3  1  0
  2 24  1  1
  3 15  1  0
  3  4  1  0
  3 25  1  6
  4  5  1  0
  4 26  1  0
  4 27  1  0
  6  5  1  6
  5 28  1  0
  5 29  1  0
  6 16  1  0
  6  7  1  0
  7 12  1  0
  7  8  1  0
  7 30  1  1
  8  9  1  0
  8 31  1  0
  8 32  1  0
  9 10  1  0
  9 33  1  0
  9 34  1  0
 10 11  1  0
 10 35  1  0
 10 36  1  0
 11 12  1  0
 11 37  1  0
 11 38  1  0
 12 13  1  0
 12 39  1  1
 13 14  1  0
 13 40  1  0
 13 41  1  0
 14 15  1  0
 14 16  1  0
 14 42  1  6
 15 43  1  0
 15 44  1  0
 16 17  1  0
 16 45  1  6
 17 22  1  0
 17 18  2  0
 18 19  1  0
 18 46  1  0
 19 20  2  0
 20 21  1  0
 20 47  1  0
 21 22  2  0
 22 48  1  0
M  END
>  <i_m_ct_stereo_status>  (255) 
1

>  <s_m_source_file>  (255) 
/var/tmp/pbs.5076255.sched01/tmple0dc7g8/88jbw3zpwn.sdf

>  <i_m_source_file_index>  (255) 
38

>  <i_lp_mmshare_version>  (255) 
48012

>  <i_f3d_flags>  (255) 
0

>  <s_epik_input>  (255) 
W0NIMl0xW0NIMl1bQ0gyXVtDSDJdW0NASF0oW0NAQEhdMVtDQEBdMjM0KVtDSDJdW0NASF0oW0NIMl1bQ0BASF0oW0NASF0yW09IXSlbQ0gyXVtDSDJdMylbQ0BIXTRjNVtjSF1uW2NIXW5bY0hdNQ==

>  <s_epik_cmdline>  (255) 
J2VwaWtfcHl0aG9uJywgJy1waHQnLCAnMi4wJywgJy1waCcsICc3LjAnLCAnLXRuJywgJzgnLCAnLW1hJywgJzIwMCcsICctaW1hZScsICc8aW5maWxlLm1hZT4nLCAnLW9tYWUnLCAnPG91dGZpbGUubWFlPic=

>  <r_lp_tautomer_probability>  (255) 
1

>  <r_epik_Ionization_Penalty>  (255) 
6.72237e-06

>  <r_epik_Ionization_Penalty_Charging>  (255) 
0

>  <r_epik_Ionization_Penalty_Neutral>  (255) 
6.72237e-06

>  <r_epik_State_Penalty>  (255) 
-0

>  <r_epik_Charging_Adjusted_Penalty>  (255) 
0

>  <i_epik_Tot_Q>  (255) 
0

>  <i_epik_Tot_abs_Q>  (255) 
0

>  <s_epik_Chemistry_Notes>  (255) 
This compound contains an electron-poor aromatic ring that is susceptible to covalent hydrolysis at low pH, typically resulting in measured values for nitrogen ring protonation that are around two units higher than predicted values.

>  <s_lp_Force_Field>  (255) 
OPLS3e

>  <r_lp_Energy>  (255) 
175.446

>  <b_lp_Chiralities_Consistent>  (255) 
1

>  <s_lp_Variant>  (255) 
78:0-1

>  <s_i_glide_gridfile>  (255) 
pfpi4k_grid

>  <i_i_glide_lignum>  (255) 
38

>  <i_i_glide_rotatable_bonds>  (255) 
2

>  <r_i_docking_score>  (255) 
-3.78057

>  <r_i_glide_ligand_efficiency>  (255) 
-0.171844

>  <r_i_glide_ligand_efficiency_sa>  (255) 
-0.481514

>  <r_i_glide_ligand_efficiency_ln>  (255) 
-0.92411

>  <r_i_glide_gscore>  (255) 
-3.78057

>  <r_i_glide_lipo>  (255) 
-0.500349

>  <r_i_glide_hbond>  (255) 
-0.32

>  <r_i_glide_metal>  (255) 
-0

>  <r_i_glide_rewards>  (255) 
-1.37439

>  <r_i_glide_evdw>  (255) 
-24.9741

>  <r_i_glide_ecoul>  (255) 
-3.56523

>  <r_i_glide_erotb>  (255) 
0.206059

>  <r_i_glide_esite>  (255) 
-0.00840075

>  <r_i_glide_emodel>  (255) 
-34.8439

>  <r_i_glide_energy>  (255) 
-28.5394

>  <r_i_glide_einternal>  (255) 
0.0989438

>  <r_i_glide_intrahb_reward>  (255) 
-0

>  <i_i_glide_confnum>  (255) 
1

>  <i_i_glide_posenum>  (255) 
12

>  <r_i_glide_eff_state_penalty>  (255) 
0

>  <ligand_id>  (255) 
78

>  <original_smiles>  (255) 
OC1C2CCC13C1CCCCC1CC(C2)C3c1cncnc1

>  <smiles>  (255) 
[H]OC1([H])C2([H])C([H])([H])C([H])([H])C13C([H])(c1c([H])nc([H])nc1[H])C([H])(C2([H])[H])C([H])([H])C1([H])C([H])([H])C([H])([H])C([H])([H])C([H])([H])C13[H]

$$$$
79:0:0
     RDKit          3D

 83 88  0  0  1  0  0  0  0  0999 V2000
    4.1048   -4.5654    0.4775 C   0  0  0  0  0  0  0  0  0  0  0  0
    3.9454   -4.6763    2.0116 C   0  0  2  0  0  0  0  0  0  0  0  0
    2.5206   -5.1482    2.4455 C   0  0  0  0  0  0  0  0  0  0  0  0
    1.9327   -6.3153    1.6290 C   0  0  0  0  0  0  0  0  0  0  0  0
    0.9327   -7.1030    2.4513 C   0  0  0  0  0  0  0  0  0  0  0  0
    1.3705   -8.1730    3.2468 C   0  0  0  0  0  0  0  0  0  0  0  0
    0.4391   -8.8927    4.0053 C   0  0  0  0  0  0  0  0  0  0  0  0
   -0.9050   -8.5013    3.9459 C   0  0  0  0  0  0  0  0  0  0  0  0
   -1.2564   -7.4036    3.1486 C   0  0  0  0  0  0  0  0  0  0  0  0
   -0.3606   -6.6879    2.4205 N   0  0  0  0  0  0  0  0  0  0  0  0
    4.4802   -3.4115    2.7739 C   0  0  2  0  0  0  0  0  0  0  0  0
    4.3053   -3.4433    4.3148 C   0  0  0  0  0  0  0  0  0  0  0  0
    4.1811   -1.9918    4.7810 C   0  0  0  0  0  0  0  0  0  0  0  0
    4.4271   -1.1134    3.5452 C   0  0  2  0  0  0  0  0  0  0  0  0
    3.7565    0.2918    3.5778 C   0  0  2  0  0  0  0  0  0  0  0  0
    4.1534    1.0516    4.8523 C   0  0  0  0  0  0  0  0  0  0  0  0
    3.4833    2.4200    4.9308 C   0  0  0  0  0  0  0  0  0  0  0  0
    4.1184    3.4314    5.2054 O   0  0  0  0  0  0  0  0  0  0  0  0
    1.9707    2.4604    4.7048 C   0  0  1  0  0  0  0  0  0  0  0  0
    1.5726    1.6733    3.4202 C   0  0  2  0  0  0  0  0  0  0  0  0
    0.0254    1.6697    3.2561 C   0  0  0  0  0  0  0  0  0  0  0  0
   -0.7371    1.2008    4.5207 C   0  0  0  0  0  0  0  0  0  0  0  0
   -0.3388    2.0454    5.7587 C   0  0  2  0  0  0  0  0  0  0  0  0
   -0.8016    3.5175    5.5579 C   0  0  0  0  0  0  0  0  0  0  0  0
    1.1875    1.9243    5.9293 C   0  0  2  0  0  0  0  0  0  0  0  0
    1.4658    2.4736    7.3350 C   0  0  0  0  0  0  0  0  0  0  0  0
    0.1902    2.1441    8.1425 C   0  0  0  0  0  0  0  0  0  0  0  0
   -0.8296    1.5379    7.1467 C   0  0  1  0  0  0  0  0  0  0  0  0
   -2.2967    1.8403    7.5040 C   0  0  0  0  0  0  0  0  0  0  0  0
   -0.7119    0.1346    7.2319 O   0  0  0  0  0  0  0  0  0  0  0  0
    2.2173    0.2559    3.3702 C   0  0  1  0  0  0  0  0  0  0  0  0
    1.8849   -0.5204    2.0832 C   0  0  1  0  0  0  0  0  0  0  0  0
    2.2144    0.1490    0.8939 O   0  0  0  0  0  0  0  0  0  0  0  0
    2.5075   -1.9157    2.1141 C   0  0  0  0  0  0  0  0  0  0  0  0
    4.0429   -1.9794    2.3204 C   0  0  2  0  0  0  0  0  0  0  0  0
    4.8388   -1.4880    1.0758 C   0  0  0  0  0  0  0  0  0  0  0  0
    3.4250   -3.8258    0.0499 H   0  0  0  0  0  0  0  0  0  0  0  0
    3.8872   -5.4986   -0.0449 H   0  0  0  0  0  0  0  0  0  0  0  0
    5.1272   -4.2830    0.2040 H   0  0  0  0  0  0  0  0  0  0  0  0
    4.6250   -5.4776    2.2929 H   0  0  0  0  0  0  0  0  0  0  0  0
    2.6045   -5.5110    3.4749 H   0  0  0  0  0  0  0  0  0  0  0  0
    1.7856   -4.3344    2.4445 H   0  0  0  0  0  0  0  0  0  0  0  0
    1.4540   -5.8977    0.7420 H   0  0  0  0  0  0  0  0  0  0  0  0
    2.6969   -7.0159    1.2790 H   0  0  0  0  0  0  0  0  0  0  0  0
    2.4216   -8.4386    3.2636 H   0  0  0  0  0  0  0  0  0  0  0  0
    0.7459   -9.7345    4.6154 H   0  0  0  0  0  0  0  0  0  0  0  0
   -1.6577   -9.0433    4.5035 H   0  0  0  0  0  0  0  0  0  0  0  0
   -2.2792   -7.0746    3.0877 H   0  0  0  0  0  0  0  0  0  0  0  0
    5.5607   -3.4309    2.6362 H   0  0  0  0  0  0  0  0  0  0  0  0
    3.3876   -3.9363    4.6371 H   0  0  0  0  0  0  0  0  0  0  0  0
    5.1355   -3.9631    4.8040 H   0  0  0  0  0  0  0  0  0  0  0  0
    3.1707   -1.8453    5.1598 H   0  0  0  0  0  0  0  0  0  0  0  0
    4.8712   -1.7602    5.5898 H   0  0  0  0  0  0  0  0  0  0  0  0
    5.5087   -0.9617    3.5072 H   0  0  0  0  0  0  0  0  0  0  0  0
    4.1669    0.8546    2.7377 H   0  0  0  0  0  0  0  0  0  0  0  0
    3.8636    0.4904    5.7416 H   0  0  0  0  0  0  0  0  0  0  0  0
    5.2362    1.1750    4.8914 H   0  0  0  0  0  0  0  0  0  0  0  0
    1.7256    3.5118    4.5544 H   0  0  0  0  0  0  0  0  0  0  0  0
    1.9735    2.2247    2.5660 H   0  0  0  0  0  0  0  0  0  0  0  0
   -0.2870    2.6801    2.9945 H   0  0  0  0  0  0  0  0  0  0  0  0
   -0.2824    1.0797    2.3960 H   0  0  0  0  0  0  0  0  0  0  0  0
   -1.8122    1.2556    4.3524 H   0  0  0  0  0  0  0  0  0  0  0  0
   -0.5089    0.1469    4.6837 H   0  0  0  0  0  0  0  0  0  0  0  0
   -0.6067    4.1325    6.4370 H   0  0  0  0  0  0  0  0  0  0  0  0
   -1.8729    3.5573    5.3596 H   0  0  0  0  0  0  0  0  0  0  0  0
   -0.3121    4.0113    4.7217 H   0  0  0  0  0  0  0  0  0  0  0  0
    1.4296    0.8648    5.9992 H   0  0  0  0  0  0  0  0  0  0  0  0
    2.3536    2.0185    7.7767 H   0  0  0  0  0  0  0  0  0  0  0  0
    1.6274    3.5523    7.3055 H   0  0  0  0  0  0  0  0  0  0  0  0
    0.3892    1.4784    8.9860 H   0  0  0  0  0  0  0  0  0  0  0  0
   -0.1998    3.0676    8.5667 H   0  0  0  0  0  0  0  0  0  0  0  0
   -2.4997    2.9075    7.5803 H   0  0  0  0  0  0  0  0  0  0  0  0
   -2.5544    1.4026    8.4677 H   0  0  0  0  0  0  0  0  0  0  0  0
   -2.9764    1.4236    6.7611 H   0  0  0  0  0  0  0  0  0  0  0  0
    0.1931   -0.0889    7.0174 H   0  0  0  0  0  0  0  0  0  0  0  0
    1.7858   -0.3298    4.1788 H   0  0  0  0  0  0  0  0  0  0  0  0
    0.8103   -0.6896    2.0257 H   0  0  0  0  0  0  0  0  0  0  0  0
    1.6793   -0.2418    0.2016 H   0  0  0  0  0  0  0  0  0  0  0  0
    2.0421   -2.4324    2.9496 H   0  0  0  0  0  0  0  0  0  0  0  0
    2.1969   -2.4388    1.2162 H   0  0  0  0  0  0  0  0  0  0  0  0
    4.8184   -0.4021    0.9828 H   0  0  0  0  0  0  0  0  0  0  0  0
    4.4333   -1.8731    0.1441 H   0  0  0  0  0  0  0  0  0  0  0  0
    5.8931   -1.7738    1.1202 H   0  0  0  0  0  0  0  0  0  0  0  0
  1  2  1  0
  1 37  1  0
  1 38  1  0
  1 39  1  0
  2  3  1  0
  2 11  1  0
  2 40  1  1
  3  4  1  0
  3 41  1  0
  3 42  1  0
  4  5  1  0
  4 43  1  0
  4 44  1  0
  5 10  1  0
  5  6  2  0
  6  7  1  0
  6 45  1  0
  7  8  2  0
  7 46  1  0
  8  9  1  0
  8 47  1  0
  9 10  2  0
  9 48  1  0
 11 35  1  0
 11 12  1  0
 11 49  1  1
 12 13  1  0
 12 50  1  0
 12 51  1  0
 13 14  1  0
 13 52  1  0
 13 53  1  0
 14 35  1  0
 14 15  1  0
 14 54  1  6
 15 31  1  0
 15 16  1  0
 15 55  1  6
 16 17  1  0
 16 56  1  0
 16 57  1  0
 17 18  2  0
 17 19  1  0
 19 25  1  0
 19 20  1  0
 19 58  1  6
 20 21  1  0
 20 31  1  0
 20 59  1  6
 21 22  1  0
 21 60  1  0
 21 61  1  0
 22 23  1  0
 22 62  1  0
 22 63  1  0
 23 28  1  0
 23 24  1  6
 23 25  1  0
 24 64  1  0
 24 65  1  0
 24 66  1  0
 25 26  1  0
 25 67  1  1
 26 27  1  0
 26 68  1  0
 26 69  1  0
 27 28  1  0
 27 70  1  0
 27 71  1  0
 28 29  1  0
 28 30  1  6
 29 72  1  0
 29 73  1  0
 29 74  1  0
 30 75  1  0
 31 32  1  0
 31 76  1  1
 32 33  1  0
 32 34  1  0
 32 77  1  6
 33 78  1  0
 34 35  1  0
 34 79  1  0
 34 80  1  0
 35 36  1  6
 36 81  1  0
 36 82  1  0
 36 83  1  0
M  END
>  <i_m_ct_stereo_status>  (256) 
1

>  <s_m_source_file>  (256) 
/var/tmp/pbs.5076255.sched01/tmple0dc7g8/88jbw3zpwn.sdf

>  <i_m_source_file_index>  (256) 
39

>  <i_lp_mmshare_version>  (256) 
48012

>  <i_f3d_flags>  (256) 
0

>  <s_epik_input>  (256) 
bjFbY0hdW2NIXVtjSF1bY0hdYzFbQ0gyXVtDSDJdW0NAQEhdKFtDSDNdKVtDQEhdKFtDSDJdW0NIMl0yKVtDQEBdKFtDSDNdKShbQ0gyXVtDQEBIXTNbT0hdKVtDQEhdMltDQEhdKFtDSDJdQzQ9TylbQ0BIXTNbQ0BASF0oW0NIMl1bQ0gyXTUpW0NASF00W0NASF0oW0NAQF01NltDSDNdKVtDSDJdW0NIMl1bQ0BdNihbQ0gzXSlbT0hd

>  <s_epik_cmdline>  (256) 
J2VwaWtfcHl0aG9uJywgJy1waHQnLCAnMi4wJywgJy1waCcsICc3LjAnLCAnLXRuJywgJzgnLCAnLW1hJywgJzIwMCcsICctaW1hZScsICc8aW5maWxlLm1hZT4nLCAnLW9tYWUnLCAnPG91dGZpbGUubWFlPic=

>  <r_lp_tautomer_probability>  (256) 
1

>  <r_epik_Ionization_Penalty>  (256) 
0.0372174

>  <r_epik_Ionization_Penalty_Charging>  (256) 
0

>  <r_epik_Ionization_Penalty_Neutral>  (256) 
0.0372174

>  <r_epik_State_Penalty>  (256) 
0.031135

>  <r_epik_Charging_Adjusted_Penalty>  (256) 
0.031135

>  <i_epik_Tot_Q>  (256) 
0

>  <i_epik_Tot_abs_Q>  (256) 
0

>  <s_lp_Force_Field>  (256) 
OPLS3e

>  <r_lp_Energy>  (256) 
61.2655

>  <b_lp_Chiralities_Consistent>  (256) 
1

>  <s_lp_Variant>  (256) 
79:0-1

>  <s_i_glide_gridfile>  (256) 
pfpi4k_grid

>  <i_i_glide_lignum>  (256) 
39

>  <i_i_glide_rotatable_bonds>  (256) 
6

>  <r_i_docking_score>  (256) 
-3.28989

>  <r_i_glide_ligand_efficiency>  (256) 
-0.0913859

>  <r_i_glide_ligand_efficiency_sa>  (256) 
-0.301749

>  <r_i_glide_ligand_efficiency_ln>  (256) 
-0.717765

>  <r_i_glide_gscore>  (256) 
-3.28989

>  <r_i_glide_lipo>  (256) 
-0.144075

>  <r_i_glide_hbond>  (256) 
-0.400056

>  <r_i_glide_metal>  (256) 
-0

>  <r_i_glide_rewards>  (256) 
-0.0428149

>  <r_i_glide_evdw>  (256) 
-21.2502

>  <r_i_glide_ecoul>  (256) 
-12.5642

>  <r_i_glide_erotb>  (256) 
0.25074

>  <r_i_glide_esite>  (256) 
-0.00654056

>  <r_i_glide_emodel>  (256) 
-37.2222

>  <r_i_glide_energy>  (256) 
-33.8144

>  <r_i_glide_einternal>  (256) 
8.12243

>  <r_i_glide_intrahb_reward>  (256) 
-0

>  <i_i_glide_confnum>  (256) 
2

>  <i_i_glide_posenum>  (256) 
9

>  <r_i_glide_eff_state_penalty>  (256) 
0

>  <ligand_id>  (256) 
79

>  <original_smiles>  (256) 
CC(CCc1ccccn1)C1CCC2C3CC(=O)C4C(CCC5(C)C4CCC5(C)O)C3C(O)CC12C

>  <smiles>  (256) 
[H]OC1([H])C([H])([H])C2(C([H])([H])[H])C([H])(C([H])(C([H])([H])[H])C([H])([H])C([H])([H])c3nc([H])c([H])c([H])c3[H])C([H])([H])C([H])([H])C2([H])C2([H])C([H])([H])C(=O)C3([H])C([H])(C([H])([H])C([H])([H])C4(C([H])([H])[H])C3([H])C([H])([H])C([H])([H])C4(O[H])C([H])([H])[H])C12[H]

$$$$
79:0:1
     RDKit          3D

 83 88  0  0  1  0  0  0  0  0999 V2000
    5.9270   -4.2506    1.9642 C   0  0  0  0  0  0  0  0  0  0  0  0
    4.4725   -4.0320    1.5010 C   0  0  2  0  0  0  0  0  0  0  0  0
    4.4057   -2.9098    0.4321 C   0  0  0  0  0  0  0  0  0  0  0  0
    4.9524   -3.2457   -0.9549 C   0  0  0  0  0  0  0  0  0  0  0  0
    4.3106   -2.3930   -2.0333 C   0  0  0  0  0  0  0  0  0  0  0  0
    3.2358   -2.8727   -2.7767 C   0  0  0  0  0  0  0  0  0  0  0  0
    2.6625   -2.0529   -3.7493 C   0  0  0  0  0  0  0  0  0  0  0  0
    3.1689   -0.7595   -3.9340 C   0  0  0  0  0  0  0  0  0  0  0  0
    4.2169   -0.3395   -3.1158 C   0  0  0  0  0  0  0  0  0  0  0  0
    4.8095   -1.1272   -2.1792 N   0  0  0  0  0  0  0  0  0  0  0  0
    3.4734   -3.9077    2.6980 C   0  0  2  0  0  0  0  0  0  0  0  0
    1.9887   -3.7298    2.3056 C   0  0  0  0  0  0  0  0  0  0  0  0
    1.3129   -2.9242    3.4019 C   0  0  0  0  0  0  0  0  0  0  0  0
    2.3426   -2.7995    4.5262 C   0  0  2  0  0  0  0  0  0  0  0  0
    2.1734   -1.5665    5.4641 C   0  0  2  0  0  0  0  0  0  0  0  0
    0.7456   -1.5283    6.0353 C   0  0  0  0  0  0  0  0  0  0  0  0
    0.5258   -0.3172    6.9420 C   0  0  0  0  0  0  0  0  0  0  0  0
    0.0159   -0.4291    8.0389 O   0  0  0  0  0  0  0  0  0  0  0  0
    0.9320    1.0468    6.3613 C   0  0  1  0  0  0  0  0  0  0  0  0
    2.3679    0.9967    5.7628 C   0  0  2  0  0  0  0  0  0  0  0  0
    2.7282    2.3720    5.1244 C   0  0  0  0  0  0  0  0  0  0  0  0
    1.6676    2.8892    4.1217 C   0  0  0  0  0  0  0  0  0  0  0  0
    0.2679    2.9678    4.7797 C   0  0  2  0  0  0  0  0  0  0  0  0
    0.2766    4.0302    5.9127 C   0  0  0  0  0  0  0  0  0  0  0  0
   -0.0769    1.5559    5.2986 C   0  0  2  0  0  0  0  0  0  0  0  0
   -1.5747    1.6146    5.6125 C   0  0  0  0  0  0  0  0  0  0  0  0
   -2.1423    2.6352    4.5998 C   0  0  0  0  0  0  0  0  0  0  0  0
   -0.9386    3.2291    3.8279 C   0  0  1  0  0  0  0  0  0  0  0  0
   -1.1519    4.6930    3.3958 C   0  0  0  0  0  0  0  0  0  0  0  0
   -0.8006    2.5148    2.6164 O   0  0  0  0  0  0  0  0  0  0  0  0
    2.5739   -0.2164    4.7975 C   0  0  1  0  0  0  0  0  0  0  0  0
    4.0094   -0.3145    4.2364 C   0  0  1  0  0  0  0  0  0  0  0  0
    4.9983   -0.3803    5.2334 O   0  0  0  0  0  0  0  0  0  0  0  0
    4.1442   -1.5105    3.2904 C   0  0  0  0  0  0  0  0  0  0  0  0
    3.7369   -2.8917    3.8512 C   0  0  2  0  0  0  0  0  0  0  0  0
    4.7711   -3.4293    4.8799 C   0  0  0  0  0  0  0  0  0  0  0  0
    6.3132   -3.3507    2.4265 H   0  0  0  0  0  0  0  0  0  0  0  0
    6.5994   -4.4805    1.1397 H   0  0  0  0  0  0  0  0  0  0  0  0
    6.0038   -5.0570    2.6893 H   0  0  0  0  0  0  0  0  0  0  0  0
    4.1851   -4.9570    1.0059 H   0  0  0  0  0  0  0  0  0  0  0  0
    3.3404   -2.6279    0.2886 H   0  0  0  0  0  0  0  0  0  0  0  0
    4.9023   -1.9920    0.7390 H   0  0  0  0  0  0  0  0  0  0  0  0
    6.0312   -3.1172   -0.9659 H   0  0  0  0  0  0  0  0  0  0  0  0
    4.7645   -4.2872   -1.2075 H   0  0  0  0  0  0  0  0  0  0  0  0
    2.8189   -3.8544   -2.5888 H   0  0  0  0  0  0  0  0  0  0  0  0
    1.8053   -2.4010   -4.3243 H   0  0  0  0  0  0  0  0  0  0  0  0
    2.7197   -0.0858   -4.6589 H   0  0  0  0  0  0  0  0  0  0  0  0
    4.6168    0.6701   -3.1911 H   0  0  0  0  0  0  0  0  0  0  0  0
    3.4840   -4.8817    3.1772 H   0  0  0  0  0  0  0  0  0  0  0  0
    1.8628   -3.1466    1.3715 H   0  0  0  0  0  0  0  0  0  0  0  0
    1.5007   -4.6876    2.1378 H   0  0  0  0  0  0  0  0  0  0  0  0
    1.0503   -1.9445    3.0122 H   0  0  0  0  0  0  0  0  0  0  0  0
    0.3890   -3.3896    3.7539 H   0  0  0  0  0  0  0  0  0  0  0  0
    2.2281   -3.6901    5.1432 H   0  0  0  0  0  0  0  0  0  0  0  0
    2.8424   -1.7128    6.3138 H   0  0  0  0  0  0  0  0  0  0  0  0
    0.0095   -1.4820    5.2375 H   0  0  0  0  0  0  0  0  0  0  0  0
    0.5499   -2.4375    6.6054 H   0  0  0  0  0  0  0  0  0  0  0  0
    0.9344    1.7304    7.2090 H   0  0  0  0  0  0  0  0  0  0  0  0
    3.0551    0.8531    6.5978 H   0  0  0  0  0  0  0  0  0  0  0  0
    2.8522    3.0965    5.9262 H   0  0  0  0  0  0  0  0  0  0  0  0
    3.7027    2.3478    4.6415 H   0  0  0  0  0  0  0  0  0  0  0  0
    1.9592    3.8693    3.7382 H   0  0  0  0  0  0  0  0  0  0  0  0
    1.6512    2.2225    3.2621 H   0  0  0  0  0  0  0  0  0  0  0  0
   -0.7102    4.1701    6.3586 H   0  0  0  0  0  0  0  0  0  0  0  0
    0.6030    4.9991    5.5281 H   0  0  0  0  0  0  0  0  0  0  0  0
    0.9492    3.7840    6.7331 H   0  0  0  0  0  0  0  0  0  0  0  0
   -0.0039    0.8773    4.4519 H   0  0  0  0  0  0  0  0  0  0  0  0
   -2.0453    0.6360    5.5041 H   0  0  0  0  0  0  0  0  0  0  0  0
   -1.7476    1.9561    6.6348 H   0  0  0  0  0  0  0  0  0  0  0  0
   -2.8768    2.1871    3.9246 H   0  0  0  0  0  0  0  0  0  0  0  0
   -2.6659    3.4119    5.1555 H   0  0  0  0  0  0  0  0  0  0  0  0
   -1.3620    5.3410    4.2413 H   0  0  0  0  0  0  0  0  0  0  0  0
   -1.9819    4.7708    2.6936 H   0  0  0  0  0  0  0  0  0  0  0  0
   -0.2681    5.0925    2.8891 H   0  0  0  0  0  0  0  0  0  0  0  0
   -0.3924    3.0885    1.9721 H   0  0  0  0  0  0  0  0  0  0  0  0
    1.9274   -0.0624    3.9382 H   0  0  0  0  0  0  0  0  0  0  0  0
    4.2196    0.5608    3.6215 H   0  0  0  0  0  0  0  0  0  0  0  0
    4.9468    0.4305    5.7536 H   0  0  0  0  0  0  0  0  0  0  0  0
    3.5015   -1.2894    2.4417 H   0  0  0  0  0  0  0  0  0  0  0  0
    5.1734   -1.5184    2.9379 H   0  0  0  0  0  0  0  0  0  0  0  0
    4.6842   -2.9281    5.8440 H   0  0  0  0  0  0  0  0  0  0  0  0
    5.8055   -3.2804    4.5636 H   0  0  0  0  0  0  0  0  0  0  0  0
    4.6416   -4.4933    5.0794 H   0  0  0  0  0  0  0  0  0  0  0  0
  1  2  1  0
  1 37  1  0
  1 38  1  0
  1 39  1  0
  2  3  1  0
  2 11  1  0
  2 40  1  6
  3  4  1  0
  3 41  1  0
  3 42  1  0
  4  5  1  0
  4 43  1  0
  4 44  1  0
  5 10  1  0
  5  6  2  0
  6  7  1  0
  6 45  1  0
  7  8  2  0
  7 46  1  0
  8  9  1  0
  8 47  1  0
  9 10  2  0
  9 48  1  0
 11 35  1  0
 11 12  1  0
 11 49  1  1
 12 13  1  0
 12 50  1  0
 12 51  1  0
 13 14  1  0
 13 52  1  0
 13 53  1  0
 14 35  1  0
 14 15  1  0
 14 54  1  1
 15 31  1  0
 15 16  1  0
 15 55  1  1
 16 17  1  0
 16 56  1  0
 16 57  1  0
 17 18  2  0
 17 19  1  0
 19 25  1  0
 19 20  1  0
 19 58  1  1
 20 21  1  0
 20 31  1  0
 20 59  1  1
 21 22  1  0
 21 60  1  0
 21 61  1  0
 22 23  1  0
 22 62  1  0
 22 63  1  0
 23 28  1  0
 23 24  1  1
 23 25  1  0
 24 64  1  0
 24 65  1  0
 24 66  1  0
 25 26  1  0
 25 67  1  6
 26 27  1  0
 26 68  1  0
 26 69  1  0
 27 28  1  0
 27 70  1  0
 27 71  1  0
 28 29  1  0
 28 30  1  6
 29 72  1  0
 29 73  1  0
 29 74  1  0
 30 75  1  0
 31 32  1  0
 31 76  1  6
 32 33  1  0
 32 34  1  0
 32 77  1  6
 33 78  1  0
 34 35  1  0
 34 79  1  0
 34 80  1  0
 35 36  1  1
 36 81  1  0
 36 82  1  0
 36 83  1  0
M  END
>  <i_m_ct_stereo_status>  (257) 
1

>  <s_m_source_file>  (257) 
/var/tmp/pbs.5076255.sched01/tmple0dc7g8/88jbw3zpwn.sdf

>  <i_m_source_file_index>  (257) 
39

>  <i_lp_mmshare_version>  (257) 
48012

>  <i_f3d_flags>  (257) 
0

>  <s_epik_input>  (257) 
bjFbY0hdW2NIXVtjSF1bY0hdYzFbQ0gyXVtDSDJdW0NAQEhdKFtDSDNdKVtDQEhdKFtDSDJdW0NIMl0yKVtDQEBdKFtDSDNdKShbQ0gyXVtDQEBIXTNbT0hdKVtDQEhdMltDQEhdKFtDSDJdQzQ9TylbQ0BIXTNbQ0BASF0oW0NIMl1bQ0gyXTUpW0NASF00W0NASF0oW0NAQF01NltDSDNdKVtDSDJdW0NIMl1bQ0BdNihbQ0gzXSlbT0hd

>  <s_epik_cmdline>  (257) 
J2VwaWtfcHl0aG9uJywgJy1waHQnLCAnMi4wJywgJy1waCcsICc3LjAnLCAnLXRuJywgJzgnLCAnLW1hJywgJzIwMCcsICctaW1hZScsICc8aW5maWxlLm1hZT4nLCAnLW9tYWUnLCAnPG91dGZpbGUubWFlPic=

>  <r_lp_tautomer_probability>  (257) 
1

>  <r_epik_Ionization_Penalty>  (257) 
0.0372174

>  <r_epik_Ionization_Penalty_Charging>  (257) 
0

>  <r_epik_Ionization_Penalty_Neutral>  (257) 
0.0372174

>  <r_epik_State_Penalty>  (257) 
0.031135

>  <r_epik_Charging_Adjusted_Penalty>  (257) 
0.031135

>  <i_epik_Tot_Q>  (257) 
0

>  <i_epik_Tot_abs_Q>  (257) 
0

>  <s_lp_Force_Field>  (257) 
OPLS3e

>  <r_lp_Energy>  (257) 
61.2655

>  <b_lp_Chiralities_Consistent>  (257) 
1

>  <s_lp_Variant>  (257) 
79:0-1

>  <s_i_glide_gridfile>  (257) 
pfpi4k_grid

>  <i_i_glide_lignum>  (257) 
39

>  <i_i_glide_rotatable_bonds>  (257) 
6

>  <r_i_docking_score>  (257) 
-3.00789

>  <r_i_glide_ligand_efficiency>  (257) 
-0.0835526

>  <r_i_glide_ligand_efficiency_sa>  (257) 
-0.275885

>  <r_i_glide_ligand_efficiency_ln>  (257) 
-0.656241

>  <r_i_glide_gscore>  (257) 
-3.00789

>  <r_i_glide_lipo>  (257) 
-0.808218

>  <r_i_glide_hbond>  (257) 
-0.16

>  <r_i_glide_metal>  (257) 
-0

>  <r_i_glide_rewards>  (257) 
-0.0428149

>  <r_i_glide_evdw>  (257) 
-27.5519

>  <r_i_glide_ecoul>  (257) 
-5.66459

>  <r_i_glide_erotb>  (257) 
0.25074

>  <r_i_glide_esite>  (257) 
-0.0203165

>  <r_i_glide_emodel>  (257) 
-36.1663

>  <r_i_glide_energy>  (257) 
-33.2165

>  <r_i_glide_einternal>  (257) 
7.4784

>  <r_i_glide_intrahb_reward>  (257) 
-0

>  <i_i_glide_confnum>  (257) 
2

>  <i_i_glide_posenum>  (257) 
30

>  <r_i_glide_eff_state_penalty>  (257) 
0

>  <ligand_id>  (257) 
79

>  <original_smiles>  (257) 
CC(CCc1ccccn1)C1CCC2C3CC(=O)C4C(CCC5(C)C4CCC5(C)O)C3C(O)CC12C

>  <smiles>  (257) 
[H]OC1([H])C([H])([H])C2(C([H])([H])[H])C([H])(C([H])(C([H])([H])[H])C([H])([H])C([H])([H])c3nc([H])c([H])c([H])c3[H])C([H])([H])C([H])([H])C2([H])C2([H])C([H])([H])C(=O)C3([H])C([H])(C([H])([H])C([H])([H])C4(C([H])([H])[H])C3([H])C([H])([H])C([H])([H])C4(O[H])C([H])([H])[H])C12[H]

$$$$
79:0:2
     RDKit          3D

 83 88  0  0  1  0  0  0  0  0999 V2000
    4.6111    0.1135    1.1895 C   0  0  0  0  0  0  0  0  0  0  0  0
    3.9277   -0.3756    2.4869 C   0  0  2  0  0  0  0  0  0  0  0  0
    3.9537    0.7580    3.5519 C   0  0  0  0  0  0  0  0  0  0  0  0
    3.0056    1.9469    3.2978 C   0  0  0  0  0  0  0  0  0  0  0  0
    1.5469    1.5556    3.4557 C   0  0  0  0  0  0  0  0  0  0  0  0
    0.7211    1.4096    2.3246 C   0  0  0  0  0  0  0  0  0  0  0  0
   -0.6262    1.0535    2.5141 C   0  0  0  0  0  0  0  0  0  0  0  0
   -1.0862    0.8395    3.8259 C   0  0  0  0  0  0  0  0  0  0  0  0
   -0.1836    1.0024    4.8915 C   0  0  0  0  0  0  0  0  0  0  0  0
    1.1084    1.3557    4.7189 N   0  0  0  0  0  0  0  0  0  0  0  0
    4.5739   -1.7129    2.9719 C   0  0  2  0  0  0  0  0  0  0  0  0
    4.5523   -2.7916    1.8649 C   0  0  0  0  0  0  0  0  0  0  0  0
    4.4644   -4.1559    2.5430 C   0  0  0  0  0  0  0  0  0  0  0  0
    4.5162   -3.8759    4.0491 C   0  0  2  0  0  0  0  0  0  0  0  0
    3.8369   -4.9456    4.9483 C   0  0  2  0  0  0  0  0  0  0  0  0
    4.4113   -6.3434    4.6564 C   0  0  0  0  0  0  0  0  0  0  0  0
    3.7407   -7.4157    5.5075 C   0  0  0  0  0  0  0  0  0  0  0  0
    4.3918   -8.2179    6.1640 O   0  0  0  0  0  0  0  0  0  0  0  0
    2.2096   -7.4330    5.5021 C   0  0  1  0  0  0  0  0  0  0  0  0
    1.6335   -6.0078    5.7744 C   0  0  2  0  0  0  0  0  0  0  0  0
    0.0820   -6.0429    5.7045 C   0  0  0  0  0  0  0  0  0  0  0  0
   -0.4705   -6.6802    4.4073 C   0  0  0  0  0  0  0  0  0  0  0  0
    0.1002   -8.1038    4.2011 C   0  0  2  0  0  0  0  0  0  0  0  0
   -0.4088   -9.0407    5.3355 C   0  0  0  0  0  0  0  0  0  0  0  0
    1.6345   -8.0006    4.1803 C   0  0  2  0  0  0  0  0  0  0  0  0
    2.1050   -9.3589    3.6441 C   0  0  0  0  0  0  0  0  0  0  0  0
    0.9754   -9.8110    2.6973 C   0  0  0  0  0  0  0  0  0  0  0  0
   -0.1598   -8.7649    2.8162 C   0  0  1  0  0  0  0  0  0  0  0  0
   -1.5633   -9.3505    2.6053 C   0  0  0  0  0  0  0  0  0  0  0  0
    0.0135   -7.8484    1.7494 O   0  0  0  0  0  0  0  0  0  0  0  0
    2.2852   -4.9077    4.8713 C   0  0  1  0  0  0  0  0  0  0  0  0
    1.7745   -3.4706    5.1459 C   0  0  1  0  0  0  0  0  0  0  0  0
    1.9331   -3.1022    6.5049 O   0  0  0  0  0  0  0  0  0  0  0  0
    2.4393   -2.4325    4.2230 C   0  0  0  0  0  0  0  0  0  0  0  0
    3.9945   -2.4297    4.2383 C   0  0  2  0  0  0  0  0  0  0  0  0
    4.5731   -1.8592    5.5644 C   0  0  0  0  0  0  0  0  0  0  0  0
    5.6613    0.3610    1.3476 H   0  0  0  0  0  0  0  0  0  0  0  0
    4.1084    0.9934    0.7985 H   0  0  0  0  0  0  0  0  0  0  0  0
    4.5788   -0.6208    0.3867 H   0  0  0  0  0  0  0  0  0  0  0  0
    2.8864   -0.5830    2.2348 H   0  0  0  0  0  0  0  0  0  0  0  0
    3.6562    0.3886    4.5283 H   0  0  0  0  0  0  0  0  0  0  0  0
    4.9812    1.1045    3.6803 H   0  0  0  0  0  0  0  0  0  0  0  0
    3.2312    2.7245    4.0263 H   0  0  0  0  0  0  0  0  0  0  0  0
    3.1419    2.3985    2.3206 H   0  0  0  0  0  0  0  0  0  0  0  0
    1.1061    1.5871    1.3331 H   0  0  0  0  0  0  0  0  0  0  0  0
   -1.2850    0.9532    1.6681 H   0  0  0  0  0  0  0  0  0  0  0  0
   -2.1128    0.5680    4.0165 H   0  0  0  0  0  0  0  0  0  0  0  0
   -0.5038    0.8498    5.9119 H   0  0  0  0  0  0  0  0  0  0  0  0
    5.6266   -1.5110    3.1683 H   0  0  0  0  0  0  0  0  0  0  0  0
    3.6824   -2.6714    1.2168 H   0  0  0  0  0  0  0  0  0  0  0  0
    5.4380   -2.7208    1.2300 H   0  0  0  0  0  0  0  0  0  0  0  0
    3.5292   -4.6360    2.2590 H   0  0  0  0  0  0  0  0  0  0  0  0
    5.2756   -4.8155    2.2368 H   0  0  0  0  0  0  0  0  0  0  0  0
    5.5747   -3.8608    4.3100 H   0  0  0  0  0  0  0  0  0  0  0  0
    4.1111   -4.7181    5.9793 H   0  0  0  0  0  0  0  0  0  0  0  0
    4.2732   -6.6143    3.6098 H   0  0  0  0  0  0  0  0  0  0  0  0
    5.4841   -6.3619    4.8517 H   0  0  0  0  0  0  0  0  0  0  0  0
    1.9234   -8.0953    6.3217 H   0  0  0  0  0  0  0  0  0  0  0  0
    1.8926   -5.7691    6.8060 H   0  0  0  0  0  0  0  0  0  0  0  0
   -0.2816   -6.6032    6.5630 H   0  0  0  0  0  0  0  0  0  0  0  0
   -0.3459   -5.0538    5.8351 H   0  0  0  0  0  0  0  0  0  0  0  0
   -1.5609   -6.7125    4.4327 H   0  0  0  0  0  0  0  0  0  0  0  0
   -0.1949   -6.0428    3.5669 H   0  0  0  0  0  0  0  0  0  0  0  0
   -0.0952  -10.0716    5.1876 H   0  0  0  0  0  0  0  0  0  0  0  0
   -1.4946   -9.0375    5.3692 H   0  0  0  0  0  0  0  0  0  0  0  0
   -0.0675   -8.7549    6.3259 H   0  0  0  0  0  0  0  0  0  0  0  0
    1.8984   -7.2907    3.3973 H   0  0  0  0  0  0  0  0  0  0  0  0
    3.0560   -9.2722    3.1205 H   0  0  0  0  0  0  0  0  0  0  0  0
    2.2323  -10.0814    4.4521 H   0  0  0  0  0  0  0  0  0  0  0  0
    1.3301   -9.9299    1.6772 H   0  0  0  0  0  0  0  0  0  0  0  0
    0.6253  -10.7943    3.0157 H   0  0  0  0  0  0  0  0  0  0  0  0
   -1.7462  -10.1796    3.2729 H   0  0  0  0  0  0  0  0  0  0  0  0
   -1.6717   -9.7689    1.6090 H   0  0  0  0  0  0  0  0  0  0  0  0
   -2.3539   -8.6121    2.7536 H   0  0  0  0  0  0  0  0  0  0  0  0
   -0.0363   -8.3683    0.9550 H   0  0  0  0  0  0  0  0  0  0  0  0
    2.0024   -5.1300    3.8449 H   0  0  0  0  0  0  0  0  0  0  0  0
    0.7078   -3.4277    4.9339 H   0  0  0  0  0  0  0  0  0  0  0  0
    1.5570   -3.7808    7.0423 H   0  0  0  0  0  0  0  0  0  0  0  0
    2.1032   -2.6540    3.2107 H   0  0  0  0  0  0  0  0  0  0  0  0
    2.0560   -1.4393    4.4478 H   0  0  0  0  0  0  0  0  0  0  0  0
    4.5421   -2.5960    6.3659 H   0  0  0  0  0  0  0  0  0  0  0  0
    4.0176   -1.0101    5.9515 H   0  0  0  0  0  0  0  0  0  0  0  0
    5.6168   -1.5662    5.4511 H   0  0  0  0  0  0  0  0  0  0  0  0
  1  2  1  0
  1 37  1  0
  1 38  1  0
  1 39  1  0
  2  3  1  0
  2 11  1  0
  2 40  1  6
  3  4  1  0
  3 41  1  0
  3 42  1  0
  4  5  1  0
  4 43  1  0
  4 44  1  0
  5 10  1  0
  5  6  2  0
  6  7  1  0
  6 45  1  0
  7  8  2  0
  7 46  1  0
  8  9  1  0
  8 47  1  0
  9 10  2  0
  9 48  1  0
 11 35  1  0
 11 12  1  0
 11 49  1  1
 12 13  1  0
 12 50  1  0
 12 51  1  0
 13 14  1  0
 13 52  1  0
 13 53  1  0
 14 35  1  0
 14 15  1  0
 14 54  1  1
 15 31  1  0
 15 16  1  0
 15 55  1  1
 16 17  1  0
 16 56  1  0
 16 57  1  0
 17 18  2  0
 17 19  1  0
 19 25  1  0
 19 20  1  0
 19 58  1  1
 20 21  1  0
 20 31  1  0
 20 59  1  1
 21 22  1  0
 21 60  1  0
 21 61  1  0
 22 23  1  0
 22 62  1  0
 22 63  1  0
 23 28  1  0
 23 24  1  1
 23 25  1  0
 24 64  1  0
 24 65  1  0
 24 66  1  0
 25 26  1  0
 25 67  1  6
 26 27  1  0
 26 68  1  0
 26 69  1  0
 27 28  1  0
 27 70  1  0
 27 71  1  0
 28 29  1  0
 28 30  1  6
 29 72  1  0
 29 73  1  0
 29 74  1  0
 30 75  1  0
 31 32  1  0
 31 76  1  6
 32 33  1  0
 32 34  1  0
 32 77  1  6
 33 78  1  0
 34 35  1  0
 34 79  1  0
 34 80  1  0
 35 36  1  1
 36 81  1  0
 36 82  1  0
 36 83  1  0
M  END
>  <i_m_ct_stereo_status>  (258) 
1

>  <s_m_source_file>  (258) 
/var/tmp/pbs.5076255.sched01/tmple0dc7g8/88jbw3zpwn.sdf

>  <i_m_source_file_index>  (258) 
39

>  <i_lp_mmshare_version>  (258) 
48012

>  <i_f3d_flags>  (258) 
0

>  <s_epik_input>  (258) 
bjFbY0hdW2NIXVtjSF1bY0hdYzFbQ0gyXVtDSDJdW0NAQEhdKFtDSDNdKVtDQEhdKFtDSDJdW0NIMl0yKVtDQEBdKFtDSDNdKShbQ0gyXVtDQEBIXTNbT0hdKVtDQEhdMltDQEhdKFtDSDJdQzQ9TylbQ0BIXTNbQ0BASF0oW0NIMl1bQ0gyXTUpW0NASF00W0NASF0oW0NAQF01NltDSDNdKVtDSDJdW0NIMl1bQ0BdNihbQ0gzXSlbT0hd

>  <s_epik_cmdline>  (258) 
J2VwaWtfcHl0aG9uJywgJy1waHQnLCAnMi4wJywgJy1waCcsICc3LjAnLCAnLXRuJywgJzgnLCAnLW1hJywgJzIwMCcsICctaW1hZScsICc8aW5maWxlLm1hZT4nLCAnLW9tYWUnLCAnPG91dGZpbGUubWFlPic=

>  <r_lp_tautomer_probability>  (258) 
1

>  <r_epik_Ionization_Penalty>  (258) 
0.0372174

>  <r_epik_Ionization_Penalty_Charging>  (258) 
0

>  <r_epik_Ionization_Penalty_Neutral>  (258) 
0.0372174

>  <r_epik_State_Penalty>  (258) 
0.031135

>  <r_epik_Charging_Adjusted_Penalty>  (258) 
0.031135

>  <i_epik_Tot_Q>  (258) 
0

>  <i_epik_Tot_abs_Q>  (258) 
0

>  <s_lp_Force_Field>  (258) 
OPLS3e

>  <r_lp_Energy>  (258) 
61.2655

>  <b_lp_Chiralities_Consistent>  (258) 
1

>  <s_lp_Variant>  (258) 
79:0-1

>  <s_i_glide_gridfile>  (258) 
pfpi4k_grid

>  <i_i_glide_lignum>  (258) 
39

>  <i_i_glide_rotatable_bonds>  (258) 
6

>  <r_i_docking_score>  (258) 
-2.50322

>  <r_i_glide_ligand_efficiency>  (258) 
-0.0695339

>  <r_i_glide_ligand_efficiency_sa>  (258) 
-0.229596

>  <r_i_glide_ligand_efficiency_ln>  (258) 
-0.546135

>  <r_i_glide_gscore>  (258) 
-2.50322

>  <r_i_glide_lipo>  (258) 
-0.463338

>  <r_i_glide_hbond>  (258) 
-0.32

>  <r_i_glide_metal>  (258) 
-0

>  <r_i_glide_rewards>  (258) 
-0.0428149

>  <r_i_glide_evdw>  (258) 
-24.7801

>  <r_i_glide_ecoul>  (258) 
-4.59195

>  <r_i_glide_erotb>  (258) 
0.25074

>  <r_i_glide_esite>  (258) 
-1.42816e-05

>  <r_i_glide_emodel>  (258) 
-34.6235

>  <r_i_glide_energy>  (258) 
-29.372

>  <r_i_glide_einternal>  (258) 
1.70002

>  <r_i_glide_intrahb_reward>  (258) 
-0

>  <i_i_glide_confnum>  (258) 
1

>  <i_i_glide_posenum>  (258) 
4

>  <r_i_glide_eff_state_penalty>  (258) 
0

>  <ligand_id>  (258) 
79

>  <original_smiles>  (258) 
CC(CCc1ccccn1)C1CCC2C3CC(=O)C4C(CCC5(C)C4CCC5(C)O)C3C(O)CC12C

>  <smiles>  (258) 
[H]OC1([H])C([H])([H])C2(C([H])([H])[H])C([H])(C([H])(C([H])([H])[H])C([H])([H])C([H])([H])c3nc([H])c([H])c([H])c3[H])C([H])([H])C([H])([H])C2([H])C2([H])C([H])([H])C(=O)C3([H])C([H])(C([H])([H])C([H])([H])C4(C([H])([H])[H])C3([H])C([H])([H])C([H])([H])C4(O[H])C([H])([H])[H])C12[H]

$$$$
79:1:0
     RDKit          3D

 84 89  0  0  1  0  0  0  0  0999 V2000
    5.6228  -10.9029    6.8105 C   0  0  0  0  0  0  0  0  0  0  0  0
    5.2003  -10.4963    5.3801 C   0  0  2  0  0  0  0  0  0  0  0  0
    4.9571  -11.7845    4.5417 C   0  0  0  0  0  0  0  0  0  0  0  0
    3.5443  -12.4078    4.6183 C   0  0  0  0  0  0  0  0  0  0  0  0
    2.4209  -11.4319    4.2841 C   0  0  0  0  0  0  0  0  0  0  0  0
    2.2358  -10.8510    3.0166 C   0  0  0  0  0  0  0  0  0  0  0  0
    1.2663   -9.8622    2.8228 C   0  0  0  0  0  0  0  0  0  0  0  0
    0.4184   -9.5121    3.9052 C   0  0  0  0  0  0  0  0  0  0  0  0
    0.6114  -10.1469    5.1438 C   0  0  0  0  0  0  0  0  0  0  0  0
    1.5904  -11.0585    5.2780 N   0  0  0  0  0  0  0  0  0  0  0  0
    6.2344   -9.4831    4.7609 C   0  0  2  0  0  0  0  0  0  0  0  0
    6.2841   -8.1632    5.5703 C   0  0  0  0  0  0  0  0  0  0  0  0
    6.6421   -7.0373    4.5960 C   0  0  0  0  0  0  0  0  0  0  0  0
    6.9139   -7.7141    3.2410 C   0  0  2  0  0  0  0  0  0  0  0  0
    6.6665   -6.8356    1.9755 C   0  0  2  0  0  0  0  0  0  0  0  0
    7.4993   -5.5507    2.0647 C   0  0  0  0  0  0  0  0  0  0  0  0
    7.2843   -4.6427    0.8636 C   0  0  0  0  0  0  0  0  0  0  0  0
    8.2360   -4.1774    0.2376 O   0  0  0  0  0  0  0  0  0  0  0  0
    5.8348   -4.3374    0.4768 C   0  0  1  0  0  0  0  0  0  0  0  0
    4.9802   -5.6478    0.4276 C   0  0  2  0  0  0  0  0  0  0  0  0
    3.5011   -5.3026    0.1082 C   0  0  0  0  0  0  0  0  0  0  0  0
    2.8900   -4.2177    1.0149 C   0  0  0  0  0  0  0  0  0  0  0  0
    3.7411   -2.9219    0.9722 C   0  0  2  0  0  0  0  0  0  0  0  0
    3.7046   -2.3047   -0.4593 C   0  0  0  0  0  0  0  0  0  0  0  0
    5.1685   -3.2984    1.4204 C   0  0  2  0  0  0  0  0  0  0  0  0
    5.8493   -1.9549    1.6988 C   0  0  0  0  0  0  0  0  0  0  0  0
    4.7060   -1.0269    2.1651 C   0  0  0  0  0  0  0  0  0  0  0  0
    3.3914   -1.8244    2.0198 C   0  0  1  0  0  0  0  0  0  0  0  0
    2.1660   -0.9390    1.7024 C   0  0  0  0  0  0  0  0  0  0  0  0
    3.1094   -2.4243    3.2736 O   0  0  0  0  0  0  0  0  0  0  0  0
    5.1613   -6.5414    1.6950 C   0  0  1  0  0  0  0  0  0  0  0  0
    4.3672   -7.8628    1.6642 C   0  0  1  0  0  0  0  0  0  0  0  0
    4.6270   -8.6393    0.5068 O   0  0  0  0  0  0  0  0  0  0  0  0
    4.6077   -8.6807    2.9507 C   0  0  0  0  0  0  0  0  0  0  0  0
    6.0886   -9.0134    3.2726 C   0  0  2  0  0  0  0  0  0  0  0  0
    6.6924  -10.0336    2.2626 C   0  0  0  0  0  0  0  0  0  0  0  0
    6.5651  -11.4557    6.8096 H   0  0  0  0  0  0  0  0  0  0  0  0
    4.8758  -11.5470    7.2826 H   0  0  0  0  0  0  0  0  0  0  0  0
    5.7589  -10.0400    7.4653 H   0  0  0  0  0  0  0  0  0  0  0  0
    4.2550   -9.9625    5.4745 H   0  0  0  0  0  0  0  0  0  0  0  0
    5.0902  -11.5713    3.4803 H   0  0  0  0  0  0  0  0  0  0  0  0
    5.7141  -12.5375    4.7774 H   0  0  0  0  0  0  0  0  0  0  0  0
    3.5085  -13.2149    3.8879 H   0  0  0  0  0  0  0  0  0  0  0  0
    3.3872  -12.8559    5.6056 H   0  0  0  0  0  0  0  0  0  0  0  0
    2.8973  -11.1273    2.1943 H   0  0  0  0  0  0  0  0  0  0  0  0
    1.1693   -9.3474    1.8786 H   0  0  0  0  0  0  0  0  0  0  0  0
   -0.3530   -8.7636    3.7919 H   0  0  0  0  0  0  0  0  0  0  0  0
    0.0081   -9.9799    6.0233 H   0  0  0  0  0  0  0  0  0  0  0  0
    7.2228   -9.9349    4.8579 H   0  0  0  0  0  0  0  0  0  0  0  0
    5.3194   -7.9463    6.0339 H   0  0  0  0  0  0  0  0  0  0  0  0
    7.0135   -8.2323    6.3808 H   0  0  0  0  0  0  0  0  0  0  0  0
    5.8089   -6.3343    4.5352 H   0  0  0  0  0  0  0  0  0  0  0  0
    7.5173   -6.4775    4.9349 H   0  0  0  0  0  0  0  0  0  0  0  0
    7.9651   -7.9994    3.2412 H   0  0  0  0  0  0  0  0  0  0  0  0
    7.0464   -7.3879    1.1187 H   0  0  0  0  0  0  0  0  0  0  0  0
    7.1940   -5.0215    2.9615 H   0  0  0  0  0  0  0  0  0  0  0  0
    8.5601   -5.7881    2.1638 H   0  0  0  0  0  0  0  0  0  0  0  0
    5.8814   -3.9176   -0.5290 H   0  0  0  0  0  0  0  0  0  0  0  0
    5.3495   -6.2289   -0.4178 H   0  0  0  0  0  0  0  0  0  0  0  0
    3.4674   -4.9340   -0.9117 H   0  0  0  0  0  0  0  0  0  0  0  0
    2.8745   -6.1922    0.0987 H   0  0  0  0  0  0  0  0  0  0  0  0
    1.8690   -4.0056    0.6982 H   0  0  0  0  0  0  0  0  0  0  0  0
    2.8289   -4.6209    2.0242 H   0  0  0  0  0  0  0  0  0  0  0  0
    4.2242   -1.3484   -0.5117 H   0  0  0  0  0  0  0  0  0  0  0  0
    2.6782   -2.1349   -0.7790 H   0  0  0  0  0  0  0  0  0  0  0  0
    4.1559   -2.9365   -1.2194 H   0  0  0  0  0  0  0  0  0  0  0  0
    5.0903   -3.7768    2.3955 H   0  0  0  0  0  0  0  0  0  0  0  0
    6.6161   -2.0490    2.4614 H   0  0  0  0  0  0  0  0  0  0  0  0
    6.3215   -1.5608    0.7974 H   0  0  0  0  0  0  0  0  0  0  0  0
    4.8571   -0.6704    3.1877 H   0  0  0  0  0  0  0  0  0  0  0  0
    4.6893   -0.1430    1.5299 H   0  0  0  0  0  0  0  0  0  0  0  0
    2.3136   -0.3351    0.8042 H   0  0  0  0  0  0  0  0  0  0  0  0
    1.9633   -0.2384    2.5110 H   0  0  0  0  0  0  0  0  0  0  0  0
    1.2656   -1.5354    1.5540 H   0  0  0  0  0  0  0  0  0  0  0  0
    2.3617   -2.9924    3.1586 H   0  0  0  0  0  0  0  0  0  0  0  0
    4.7674   -5.9754    2.5374 H   0  0  0  0  0  0  0  0  0  0  0  0
    3.3030   -7.6439    1.6441 H   0  0  0  0  0  0  0  0  0  0  0  0
    4.2195   -9.4932    0.5971 H   0  0  0  0  0  0  0  0  0  0  0  0
    4.1755   -8.0991    3.7795 H   0  0  0  0  0  0  0  0  0  0  0  0
    4.1040   -9.6237    2.8789 H   0  0  0  0  0  0  0  0  0  0  0  0
    6.9826   -9.5618    1.3198 H   0  0  0  0  0  0  0  0  0  0  0  0
    6.0153  -10.8373    1.9780 H   0  0  0  0  0  0  0  0  0  0  0  0
    7.5923  -10.4985    2.6699 H   0  0  0  0  0  0  0  0  0  0  0  0
    1.6972  -11.5143    6.2035 H   0  0  0  0  0  0  0  0  0  0  0  0
  1  2  1  0
  1 37  1  0
  1 38  1  0
  1 39  1  0
  2  3  1  0
  2 11  1  0
  2 40  1  1
  3  4  1  0
  3 41  1  0
  3 42  1  0
  4  5  1  0
  4 43  1  0
  4 44  1  0
  5 10  1  0
  5  6  2  0
  6  7  1  0
  6 45  1  0
  7  8  2  0
  7 46  1  0
  8  9  1  0
  8 47  1  0
  9 10  2  0
  9 48  1  0
 10 84  1  0
 11 35  1  0
 11 12  1  0
 11 49  1  6
 12 13  1  0
 12 50  1  0
 12 51  1  0
 13 14  1  0
 13 52  1  0
 13 53  1  0
 14 35  1  0
 14 15  1  0
 14 54  1  1
 15 31  1  0
 15 16  1  0
 15 55  1  6
 16 17  1  0
 16 56  1  0
 16 57  1  0
 17 18  2  0
 17 19  1  0
 19 25  1  0
 19 20  1  0
 19 58  1  6
 20 21  1  0
 20 31  1  0
 20 59  1  6
 21 22  1  0
 21 60  1  0
 21 61  1  0
 22 23  1  0
 22 62  1  0
 22 63  1  0
 23 28  1  0
 23 24  1  6
 23 25  1  0
 24 64  1  0
 24 65  1  0
 24 66  1  0
 25 26  1  0
 25 67  1  1
 26 27  1  0
 26 68  1  0
 26 69  1  0
 27 28  1  0
 27 70  1  0
 27 71  1  0
 28 29  1  0
 28 30  1  1
 29 72  1  0
 29 73  1  0
 29 74  1  0
 30 75  1  0
 31 32  1  0
 31 76  1  1
 32 33  1  0
 32 34  1  0
 32 77  1  6
 33 78  1  0
 34 35  1  0
 34 79  1  0
 34 80  1  0
 35 36  1  6
 36 81  1  0
 36 82  1  0
 36 83  1  0
M  CHG  1  10   1
M  END
>  <i_m_ct_stereo_status>  (259) 
1

>  <s_m_source_file>  (259) 
/var/tmp/pbs.5076255.sched01/tmple0dc7g8/88jbw3zpwn.sdf

>  <i_m_source_file_index>  (259) 
40

>  <i_lp_mmshare_version>  (259) 
48012

>  <i_f3d_flags>  (259) 
0

>  <s_epik_input>  (259) 
bjFbY0hdW2NIXVtjSF1bY0hdYzFbQ0gyXVtDSDJdW0NAQEhdKFtDSDNdKVtDQEhdKFtDSDJdW0NIMl0yKVtDQEBdKFtDSDNdKShbQ0gyXVtDQEBIXTNbT0hdKVtDQEhdMltDQEhdKFtDSDJdQzQ9TylbQ0BIXTNbQ0BASF0oW0NIMl1bQ0gyXTUpW0NASF00W0NASF0oW0NAQF01NltDSDNdKVtDSDJdW0NIMl1bQ0BdNihbQ0gzXSlbT0hd

>  <s_epik_cmdline>  (259) 
J2VwaWtfcHl0aG9uJywgJy1waHQnLCAnMi4wJywgJy1waCcsICc3LjAnLCAnLXRuJywgJzgnLCAnLW1hJywgJzIwMCcsICctaW1hZScsICc8aW5maWxlLm1hZT4nLCAnLW9tYWUnLCAnPG91dGZpbGUubWFlPic=

>  <r_lp_tautomer_probability>  (259) 
1

>  <r_epik_Ionization_Penalty>  (259) 
1.6583

>  <r_epik_Ionization_Penalty_Charging>  (259) 
1.6583

>  <r_epik_Ionization_Penalty_Neutral>  (259) 
3.21212e-06

>  <r_epik_State_Penalty>  (259) 
1.76096

>  <r_epik_Charging_Adjusted_Penalty>  (259) 
3.41926

>  <i_epik_Tot_Q>  (259) 
1

>  <i_epik_Tot_abs_Q>  (259) 
1

>  <s_lp_Force_Field>  (259) 
OPLS3e

>  <r_lp_Energy>  (259) 
68.5226

>  <b_lp_Chiralities_Consistent>  (259) 
1

>  <s_lp_Variant>  (259) 
79:0-2

>  <s_i_glide_gridfile>  (259) 
pfpi4k_grid

>  <i_i_glide_lignum>  (259) 
40

>  <i_i_glide_rotatable_bonds>  (259) 
6

>  <r_i_docking_score>  (259) 
-3.82565

>  <r_i_glide_ligand_efficiency>  (259) 
-0.106268

>  <r_i_glide_ligand_efficiency_sa>  (259) 
-0.350889

>  <r_i_glide_ligand_efficiency_ln>  (259) 
-0.834654

>  <r_i_glide_gscore>  (259) 
-3.82565

>  <r_i_glide_lipo>  (259) 
-0.748149

>  <r_i_glide_hbond>  (259) 
-0.2

>  <r_i_glide_metal>  (259) 
-0

>  <r_i_glide_rewards>  (259) 
-0.209706

>  <r_i_glide_evdw>  (259) 
-24.2496

>  <r_i_glide_ecoul>  (259) 
-10.7423

>  <r_i_glide_erotb>  (259) 
0.249805

>  <r_i_glide_esite>  (259) 
-0.0937784

>  <r_i_glide_emodel>  (259) 
-43.7232

>  <r_i_glide_energy>  (259) 
-34.9919

>  <r_i_glide_einternal>  (259) 
3.69549

>  <r_i_glide_intrahb_reward>  (259) 
-0

>  <i_i_glide_confnum>  (259) 
4

>  <i_i_glide_posenum>  (259) 
1

>  <r_i_glide_eff_state_penalty>  (259) 
0

>  <ligand_id>  (259) 
79

>  <original_smiles>  (259) 
CC(CCc1ccccn1)C1CCC2C3CC(=O)C4C(CCC5(C)C4CCC5(C)O)C3C(O)CC12C

>  <smiles>  (259) 
[H]OC1([H])C([H])([H])C2(C([H])([H])[H])C([H])(C([H])(C([H])([H])[H])C([H])([H])C([H])([H])c3c([H])c([H])c([H])c([H])[n+]3[H])C([H])([H])C([H])([H])C2([H])C2([H])C([H])([H])C(=O)C3([H])C([H])(C([H])([H])C([H])([H])C4(C([H])([H])[H])C3([H])C([H])([H])C([H])([H])C4(O[H])C([H])([H])[H])C12[H]

$$$$
79:1:1
     RDKit          3D

 84 89  0  0  1  0  0  0  0  0999 V2000
   -0.4197   -8.4440    4.9953 C   0  0  0  0  0  0  0  0  0  0  0  0
    0.9860   -8.2363    4.3961 C   0  0  2  0  0  0  0  0  0  0  0  0
    1.9600   -9.2768    5.0096 C   0  0  0  0  0  0  0  0  0  0  0  0
    1.7051  -10.7453    4.6094 C   0  0  0  0  0  0  0  0  0  0  0  0
    2.9955  -11.5532    4.5604 C   0  0  0  0  0  0  0  0  0  0  0  0
    3.7758  -11.6605    3.3907 C   0  0  0  0  0  0  0  0  0  0  0  0
    4.9430  -12.4525    3.3954 C   0  0  0  0  0  0  0  0  0  0  0  0
    5.3293  -13.1003    4.5857 C   0  0  0  0  0  0  0  0  0  0  0  0
    4.5268  -12.9434    5.7368 C   0  0  0  0  0  0  0  0  0  0  0  0
    3.4096  -12.1862    5.6785 N   0  0  0  0  0  0  0  0  0  0  0  0
    1.4279   -6.7468    4.5508 C   0  0  2  0  0  0  0  0  0  0  0  0
    0.5135   -5.7836    3.7595 C   0  0  0  0  0  0  0  0  0  0  0  0
    1.3622   -4.5767    3.3458 C   0  0  0  0  0  0  0  0  0  0  0  0
    2.7391   -4.7970    3.9864 C   0  0  2  0  0  0  0  0  0  0  0  0
    3.9298   -4.0989    3.2695 C   0  0  2  0  0  0  0  0  0  0  0  0
    3.6702   -2.5870    3.1068 C   0  0  0  0  0  0  0  0  0  0  0  0
    4.8245   -1.8866    2.3982 C   0  0  0  0  0  0  0  0  0  0  0  0
    5.3354   -0.8636    2.8482 O   0  0  0  0  0  0  0  0  0  0  0  0
    5.3121   -2.5117    1.0933 C   0  0  1  0  0  0  0  0  0  0  0  0
    5.5360   -4.0481    1.2587 C   0  0  2  0  0  0  0  0  0  0  0  0
    5.9676   -4.6645   -0.0983 C   0  0  0  0  0  0  0  0  0  0  0  0
    5.0299   -4.3036   -1.2767 C   0  0  0  0  0  0  0  0  0  0  0  0
    4.8859   -2.7820   -1.4251 C   0  0  2  0  0  0  0  0  0  0  0  0
    6.2585   -2.1684   -1.8172 C   0  0  0  0  0  0  0  0  0  0  0  0
    4.3525   -2.2357   -0.0917 C   0  0  2  0  0  0  0  0  0  0  0  0
    3.9078   -0.8081   -0.4201 C   0  0  0  0  0  0  0  0  0  0  0  0
    3.5017   -0.8641   -1.9167 C   0  0  0  0  0  0  0  0  0  0  0  0
    3.7989   -2.2864   -2.4191 C   0  0  1  0  0  0  0  0  0  0  0  0
    4.1544   -2.3109   -3.9162 C   0  0  0  0  0  0  0  0  0  0  0  0
    2.6024   -3.0328   -2.2703 O   0  0  0  0  0  0  0  0  0  0  0  0
    4.3226   -4.7752    1.9270 C   0  0  1  0  0  0  0  0  0  0  0  0
    4.5306   -6.2960    2.1297 C   0  0  1  0  0  0  0  0  0  0  0  0
    5.7182   -6.5786    2.8471 O   0  0  0  0  0  0  0  0  0  0  0  0
    3.3147   -6.9564    2.8000 C   0  0  0  0  0  0  0  0  0  0  0  0
    2.8824   -6.3288    4.1604 C   0  0  2  0  0  0  0  0  0  0  0  0
    3.8875   -6.6137    5.3130 C   0  0  0  0  0  0  0  0  0  0  0  0
   -0.4112   -8.3095    6.0793 H   0  0  0  0  0  0  0  0  0  0  0  0
   -0.7678   -9.4529    4.7981 H   0  0  0  0  0  0  0  0  0  0  0  0
   -1.1659   -7.7612    4.5782 H   0  0  0  0  0  0  0  0  0  0  0  0
    0.9132   -8.4485    3.3280 H   0  0  0  0  0  0  0  0  0  0  0  0
    2.9455   -9.0747    4.6196 H   0  0  0  0  0  0  0  0  0  0  0  0
    2.0390   -9.1676    6.0938 H   0  0  0  0  0  0  0  0  0  0  0  0
    0.9913  -11.1975    5.3033 H   0  0  0  0  0  0  0  0  0  0  0  0
    1.2455  -10.7972    3.6198 H   0  0  0  0  0  0  0  0  0  0  0  0
    3.4652  -11.1670    2.4817 H   0  0  0  0  0  0  0  0  0  0  0  0
    5.5238  -12.5695    2.4950 H   0  0  0  0  0  0  0  0  0  0  0  0
    6.2016  -13.7331    4.6183 H   0  0  0  0  0  0  0  0  0  0  0  0
    4.7086  -13.4325    6.6854 H   0  0  0  0  0  0  0  0  0  0  0  0
    1.2949   -6.4801    5.6002 H   0  0  0  0  0  0  0  0  0  0  0  0
    0.1233   -6.2643    2.8617 H   0  0  0  0  0  0  0  0  0  0  0  0
   -0.3429   -5.4750    4.3620 H   0  0  0  0  0  0  0  0  0  0  0  0
    1.4416   -4.5424    2.2596 H   0  0  0  0  0  0  0  0  0  0  0  0
    0.9187   -3.6331    3.6674 H   0  0  0  0  0  0  0  0  0  0  0  0
    2.6703   -4.3647    4.9857 H   0  0  0  0  0  0  0  0  0  0  0  0
    4.7942   -4.1866    3.9308 H   0  0  0  0  0  0  0  0  0  0  0  0
    2.7653   -2.4120    2.5240 H   0  0  0  0  0  0  0  0  0  0  0  0
    3.5161   -2.1229    4.0817 H   0  0  0  0  0  0  0  0  0  0  0  0
    6.2719   -2.0409    0.8863 H   0  0  0  0  0  0  0  0  0  0  0  0
    6.3853   -4.1737    1.9334 H   0  0  0  0  0  0  0  0  0  0  0  0
    6.9785   -4.3217   -0.3128 H   0  0  0  0  0  0  0  0  0  0  0  0
    6.0650   -5.7452   -0.0272 H   0  0  0  0  0  0  0  0  0  0  0  0
    5.3925   -4.7160   -2.2154 H   0  0  0  0  0  0  0  0  0  0  0  0
    4.0566   -4.7558   -1.0930 H   0  0  0  0  0  0  0  0  0  0  0  0
    6.1685   -1.0987   -1.9977 H   0  0  0  0  0  0  0  0  0  0  0  0
    6.6453   -2.6476   -2.7205 H   0  0  0  0  0  0  0  0  0  0  0  0
    7.0220   -2.2856   -1.0510 H   0  0  0  0  0  0  0  0  0  0  0  0
    3.4261   -2.7640    0.1289 H   0  0  0  0  0  0  0  0  0  0  0  0
    3.0834   -0.4941    0.2224 H   0  0  0  0  0  0  0  0  0  0  0  0
    4.7272   -0.1028   -0.2723 H   0  0  0  0  0  0  0  0  0  0  0  0
    2.4604   -0.6189   -2.1073 H   0  0  0  0  0  0  0  0  0  0  0  0
    4.0797   -0.1178   -2.4626 H   0  0  0  0  0  0  0  0  0  0  0  0
    4.9800   -1.6401   -4.1505 H   0  0  0  0  0  0  0  0  0  0  0  0
    3.3075   -1.9822   -4.5192 H   0  0  0  0  0  0  0  0  0  0  0  0
    4.4219   -3.3157   -4.2395 H   0  0  0  0  0  0  0  0  0  0  0  0
    1.9447   -2.4579   -1.8954 H   0  0  0  0  0  0  0  0  0  0  0  0
    3.4759   -4.6818    1.2482 H   0  0  0  0  0  0  0  0  0  0  0  0
    4.6288   -6.7767    1.1579 H   0  0  0  0  0  0  0  0  0  0  0  0
    5.8291   -7.5176    2.8752 H   0  0  0  0  0  0  0  0  0  0  0  0
    2.4790   -6.8748    2.1034 H   0  0  0  0  0  0  0  0  0  0  0  0
    3.5092   -8.0217    2.8835 H   0  0  0  0  0  0  0  0  0  0  0  0
    4.7747   -5.9859    5.2388 H   0  0  0  0  0  0  0  0  0  0  0  0
    4.2573   -7.6349    5.3290 H   0  0  0  0  0  0  0  0  0  0  0  0
    3.4469   -6.4096    6.2907 H   0  0  0  0  0  0  0  0  0  0  0  0
    2.8016  -12.1618    6.5038 H   0  0  0  0  0  0  0  0  0  0  0  0
  1  2  1  0
  1 37  1  0
  1 38  1  0
  1 39  1  0
  2  3  1  0
  2 11  1  0
  2 40  1  6
  3  4  1  0
  3 41  1  0
  3 42  1  0
  4  5  1  0
  4 43  1  0
  4 44  1  0
  5 10  1  0
  5  6  2  0
  6  7  1  0
  6 45  1  0
  7  8  2  0
  7 46  1  0
  8  9  1  0
  8 47  1  0
  9 10  2  0
  9 48  1  0
 10 84  1  0
 11 35  1  0
 11 12  1  0
 11 49  1  1
 12 13  1  0
 12 50  1  0
 12 51  1  0
 13 14  1  0
 13 52  1  0
 13 53  1  0
 14 35  1  0
 14 15  1  0
 14 54  1  1
 15 31  1  0
 15 16  1  0
 15 55  1  1
 16 17  1  0
 16 56  1  0
 16 57  1  0
 17 18  2  0
 17 19  1  0
 19 25  1  0
 19 20  1  0
 19 58  1  6
 20 21  1  0
 20 31  1  0
 20 59  1  1
 21 22  1  0
 21 60  1  0
 21 61  1  0
 22 23  1  0
 22 62  1  0
 22 63  1  0
 23 28  1  0
 23 24  1  6
 23 25  1  0
 24 64  1  0
 24 65  1  0
 24 66  1  0
 25 26  1  0
 25 67  1  1
 26 27  1  0
 26 68  1  0
 26 69  1  0
 27 28  1  0
 27 70  1  0
 27 71  1  0
 28 29  1  0
 28 30  1  6
 29 72  1  0
 29 73  1  0
 29 74  1  0
 30 75  1  0
 31 32  1  0
 31 76  1  6
 32 33  1  0
 32 34  1  0
 32 77  1  6
 33 78  1  0
 34 35  1  0
 34 79  1  0
 34 80  1  0
 35 36  1  1
 36 81  1  0
 36 82  1  0
 36 83  1  0
M  CHG  1  10   1
M  END
>  <i_m_ct_stereo_status>  (260) 
1

>  <s_m_source_file>  (260) 
/var/tmp/pbs.5076255.sched01/tmple0dc7g8/88jbw3zpwn.sdf

>  <i_m_source_file_index>  (260) 
40

>  <i_lp_mmshare_version>  (260) 
48012

>  <i_f3d_flags>  (260) 
0

>  <s_epik_input>  (260) 
bjFbY0hdW2NIXVtjSF1bY0hdYzFbQ0gyXVtDSDJdW0NAQEhdKFtDSDNdKVtDQEhdKFtDSDJdW0NIMl0yKVtDQEBdKFtDSDNdKShbQ0gyXVtDQEBIXTNbT0hdKVtDQEhdMltDQEhdKFtDSDJdQzQ9TylbQ0BIXTNbQ0BASF0oW0NIMl1bQ0gyXTUpW0NASF00W0NASF0oW0NAQF01NltDSDNdKVtDSDJdW0NIMl1bQ0BdNihbQ0gzXSlbT0hd

>  <s_epik_cmdline>  (260) 
J2VwaWtfcHl0aG9uJywgJy1waHQnLCAnMi4wJywgJy1waCcsICc3LjAnLCAnLXRuJywgJzgnLCAnLW1hJywgJzIwMCcsICctaW1hZScsICc8aW5maWxlLm1hZT4nLCAnLW9tYWUnLCAnPG91dGZpbGUubWFlPic=

>  <r_lp_tautomer_probability>  (260) 
1

>  <r_epik_Ionization_Penalty>  (260) 
1.6583

>  <r_epik_Ionization_Penalty_Charging>  (260) 
1.6583

>  <r_epik_Ionization_Penalty_Neutral>  (260) 
3.21212e-06

>  <r_epik_State_Penalty>  (260) 
1.76096

>  <r_epik_Charging_Adjusted_Penalty>  (260) 
3.41926

>  <i_epik_Tot_Q>  (260) 
1

>  <i_epik_Tot_abs_Q>  (260) 
1

>  <s_lp_Force_Field>  (260) 
OPLS3e

>  <r_lp_Energy>  (260) 
68.5226

>  <b_lp_Chiralities_Consistent>  (260) 
1

>  <s_lp_Variant>  (260) 
79:0-2

>  <s_i_glide_gridfile>  (260) 
pfpi4k_grid

>  <i_i_glide_lignum>  (260) 
40

>  <i_i_glide_rotatable_bonds>  (260) 
6

>  <r_i_docking_score>  (260) 
-3.3909

>  <r_i_glide_ligand_efficiency>  (260) 
-0.0941916

>  <r_i_glide_ligand_efficiency_sa>  (260) 
-0.311014

>  <r_i_glide_ligand_efficiency_ln>  (260) 
-0.739802

>  <r_i_glide_gscore>  (260) 
-3.3909

>  <r_i_glide_lipo>  (260) 
-0.221167

>  <r_i_glide_hbond>  (260) 
-0.315723

>  <r_i_glide_metal>  (260) 
-0

>  <r_i_glide_rewards>  (260) 
-0.646218

>  <r_i_glide_evdw>  (260) 
-27.8062

>  <r_i_glide_ecoul>  (260) 
-5.94912

>  <r_i_glide_erotb>  (260) 
0.174864

>  <r_i_glide_esite>  (260) 
-0.0999752

>  <r_i_glide_emodel>  (260) 
-42.7514

>  <r_i_glide_energy>  (260) 
-33.7553

>  <r_i_glide_einternal>  (260) 
3.53672

>  <r_i_glide_intrahb_reward>  (260) 
-0

>  <i_i_glide_confnum>  (260) 
4

>  <i_i_glide_posenum>  (260) 
37

>  <r_i_glide_eff_state_penalty>  (260) 
0

>  <ligand_id>  (260) 
79

>  <original_smiles>  (260) 
CC(CCc1ccccn1)C1CCC2C3CC(=O)C4C(CCC5(C)C4CCC5(C)O)C3C(O)CC12C

>  <smiles>  (260) 
[H]OC1([H])C([H])([H])C2(C([H])([H])[H])C([H])(C([H])(C([H])([H])[H])C([H])([H])C([H])([H])c3c([H])c([H])c([H])c([H])[n+]3[H])C([H])([H])C([H])([H])C2([H])C2([H])C([H])([H])C(=O)C3([H])C([H])(C([H])([H])C([H])([H])C4(C([H])([H])[H])C3([H])C([H])([H])C([H])([H])C4(O[H])C([H])([H])[H])C12[H]

$$$$
79:1:2
     RDKit          3D

 84 89  0  0  1  0  0  0  0  0999 V2000
   -0.1774   -7.1908    6.0611 C   0  0  0  0  0  0  0  0  0  0  0  0
    1.3278   -7.1536    5.7140 C   0  0  2  0  0  0  0  0  0  0  0  0
    2.1186   -7.9570    6.7821 C   0  0  0  0  0  0  0  0  0  0  0  0
    1.7708   -9.4561    6.9042 C   0  0  0  0  0  0  0  0  0  0  0  0
    2.1751  -10.2473    5.6722 C   0  0  0  0  0  0  0  0  0  0  0  0
    3.5304  -10.4604    5.3367 C   0  0  0  0  0  0  0  0  0  0  0  0
    3.8511  -11.1896    4.1715 C   0  0  0  0  0  0  0  0  0  0  0  0
    2.8035  -11.6822    3.3702 C   0  0  0  0  0  0  0  0  0  0  0  0
    1.4706  -11.4438    3.7475 C   0  0  0  0  0  0  0  0  0  0  0  0
    1.1996  -10.7375    4.8715 N   0  0  0  0  0  0  0  0  0  0  0  0
    1.8218   -5.6762    5.5536 C   0  0  2  0  0  0  0  0  0  0  0  0
    0.8941   -4.8388    4.6459 C   0  0  0  0  0  0  0  0  0  0  0  0
    1.7418   -3.7747    3.9538 C   0  0  0  0  0  0  0  0  0  0  0  0
    3.1530   -3.9308    4.5313 C   0  0  2  0  0  0  0  0  0  0  0  0
    4.2998   -3.4366    3.6092 C   0  0  2  0  0  0  0  0  0  0  0  0
    4.0573   -1.9796    3.1707 C   0  0  0  0  0  0  0  0  0  0  0  0
    5.1662   -1.4796    2.2592 C   0  0  0  0  0  0  0  0  0  0  0  0
    5.7279   -0.4086    2.4686 O   0  0  0  0  0  0  0  0  0  0  0  0
    5.5393   -2.3607    1.0684 C   0  0  1  0  0  0  0  0  0  0  0  0
    5.7364   -3.8441    1.5114 C   0  0  2  0  0  0  0  0  0  0  0  0
    6.0470   -4.7321    0.2759 C   0  0  0  0  0  0  0  0  0  0  0  0
    5.0235   -4.5686   -0.8726 C   0  0  0  0  0  0  0  0  0  0  0  0
    4.9115   -3.0976   -1.3157 C   0  0  2  0  0  0  0  0  0  0  0  0
    6.2686   -2.6174   -1.9140 C   0  0  0  0  0  0  0  0  0  0  0  0
    4.5003   -2.2862   -0.0775 C   0  0  2  0  0  0  0  0  0  0  0  0
    4.0720   -0.9322   -0.6380 C   0  0  0  0  0  0  0  0  0  0  0  0
    3.5342   -1.2408   -2.0586 C   0  0  0  0  0  0  0  0  0  0  0  0
    3.7629   -2.7525   -2.3074 C   0  0  1  0  0  0  0  0  0  0  0  0
    4.0038   -3.0856   -3.7881 C   0  0  0  0  0  0  0  0  0  0  0  0
    2.5832   -3.4510   -1.9523 O   0  0  0  0  0  0  0  0  0  0  0  0
    4.5663   -4.3786    2.4038 C   0  0  1  0  0  0  0  0  0  0  0  0
    4.7505   -5.8395    2.8941 C   0  0  1  0  0  0  0  0  0  0  0  0
    5.9865   -6.0162    3.5589 O   0  0  0  0  0  0  0  0  0  0  0  0
    3.5792   -6.3102    3.7802 C   0  0  0  0  0  0  0  0  0  0  0  0
    3.2600   -5.4030    4.9998 C   0  0  2  0  0  0  0  0  0  0  0  0
    4.3432   -5.5092    6.1040 C   0  0  0  0  0  0  0  0  0  0  0  0
   -0.3571   -6.7270    7.0325 H   0  0  0  0  0  0  0  0  0  0  0  0
   -0.5633   -8.2093    6.0798 H   0  0  0  0  0  0  0  0  0  0  0  0
   -0.8001   -6.6777    5.3302 H   0  0  0  0  0  0  0  0  0  0  0  0
    1.4392   -7.6563    4.7529 H   0  0  0  0  0  0  0  0  0  0  0  0
    3.1799   -7.9209    6.5714 H   0  0  0  0  0  0  0  0  0  0  0  0
    1.9978   -7.4820    7.7551 H   0  0  0  0  0  0  0  0  0  0  0  0
    2.2964   -9.8843    7.7566 H   0  0  0  0  0  0  0  0  0  0  0  0
    0.7164   -9.6176    7.1237 H   0  0  0  0  0  0  0  0  0  0  0  0
    4.3208  -10.0833    5.9738 H   0  0  0  0  0  0  0  0  0  0  0  0
    4.8815  -11.3785    3.8976 H   0  0  0  0  0  0  0  0  0  0  0  0
    3.0175  -12.2650    2.4855 H   0  0  0  0  0  0  0  0  0  0  0  0
    0.6172  -11.8106    3.2002 H   0  0  0  0  0  0  0  0  0  0  0  0
    1.7658   -5.2076    6.5368 H   0  0  0  0  0  0  0  0  0  0  0  0
    0.4404   -5.4582    3.8719 H   0  0  0  0  0  0  0  0  0  0  0  0
    0.0863   -4.3871    5.2260 H   0  0  0  0  0  0  0  0  0  0  0  0
    1.7278   -3.9569    2.8786 H   0  0  0  0  0  0  0  0  0  0  0  0
    1.3457   -2.7714    4.1177 H   0  0  0  0  0  0  0  0  0  0  0  0
    3.1707   -3.3117    5.4287 H   0  0  0  0  0  0  0  0  0  0  0  0
    5.2099   -3.4266    4.2112 H   0  0  0  0  0  0  0  0  0  0  0  0
    3.1146   -1.8847    2.6318 H   0  0  0  0  0  0  0  0  0  0  0  0
    3.9931   -1.3277    4.0422 H   0  0  0  0  0  0  0  0  0  0  0  0
    6.4919   -1.9750    0.7081 H   0  0  0  0  0  0  0  0  0  0  0  0
    6.6332   -3.8711    2.1274 H   0  0  0  0  0  0  0  0  0  0  0  0
    7.0449   -4.4798   -0.0812 H   0  0  0  0  0  0  0  0  0  0  0  0
    6.1310   -5.7819    0.5494 H   0  0  0  0  0  0  0  0  0  0  0  0
    5.2937   -5.1745   -1.7293 H   0  0  0  0  0  0  0  0  0  0  0  0
    4.0609   -4.9446   -0.5277 H   0  0  0  0  0  0  0  0  0  0  0  0
    6.1958   -1.5987   -2.2916 H   0  0  0  0  0  0  0  0  0  0  0  0
    6.5770   -3.2500   -2.7476 H   0  0  0  0  0  0  0  0  0  0  0  0
    7.0926   -2.6310   -1.2018 H   0  0  0  0  0  0  0  0  0  0  0  0
    3.5796   -2.7218    0.3046 H   0  0  0  0  0  0  0  0  0  0  0  0
    3.3188   -0.4678    0.0022 H   0  0  0  0  0  0  0  0  0  0  0  0
    4.9309   -0.2624   -0.6984 H   0  0  0  0  0  0  0  0  0  0  0  0
    2.4947   -0.9580   -2.2076 H   0  0  0  0  0  0  0  0  0  0  0  0
    4.0900   -0.6342   -2.7753 H   0  0  0  0  0  0  0  0  0  0  0  0
    4.8238   -2.5075   -4.2039 H   0  0  0  0  0  0  0  0  0  0  0  0
    3.1208   -2.8528   -4.3826 H   0  0  0  0  0  0  0  0  0  0  0  0
    4.2276   -4.1427   -3.9277 H   0  0  0  0  0  0  0  0  0  0  0  0
    2.6737   -4.3600   -2.2348 H   0  0  0  0  0  0  0  0  0  0  0  0
    3.6708   -4.3854    1.7855 H   0  0  0  0  0  0  0  0  0  0  0  0
    4.7635   -6.5022    2.0298 H   0  0  0  0  0  0  0  0  0  0  0  0
    6.0898   -6.9377    3.7513 H   0  0  0  0  0  0  0  0  0  0  0  0
    2.7008   -6.3430    3.1370 H   0  0  0  0  0  0  0  0  0  0  0  0
    3.7435   -7.3375    4.1038 H   0  0  0  0  0  0  0  0  0  0  0  0
    5.2412   -4.9504    5.8463 H   0  0  0  0  0  0  0  0  0  0  0  0
    4.6828   -6.5268    6.2679 H   0  0  0  0  0  0  0  0  0  0  0  0
    3.9929   -5.1087    7.0551 H   0  0  0  0  0  0  0  0  0  0  0  0
    0.2238  -10.6090    5.1450 H   0  0  0  0  0  0  0  0  0  0  0  0
  1  2  1  0
  1 37  1  0
  1 38  1  0
  1 39  1  0
  2  3  1  0
  2 11  1  0
  2 40  1  6
  3  4  1  0
  3 41  1  0
  3 42  1  0
  4  5  1  0
  4 43  1  0
  4 44  1  0
  5 10  1  0
  5  6  2  0
  6  7  1  0
  6 45  1  0
  7  8  2  0
  7 46  1  0
  8  9  1  0
  8 47  1  0
  9 10  2  0
  9 48  1  0
 10 84  1  0
 11 35  1  0
 11 12  1  0
 11 49  1  1
 12 13  1  0
 12 50  1  0
 12 51  1  0
 13 14  1  0
 13 52  1  0
 13 53  1  0
 14 35  1  0
 14 15  1  0
 14 54  1  1
 15 31  1  0
 15 16  1  0
 15 55  1  1
 16 17  1  0
 16 56  1  0
 16 57  1  0
 17 18  2  0
 17 19  1  0
 19 25  1  0
 19 20  1  0
 19 58  1  6
 20 21  1  0
 20 31  1  0
 20 59  1  1
 21 22  1  0
 21 60  1  0
 21 61  1  0
 22 23  1  0
 22 62  1  0
 22 63  1  0
 23 28  1  0
 23 24  1  6
 23 25  1  0
 24 64  1  0
 24 65  1  0
 24 66  1  0
 25 26  1  0
 25 67  1  1
 26 27  1  0
 26 68  1  0
 26 69  1  0
 27 28  1  0
 27 70  1  0
 27 71  1  0
 28 29  1  0
 28 30  1  1
 29 72  1  0
 29 73  1  0
 29 74  1  0
 30 75  1  0
 31 32  1  0
 31 76  1  6
 32 33  1  0
 32 34  1  0
 32 77  1  6
 33 78  1  0
 34 35  1  0
 34 79  1  0
 34 80  1  0
 35 36  1  1
 36 81  1  0
 36 82  1  0
 36 83  1  0
M  CHG  1  10   1
M  END
>  <i_m_ct_stereo_status>  (261) 
1

>  <s_m_source_file>  (261) 
/var/tmp/pbs.5076255.sched01/tmple0dc7g8/88jbw3zpwn.sdf

>  <i_m_source_file_index>  (261) 
40

>  <i_lp_mmshare_version>  (261) 
48012

>  <i_f3d_flags>  (261) 
0

>  <s_epik_input>  (261) 
bjFbY0hdW2NIXVtjSF1bY0hdYzFbQ0gyXVtDSDJdW0NAQEhdKFtDSDNdKVtDQEhdKFtDSDJdW0NIMl0yKVtDQEBdKFtDSDNdKShbQ0gyXVtDQEBIXTNbT0hdKVtDQEhdMltDQEhdKFtDSDJdQzQ9TylbQ0BIXTNbQ0BASF0oW0NIMl1bQ0gyXTUpW0NASF00W0NASF0oW0NAQF01NltDSDNdKVtDSDJdW0NIMl1bQ0BdNihbQ0gzXSlbT0hd

>  <s_epik_cmdline>  (261) 
J2VwaWtfcHl0aG9uJywgJy1waHQnLCAnMi4wJywgJy1waCcsICc3LjAnLCAnLXRuJywgJzgnLCAnLW1hJywgJzIwMCcsICctaW1hZScsICc8aW5maWxlLm1hZT4nLCAnLW9tYWUnLCAnPG91dGZpbGUubWFlPic=

>  <r_lp_tautomer_probability>  (261) 
1

>  <r_epik_Ionization_Penalty>  (261) 
1.6583

>  <r_epik_Ionization_Penalty_Charging>  (261) 
1.6583

>  <r_epik_Ionization_Penalty_Neutral>  (261) 
3.21212e-06

>  <r_epik_State_Penalty>  (261) 
1.76096

>  <r_epik_Charging_Adjusted_Penalty>  (261) 
3.41926

>  <i_epik_Tot_Q>  (261) 
1

>  <i_epik_Tot_abs_Q>  (261) 
1

>  <s_lp_Force_Field>  (261) 
OPLS3e

>  <r_lp_Energy>  (261) 
68.5226

>  <b_lp_Chiralities_Consistent>  (261) 
1

>  <s_lp_Variant>  (261) 
79:0-2

>  <s_i_glide_gridfile>  (261) 
pfpi4k_grid

>  <i_i_glide_lignum>  (261) 
40

>  <i_i_glide_rotatable_bonds>  (261) 
6

>  <r_i_docking_score>  (261) 
-3.35234

>  <r_i_glide_ligand_efficiency>  (261) 
-0.0931206

>  <r_i_glide_ligand_efficiency_sa>  (261) 
-0.307477

>  <r_i_glide_ligand_efficiency_ln>  (261) 
-0.73139

>  <r_i_glide_gscore>  (261) 
-3.35234

>  <r_i_glide_lipo>  (261) 
-0.547413

>  <r_i_glide_hbond>  (261) 
-0.434905

>  <r_i_glide_metal>  (261) 
-0

>  <r_i_glide_rewards>  (261) 
-0.169823

>  <r_i_glide_evdw>  (261) 
-26.9318

>  <r_i_glide_ecoul>  (261) 
-7.0514

>  <r_i_glide_erotb>  (261) 
0.249805

>  <r_i_glide_esite>  (261) 
-0.0457071

>  <r_i_glide_emodel>  (261) 
-43.1678

>  <r_i_glide_energy>  (261) 
-33.9832

>  <r_i_glide_einternal>  (261) 
3.06488

>  <r_i_glide_intrahb_reward>  (261) 
-0

>  <i_i_glide_confnum>  (261) 
4

>  <i_i_glide_posenum>  (261) 
17

>  <r_i_glide_eff_state_penalty>  (261) 
0

>  <ligand_id>  (261) 
79

>  <original_smiles>  (261) 
CC(CCc1ccccn1)C1CCC2C3CC(=O)C4C(CCC5(C)C4CCC5(C)O)C3C(O)CC12C

>  <smiles>  (261) 
[H]OC1([H])C([H])([H])C2(C([H])([H])[H])C([H])(C([H])(C([H])([H])[H])C([H])([H])C([H])([H])c3c([H])c([H])c([H])c([H])[n+]3[H])C([H])([H])C([H])([H])C2([H])C2([H])C([H])([H])C(=O)C3([H])C([H])(C([H])([H])C([H])([H])C4(C([H])([H])[H])C3([H])C([H])([H])C([H])([H])C4(O[H])C([H])([H])[H])C12[H]

$$$$
80:0:0
     RDKit          3D

 63 69  0  0  1  0  0  0  0  0999 V2000
   -1.2982   -7.6427    3.3100 C   0  0  0  0  0  0  0  0  0  0  0  0
   -0.0305   -8.2674    2.7162 C   0  0  0  0  0  0  0  0  0  0  0  0
    1.2776   -8.0133    3.5148 C   0  0  2  0  0  0  0  0  0  0  0  0
    2.6018   -8.5673    2.7372 C   0  0  1  0  0  0  0  0  0  0  0  0
    3.4472   -7.4452    2.1025 C   0  0  0  0  0  0  0  0  0  0  0  0
    4.1953   -7.6937    0.9266 C   0  0  0  0  0  0  0  0  0  0  0  0
    4.9276   -6.7373    0.3315 N   0  0  0  0  0  0  0  0  0  0  0  0
    4.9249   -5.5314    0.8788 C   0  0  0  0  0  0  0  0  0  0  0  0
    4.2782   -5.1726    1.9828 N   0  0  0  0  0  0  0  0  0  0  0  0
    3.5495   -6.1229    2.5996 C   0  0  0  0  0  0  0  0  0  0  0  0
    3.5978   -9.6822    3.4001 C   0  0  2  0  0  0  0  0  0  0  0  0
    3.1712  -11.0524    3.0112 N   0  0  1  0  0  0  0  0  0  0  0  0
    3.9592  -12.0322    3.7933 C   0  0  0  0  0  0  0  0  0  0  0  0
    4.5895  -11.2856    4.9730 C   0  0  0  0  0  0  0  0  0  0  0  0
    3.9463   -9.8963    4.9659 C   0  0  1  0  0  0  0  0  0  0  0  0
    4.6135   -8.8528    6.0483 C   0  0  1  0  0  0  0  0  0  0  0  0
    5.8523   -8.1399    5.4807 C   0  0  0  0  0  0  0  0  0  0  0  0
    6.4835   -7.3817    6.4920 O   0  0  0  0  0  0  0  0  0  0  0  0
    3.4605   -7.8369    6.5626 C   0  0  2  0  0  0  0  0  0  0  0  0
    2.5088   -7.9132    7.7854 C   0  0  0  0  0  0  0  0  0  0  0  0
    1.1541   -7.1863    7.4349 C   0  0  0  0  0  0  0  0  0  0  0  0
    0.4949   -7.4158    6.0026 C   0  0  0  0  0  0  0  0  0  0  0  0
    1.2418   -8.3817    5.0403 C   0  0  2  0  0  0  0  0  0  0  0  0
    2.6434   -8.3418    5.5199 C   0  0  2  0  0  0  0  0  0  0  0  0
    2.6836   -9.8424    5.6559 C   0  0  1  0  0  0  0  0  0  0  0  0
    1.2230   -9.9388    5.2871 C   0  0  1  0  0  0  0  0  0  0  0  0
    0.3984  -10.2480    6.3963 O   0  0  0  0  0  0  0  0  0  0  0  0
    0.8925  -11.0938    4.3127 C   0  0  0  0  0  0  0  0  0  0  0  0
    1.6975  -11.3048    3.0052 C   0  0  0  0  0  0  0  0  0  0  0  0
   -2.1272   -7.7125    2.6061 H   0  0  0  0  0  0  0  0  0  0  0  0
   -1.1474   -6.5929    3.5560 H   0  0  0  0  0  0  0  0  0  0  0  0
   -1.6031   -8.1693    4.2132 H   0  0  0  0  0  0  0  0  0  0  0  0
   -0.2343   -9.3206    2.5543 H   0  0  0  0  0  0  0  0  0  0  0  0
    0.1117   -7.8509    1.7173 H   0  0  0  0  0  0  0  0  0  0  0  0
    1.3054   -6.9273    3.4890 H   0  0  0  0  0  0  0  0  0  0  0  0
    2.2247   -9.0018    1.8118 H   0  0  0  0  0  0  0  0  0  0  0  0
    4.1999   -8.6600    0.4400 H   0  0  0  0  0  0  0  0  0  0  0  0
    5.5281   -4.7819    0.3953 H   0  0  0  0  0  0  0  0  0  0  0  0
    3.0483   -5.7869    3.4944 H   0  0  0  0  0  0  0  0  0  0  0  0
    4.5646   -9.5676    2.9106 H   0  0  0  0  0  0  0  0  0  0  0  0
    3.3710  -12.8833    4.1275 H   0  0  0  0  0  0  0  0  0  0  0  0
    4.7451  -12.4342    3.1540 H   0  0  0  0  0  0  0  0  0  0  0  0
    4.4437  -11.8254    5.9133 H   0  0  0  0  0  0  0  0  0  0  0  0
    5.6658  -11.1875    4.8067 H   0  0  0  0  0  0  0  0  0  0  0  0
    4.9438   -9.4302    6.9163 H   0  0  0  0  0  0  0  0  0  0  0  0
    6.5693   -8.8741    5.1132 H   0  0  0  0  0  0  0  0  0  0  0  0
    5.5834   -7.4941    4.6426 H   0  0  0  0  0  0  0  0  0  0  0  0
    5.8816   -6.7231    6.8040 H   0  0  0  0  0  0  0  0  0  0  0  0
    3.7526   -6.7950    6.4047 H   0  0  0  0  0  0  0  0  0  0  0  0
    2.2810   -8.9299    8.1116 H   0  0  0  0  0  0  0  0  0  0  0  0
    2.9647   -7.4472    8.6571 H   0  0  0  0  0  0  0  0  0  0  0  0
    0.4259   -7.4266    8.2086 H   0  0  0  0  0  0  0  0  0  0  0  0
    1.3231   -6.1135    7.5551 H   0  0  0  0  0  0  0  0  0  0  0  0
   -0.5280   -7.7541    6.1331 H   0  0  0  0  0  0  0  0  0  0  0  0
    0.4001   -6.4325    5.5415 H   0  0  0  0  0  0  0  0  0  0  0  0
    3.1332   -7.7520    4.7589 H   0  0  0  0  0  0  0  0  0  0  0  0
    2.7720  -10.2722    6.6519 H   0  0  0  0  0  0  0  0  0  0  0  0
    0.7293  -11.0825    6.7805 H   0  0  0  0  0  0  0  0  0  0  0  0
    0.9799  -12.0306    4.8708 H   0  0  0  0  0  0  0  0  0  0  0  0
   -0.1661  -11.0498    4.0518 H   0  0  0  0  0  0  0  0  0  0  0  0
    1.2250  -10.7620    2.2006 H   0  0  0  0  0  0  0  0  0  0  0  0
    1.5590  -12.3398    2.7175 H   0  0  0  0  0  0  0  0  0  0  0  0
    3.4493  -11.2067    2.0477 H   0  0  0  0  0  0  0  0  0  0  0  0
  1  2  1  0
  1 30  1  0
  1 31  1  0
  1 32  1  0
  2  3  1  0
  2 33  1  0
  2 34  1  0
  3 23  1  0
  3  4  1  0
  3 35  1  1
  4  5  1  0
  4 11  1  0
  4 36  1  6
  5 10  1  0
  5  6  2  0
  6  7  1  0
  6 37  1  0
  7  8  2  0
  8  9  1  0
  8 38  1  0
  9 10  2  0
 10 39  1  0
 11 15  1  0
 11 12  1  0
 11 40  1  6
 12 29  1  0
 12 13  1  0
 12 63  1  6
 13 14  1  0
 13 41  1  0
 13 42  1  0
 15 14  1  6
 14 43  1  0
 14 44  1  0
 15 25  1  0
 15 16  1  0
 16 17  1  0
 16 19  1  0
 16 45  1  1
 17 18  1  0
 17 46  1  0
 17 47  1  0
 18 48  1  0
 19 24  1  0
 19 20  1  0
 19 49  1  6
 20 21  1  0
 20 50  1  0
 20 51  1  0
 21 22  1  0
 21 52  1  0
 21 53  1  0
 23 22  1  1
 22 54  1  0
 22 55  1  0
 23 26  1  0
 23 24  1  0
 24 25  1  0
 24 56  1  6
 25 26  1  0
 25 57  1  1
 26 27  1  1
 26 28  1  0
 27 58  1  0
 28 29  1  0
 28 59  1  0
 28 60  1  0
 29 61  1  0
 29 62  1  0
M  CHG  1  12   1
M  END
>  <i_m_ct_stereo_status>  (262) 
1

>  <s_m_source_file>  (262) 
/var/tmp/pbs.5076255.sched01/tmple0dc7g8/88jbw3zpwn.sdf

>  <i_m_source_file_index>  (262) 
41

>  <i_lp_mmshare_version>  (262) 
48012

>  <i_f3d_flags>  (262) 
0

>  <s_epik_input>  (262) 
W0NIMl0xW0NIMl1OKFtDQEBIXTJbQ0BAXTEzNClbQ0gyXVtDSDJdW0NAXTUoW09IXSlbQ0BAXTYoW0NASF0oW0NASF00NSlbQ0BIXShbQ0BASF0zW0NIMl1bT0hdKVtDSDJdW0NIMl1bQ0gyXTYpW0NASF0oW0NIMl1bQ0gzXSlbQ0BIXTJjN1tjSF1uW2NIXW5bY0hdNw==

>  <s_epik_cmdline>  (262) 
J2VwaWtfcHl0aG9uJywgJy1waHQnLCAnMi4wJywgJy1waCcsICc3LjAnLCAnLXRuJywgJzgnLCAnLW1hJywgJzIwMCcsICctaW1hZScsICc8aW5maWxlLm1hZT4nLCAnLW9tYWUnLCAnPG91dGZpbGUubWFlPic=

>  <r_lp_tautomer_probability>  (262) 
1

>  <r_epik_Ionization_Penalty>  (262) 
0.000660211

>  <r_epik_Ionization_Penalty_Charging>  (262) 
0.000659377

>  <r_epik_Ionization_Penalty_Neutral>  (262) 
8.33934e-07

>  <r_epik_State_Penalty>  (262) 
0.00041794

>  <r_epik_Charging_Adjusted_Penalty>  (262) 
0.00107732

>  <i_epik_Tot_Q>  (262) 
1

>  <i_epik_Tot_abs_Q>  (262) 
1

>  <s_epik_Chemistry_Notes>  (262) 
This compound contains an electron-poor aromatic ring that is susceptible to covalent hydrolysis at low pH, typically resulting in measured values for nitrogen ring protonation that are around two units higher than predicted values.

>  <s_lp_Force_Field>  (262) 
OPLS3e

>  <r_lp_Energy>  (262) 
216.549

>  <b_lp_Chiralities_Consistent>  (262) 
1

>  <s_lp_Variant>  (262) 
80:0-1

>  <s_i_glide_gridfile>  (262) 
pfpi4k_grid

>  <i_i_glide_lignum>  (262) 
41

>  <i_i_glide_rotatable_bonds>  (262) 
5

>  <r_i_docking_score>  (262) 
-3.21123

>  <r_i_glide_ligand_efficiency>  (262) 
-0.110732

>  <r_i_glide_ligand_efficiency_sa>  (262) 
-0.340204

>  <r_i_glide_ligand_efficiency_ln>  (262) 
-0.735289

>  <r_i_glide_gscore>  (262) 
-3.21123

>  <r_i_glide_lipo>  (262) 
-0.220239

>  <r_i_glide_hbond>  (262) 
-0.346037

>  <r_i_glide_metal>  (262) 
-0

>  <r_i_glide_rewards>  (262) 
-0.8085

>  <r_i_glide_evdw>  (262) 
-16.4462

>  <r_i_glide_ecoul>  (262) 
-8.06973

>  <r_i_glide_erotb>  (262) 
0.248853

>  <r_i_glide_esite>  (262) 
-0.0525367

>  <r_i_glide_emodel>  (262) 
-31.6032

>  <r_i_glide_energy>  (262) 
-24.5159

>  <r_i_glide_einternal>  (262) 
1.70543

>  <r_i_glide_intrahb_reward>  (262) 
-0

>  <i_i_glide_confnum>  (262) 
2

>  <i_i_glide_posenum>  (262) 
7

>  <r_i_glide_eff_state_penalty>  (262) 
0

>  <ligand_id>  (262) 
80

>  <original_smiles>  (262) 
CCC1C(c2cncnc2)C2N3CCC24C(CO)C2CCCC15C2C4C5(O)CC3

>  <smiles>  (262) 
[H]OC([H])([H])C1([H])C2([H])C([H])([H])C([H])([H])C([H])([H])C34C([H])(C([H])([H])C([H])([H])[H])C([H])(c5c([H])nc([H])nc5[H])C5([H])C16C([H])([H])C([H])([H])[N+]5([H])C([H])([H])C([H])([H])C3(O[H])C6([H])C24[H]

$$$$
80:0:1
     RDKit          3D

 63 69  0  0  1  0  0  0  0  0999 V2000
   -0.1547   -6.8730    2.3865 C   0  0  0  0  0  0  0  0  0  0  0  0
    0.9891   -7.8778    2.2582 C   0  0  0  0  0  0  0  0  0  0  0  0
    2.0585   -7.8322    3.3816 C   0  0  2  0  0  0  0  0  0  0  0  0
    3.3560   -8.7597    3.0410 C   0  0  1  0  0  0  0  0  0  0  0  0
    4.5507   -7.9019    2.5680 C   0  0  0  0  0  0  0  0  0  0  0  0
    4.5803   -7.3000    1.2782 C   0  0  0  0  0  0  0  0  0  0  0  0
    5.6467   -6.5908    0.8247 N   0  0  0  0  0  0  0  0  0  0  0  0
    6.6910   -6.4809    1.6775 C   0  0  0  0  0  0  0  0  0  0  0  0
    6.7543   -7.0373    2.8872 N   0  0  0  0  0  0  0  0  0  0  0  0
    5.7226   -7.7668    3.3265 C   0  0  0  0  0  0  0  0  0  0  0  0
    3.8065   -9.9881    4.0403 C   0  0  2  0  0  0  0  0  0  0  0  0
    3.1697  -11.2686    3.6256 N   0  0  1  0  0  0  0  0  0  0  0  0
    3.4552  -12.3004    4.6520 C   0  0  0  0  0  0  0  0  0  0  0  0
    3.9110  -11.5763    5.9195 C   0  0  0  0  0  0  0  0  0  0  0  0
    3.6530  -10.0940    5.6627 C   0  0  1  0  0  0  0  0  0  0  0  0
    4.2337   -9.1274    6.8765 C   0  0  1  0  0  0  0  0  0  0  0  0
    5.7371   -8.7894    6.7671 C   0  0  0  0  0  0  0  0  0  0  0  0
    6.2119   -8.1434    7.9247 O   0  0  0  0  0  0  0  0  0  0  0  0
    3.2781   -7.8152    6.9534 C   0  0  2  0  0  0  0  0  0  0  0  0
    2.0284   -7.5241    7.8291 C   0  0  0  0  0  0  0  0  0  0  0  0
    1.0579   -6.5476    7.0636 C   0  0  0  0  0  0  0  0  0  0  0  0
    0.7740   -6.7905    5.5159 C   0  0  0  0  0  0  0  0  0  0  0  0
    1.4955   -8.0084    4.8443 C   0  0  2  0  0  0  0  0  0  0  0  0
    2.6716   -8.2425    5.7296 C   0  0  2  0  0  0  0  0  0  0  0  0
    2.2914   -9.6851    5.9250 C   0  0  1  0  0  0  0  0  0  0  0  0
    1.0166   -9.4756    5.1462 C   0  0  1  0  0  0  0  0  0  0  0  0
   -0.1426   -9.4660    5.9685 O   0  0  0  0  0  0  0  0  0  0  0  0
    0.6870  -10.6414    4.1874 C   0  0  0  0  0  0  0  0  0  0  0  0
    1.7381  -11.1897    3.1896 C   0  0  0  0  0  0  0  0  0  0  0  0
   -0.7447   -6.8538    1.4714 H   0  0  0  0  0  0  0  0  0  0  0  0
    0.2255   -5.8690    2.5698 H   0  0  0  0  0  0  0  0  0  0  0  0
   -0.8290   -7.1481    3.1952 H   0  0  0  0  0  0  0  0  0  0  0  0
    0.5523   -8.8616    2.1233 H   0  0  0  0  0  0  0  0  0  0  0  0
    1.4950   -7.6788    1.3192 H   0  0  0  0  0  0  0  0  0  0  0  0
    2.4495   -6.8177    3.3419 H   0  0  0  0  0  0  0  0  0  0  0  0
    3.1425   -9.2611    2.0890 H   0  0  0  0  0  0  0  0  0  0  0  0
    3.7631   -7.4364    0.5526 H   0  0  0  0  0  0  0  0  0  0  0  0
    7.5803   -5.9207    1.3465 H   0  0  0  0  0  0  0  0  0  0  0  0
    5.8883   -8.3764    4.1715 H   0  0  0  0  0  0  0  0  0  0  0  0
    4.8515  -10.1989    3.8450 H   0  0  0  0  0  0  0  0  0  0  0  0
    2.6004  -12.9510    4.8482 H   0  0  0  0  0  0  0  0  0  0  0  0
    4.2488  -12.9554    4.2877 H   0  0  0  0  0  0  0  0  0  0  0  0
    3.4238  -11.9755    6.8103 H   0  0  0  0  0  0  0  0  0  0  0  0
    4.9771  -11.7499    6.0578 H   0  0  0  0  0  0  0  0  0  0  0  0
    4.0745   -9.6752    7.8216 H   0  0  0  0  0  0  0  0  0  0  0  0
    6.3077   -9.6882    6.5230 H   0  0  0  0  0  0  0  0  0  0  0  0
    5.8878   -7.9724    6.0829 H   0  0  0  0  0  0  0  0  0  0  0  0
    6.1882   -8.6921    8.6906 H   0  0  0  0  0  0  0  0  0  0  0  0
    3.8607   -6.8973    6.8369 H   0  0  0  0  0  0  0  0  0  0  0  0
    1.4682   -8.4173    8.1126 H   0  0  0  0  0  0  0  0  0  0  0  0
    2.3313   -7.0837    8.7721 H   0  0  0  0  0  0  0  0  0  0  0  0
    0.1130   -6.5243    7.6014 H   0  0  0  0  0  0  0  0  0  0  0  0
    1.4476   -5.5336    7.1793 H   0  0  0  0  0  0  0  0  0  0  0  0
   -0.3037   -6.8583    5.3783 H   0  0  0  0  0  0  0  0  0  0  0  0
    1.0619   -5.8752    4.9993 H   0  0  0  0  0  0  0  0  0  0  0  0
    3.4838   -7.8776    5.1215 H   0  0  0  0  0  0  0  0  0  0  0  0
    1.9863   -9.9880    6.9154 H   0  0  0  0  0  0  0  0  0  0  0  0
   -0.7663  -10.0874    5.6471 H   0  0  0  0  0  0  0  0  0  0  0  0
    0.3919  -11.5029    4.7853 H   0  0  0  0  0  0  0  0  0  0  0  0
   -0.2053  -10.4049    3.6133 H   0  0  0  0  0  0  0  0  0  0  0  0
    1.6723  -10.6619    2.2477 H   0  0  0  0  0  0  0  0  0  0  0  0
    1.4434  -12.2004    2.9116 H   0  0  0  0  0  0  0  0  0  0  0  0
    3.6546  -11.5747    2.7814 H   0  0  0  0  0  0  0  0  0  0  0  0
  1  2  1  0
  1 30  1  0
  1 31  1  0
  1 32  1  0
  2  3  1  0
  2 33  1  0
  2 34  1  0
  3 23  1  0
  3  4  1  0
  3 35  1  1
  4  5  1  0
  4 11  1  0
  4 36  1  6
  5 10  1  0
  5  6  2  0
  6  7  1  0
  6 37  1  0
  7  8  2  0
  8  9  1  0
  8 38  1  0
  9 10  2  0
 10 39  1  0
 11 15  1  0
 11 12  1  0
 11 40  1  1
 12 29  1  0
 12 13  1  0
 12 63  1  6
 13 14  1  0
 13 41  1  0
 13 42  1  0
 15 14  1  1
 14 43  1  0
 14 44  1  0
 15 25  1  0
 15 16  1  0
 16 17  1  0
 16 19  1  0
 16 45  1  1
 17 18  1  0
 17 46  1  0
 17 47  1  0
 18 48  1  0
 19 24  1  0
 19 20  1  0
 19 49  1  6
 20 21  1  0
 20 50  1  0
 20 51  1  0
 21 22  1  0
 21 52  1  0
 21 53  1  0
 23 22  1  1
 22 54  1  0
 22 55  1  0
 23 26  1  0
 23 24  1  0
 24 25  1  0
 24 56  1  6
 25 26  1  0
 25 57  1  1
 26 27  1  1
 26 28  1  0
 27 58  1  0
 28 29  1  0
 28 59  1  0
 28 60  1  0
 29 61  1  0
 29 62  1  0
M  CHG  1  12   1
M  END
>  <i_m_ct_stereo_status>  (263) 
1

>  <s_m_source_file>  (263) 
/var/tmp/pbs.5076255.sched01/tmple0dc7g8/88jbw3zpwn.sdf

>  <i_m_source_file_index>  (263) 
41

>  <i_lp_mmshare_version>  (263) 
48012

>  <i_f3d_flags>  (263) 
0

>  <s_epik_input>  (263) 
W0NIMl0xW0NIMl1OKFtDQEBIXTJbQ0BAXTEzNClbQ0gyXVtDSDJdW0NAXTUoW09IXSlbQ0BAXTYoW0NASF0oW0NASF00NSlbQ0BIXShbQ0BASF0zW0NIMl1bT0hdKVtDSDJdW0NIMl1bQ0gyXTYpW0NASF0oW0NIMl1bQ0gzXSlbQ0BIXTJjN1tjSF1uW2NIXW5bY0hdNw==

>  <s_epik_cmdline>  (263) 
J2VwaWtfcHl0aG9uJywgJy1waHQnLCAnMi4wJywgJy1waCcsICc3LjAnLCAnLXRuJywgJzgnLCAnLW1hJywgJzIwMCcsICctaW1hZScsICc8aW5maWxlLm1hZT4nLCAnLW9tYWUnLCAnPG91dGZpbGUubWFlPic=

>  <r_lp_tautomer_probability>  (263) 
1

>  <r_epik_Ionization_Penalty>  (263) 
0.000660211

>  <r_epik_Ionization_Penalty_Charging>  (263) 
0.000659377

>  <r_epik_Ionization_Penalty_Neutral>  (263) 
8.33934e-07

>  <r_epik_State_Penalty>  (263) 
0.00041794

>  <r_epik_Charging_Adjusted_Penalty>  (263) 
0.00107732

>  <i_epik_Tot_Q>  (263) 
1

>  <i_epik_Tot_abs_Q>  (263) 
1

>  <s_epik_Chemistry_Notes>  (263) 
This compound contains an electron-poor aromatic ring that is susceptible to covalent hydrolysis at low pH, typically resulting in measured values for nitrogen ring protonation that are around two units higher than predicted values.

>  <s_lp_Force_Field>  (263) 
OPLS3e

>  <r_lp_Energy>  (263) 
216.549

>  <b_lp_Chiralities_Consistent>  (263) 
1

>  <s_lp_Variant>  (263) 
80:0-1

>  <s_i_glide_gridfile>  (263) 
pfpi4k_grid

>  <i_i_glide_lignum>  (263) 
41

>  <i_i_glide_rotatable_bonds>  (263) 
5

>  <r_i_docking_score>  (263) 
-3.0178

>  <r_i_glide_ligand_efficiency>  (263) 
-0.104062

>  <r_i_glide_ligand_efficiency_sa>  (263) 
-0.319712

>  <r_i_glide_ligand_efficiency_ln>  (263) 
-0.690999

>  <r_i_glide_gscore>  (263) 
-3.0178

>  <r_i_glide_lipo>  (263) 
-0.230478

>  <r_i_glide_hbond>  (263) 
-0.16

>  <r_i_glide_metal>  (263) 
-0

>  <r_i_glide_rewards>  (263) 
-0.805387

>  <r_i_glide_evdw>  (263) 
-18.2825

>  <r_i_glide_ecoul>  (263) 
-7.54151

>  <r_i_glide_erotb>  (263) 
0.248853

>  <r_i_glide_esite>  (263) 
-0.0254373

>  <r_i_glide_emodel>  (263) 
-31.0549

>  <r_i_glide_energy>  (263) 
-25.824

>  <r_i_glide_einternal>  (263) 
1.86277

>  <r_i_glide_intrahb_reward>  (263) 
-0

>  <i_i_glide_confnum>  (263) 
2

>  <i_i_glide_posenum>  (263) 
36

>  <r_i_glide_eff_state_penalty>  (263) 
0

>  <ligand_id>  (263) 
80

>  <original_smiles>  (263) 
CCC1C(c2cncnc2)C2N3CCC24C(CO)C2CCCC15C2C4C5(O)CC3

>  <smiles>  (263) 
[H]OC([H])([H])C1([H])C2([H])C([H])([H])C([H])([H])C([H])([H])C34C([H])(C([H])([H])C([H])([H])[H])C([H])(c5c([H])nc([H])nc5[H])C5([H])C16C([H])([H])C([H])([H])[N+]5([H])C([H])([H])C([H])([H])C3(O[H])C6([H])C24[H]

$$$$
80:0:2
     RDKit          3D

 63 69  0  0  1  0  0  0  0  0999 V2000
   -1.5403   -7.9561    2.5327 C   0  0  0  0  0  0  0  0  0  0  0  0
   -0.0965   -8.3074    2.1701 C   0  0  0  0  0  0  0  0  0  0  0  0
    1.0029   -7.7078    3.0840 C   0  0  2  0  0  0  0  0  0  0  0  0
    2.4957   -8.2265    2.6749 C   0  0  1  0  0  0  0  0  0  0  0  0
    3.3181   -7.1541    1.9300 C   0  0  0  0  0  0  0  0  0  0  0  0
    4.2293   -7.5359    0.9151 C   0  0  0  0  0  0  0  0  0  0  0  0
    4.9671   -6.6318    0.2461 N   0  0  0  0  0  0  0  0  0  0  0  0
    4.7936   -5.3557    0.5487 C   0  0  0  0  0  0  0  0  0  0  0  0
    3.9790   -4.8691    1.4830 N   0  0  0  0  0  0  0  0  0  0  0  0
    3.2484   -5.7632    2.1787 C   0  0  0  0  0  0  0  0  0  0  0  0
    3.4676   -9.0173    3.7287 C   0  0  2  0  0  0  0  0  0  0  0  0
    3.2727  -10.4889    3.6087 N   0  0  1  0  0  0  0  0  0  0  0  0
    3.9961  -11.1591    4.7149 C   0  0  0  0  0  0  0  0  0  0  0  0
    4.3120  -10.0928    5.7687 C   0  0  0  0  0  0  0  0  0  0  0  0
    3.5320   -8.8460    5.3372 C   0  0  1  0  0  0  0  0  0  0  0  0
    3.8732   -7.5124    6.2356 C   0  0  1  0  0  0  0  0  0  0  0  0
    5.1173   -6.7655    5.7187 C   0  0  0  0  0  0  0  0  0  0  0  0
    5.4680   -5.7285    6.6116 O   0  0  0  0  0  0  0  0  0  0  0  0
    2.5406   -6.5925    6.3045 C   0  0  2  0  0  0  0  0  0  0  0  0
    1.3953   -6.5391    7.3474 C   0  0  0  0  0  0  0  0  0  0  0  0
    0.0626   -6.1027    6.6288 C   0  0  0  0  0  0  0  0  0  0  0  0
   -0.3005   -6.7316    5.2119 C   0  0  0  0  0  0  0  0  0  0  0  0
    0.7112   -7.7586    4.6229 C   0  0  2  0  0  0  0  0  0  0  0  0
    1.9887   -7.4185    5.2945 C   0  0  2  0  0  0  0  0  0  0  0  0
    2.1626   -8.8375    5.7845 C   0  0  1  0  0  0  0  0  0  0  0  0
    0.8191   -9.2188    5.2102 C   0  0  1  0  0  0  0  0  0  0  0  0
   -0.1650   -9.4515    6.2052 O   0  0  0  0  0  0  0  0  0  0  0  0
    0.8025  -10.5912    4.4813 C   0  0  0  0  0  0  0  0  0  0  0  0
    1.8729  -10.9721    3.4201 C   0  0  0  0  0  0  0  0  0  0  0  0
   -2.2113   -8.2915    1.7449 H   0  0  0  0  0  0  0  0  0  0  0  0
   -1.6719   -6.8830    2.6576 H   0  0  0  0  0  0  0  0  0  0  0  0
   -1.8459   -8.4621    3.4487 H   0  0  0  0  0  0  0  0  0  0  0  0
   -0.0440   -9.3897    2.1052 H   0  0  0  0  0  0  0  0  0  0  0  0
    0.0997   -7.9448    1.1604 H   0  0  0  0  0  0  0  0  0  0  0  0
    0.9376   -6.6548    2.8153 H   0  0  0  0  0  0  0  0  0  0  0  0
    2.3392   -8.8991    1.8341 H   0  0  0  0  0  0  0  0  0  0  0  0
    4.3767   -8.5676    0.6312 H   0  0  0  0  0  0  0  0  0  0  0  0
    5.3913   -4.6430    0.0033 H   0  0  0  0  0  0  0  0  0  0  0  0
    2.6017   -5.3332    2.9306 H   0  0  0  0  0  0  0  0  0  0  0  0
    4.4936   -8.8615    3.3805 H   0  0  0  0  0  0  0  0  0  0  0  0
    3.4360  -11.9939    5.1398 H   0  0  0  0  0  0  0  0  0  0  0  0
    4.9306  -11.5644    4.3226 H   0  0  0  0  0  0  0  0  0  0  0  0
    4.0525  -10.4337    6.7740 H   0  0  0  0  0  0  0  0  0  0  0  0
    5.3845   -9.8760    5.7593 H   0  0  0  0  0  0  0  0  0  0  0  0
    4.0984   -7.8353    7.2573 H   0  0  0  0  0  0  0  0  0  0  0  0
    5.9633   -7.4502    5.6413 H   0  0  0  0  0  0  0  0  0  0  0  0
    4.9422   -6.3467    4.7261 H   0  0  0  0  0  0  0  0  0  0  0  0
    6.2626   -5.3166    6.3071 H   0  0  0  0  0  0  0  0  0  0  0  0
    2.7535   -5.5761    5.9618 H   0  0  0  0  0  0  0  0  0  0  0  0
    1.2195   -7.4870    7.8577 H   0  0  0  0  0  0  0  0  0  0  0  0
    1.6310   -5.8385    8.1490 H   0  0  0  0  0  0  0  0  0  0  0  0
   -0.7618   -6.2622    7.3205 H   0  0  0  0  0  0  0  0  0  0  0  0
    0.1049   -5.0182    6.5055 H   0  0  0  0  0  0  0  0  0  0  0  0
   -1.2955   -7.1658    5.2672 H   0  0  0  0  0  0  0  0  0  0  0  0
   -0.4055   -5.8953    4.5207 H   0  0  0  0  0  0  0  0  0  0  0  0
    2.5545   -6.9325    4.5077 H   0  0  0  0  0  0  0  0  0  0  0  0
    2.1099   -9.0356    6.8584 H   0  0  0  0  0  0  0  0  0  0  0  0
   -0.8372   -9.9895    5.7999 H   0  0  0  0  0  0  0  0  0  0  0  0
    0.8912  -11.3630    5.2533 H   0  0  0  0  0  0  0  0  0  0  0  0
   -0.1828  -10.7601    4.0396 H   0  0  0  0  0  0  0  0  0  0  0  0
    1.5285  -10.7056    2.4305 H   0  0  0  0  0  0  0  0  0  0  0  0
    1.9110  -12.0622    3.3736 H   0  0  0  0  0  0  0  0  0  0  0  0
    3.7345  -10.7770    2.7591 H   0  0  0  0  0  0  0  0  0  0  0  0
  1  2  1  0
  1 30  1  0
  1 31  1  0
  1 32  1  0
  2  3  1  0
  2 33  1  0
  2 34  1  0
  3 23  1  0
  3  4  1  0
  3 35  1  6
  4  5  1  0
  4 11  1  0
  4 36  1  6
  5 10  1  0
  5  6  2  0
  6  7  1  0
  6 37  1  0
  7  8  2  0
  8  9  1  0
  8 38  1  0
  9 10  2  0
 10 39  1  0
 11 15  1  0
 11 12  1  0
 11 40  1  6
 12 29  1  0
 12 13  1  0
 12 63  1  6
 13 14  1  0
 13 41  1  0
 13 42  1  0
 15 14  1  1
 14 43  1  0
 14 44  1  0
 15 25  1  0
 15 16  1  0
 16 17  1  0
 16 19  1  0
 16 45  1  1
 17 18  1  0
 17 46  1  0
 17 47  1  0
 18 48  1  0
 19 24  1  0
 19 20  1  0
 19 49  1  6
 20 21  1  0
 20 50  1  0
 20 51  1  0
 21 22  1  0
 21 52  1  0
 21 53  1  0
 23 22  1  6
 22 54  1  0
 22 55  1  0
 23 26  1  0
 23 24  1  0
 24 25  1  0
 24 56  1  6
 25 26  1  0
 25 57  1  1
 26 27  1  1
 26 28  1  0
 27 58  1  0
 28 29  1  0
 28 59  1  0
 28 60  1  0
 29 61  1  0
 29 62  1  0
M  CHG  1  12   1
M  END
>  <i_m_ct_stereo_status>  (264) 
1

>  <s_m_source_file>  (264) 
/var/tmp/pbs.5076255.sched01/tmple0dc7g8/88jbw3zpwn.sdf

>  <i_m_source_file_index>  (264) 
41

>  <i_lp_mmshare_version>  (264) 
48012

>  <i_f3d_flags>  (264) 
0

>  <s_epik_input>  (264) 
W0NIMl0xW0NIMl1OKFtDQEBIXTJbQ0BAXTEzNClbQ0gyXVtDSDJdW0NAXTUoW09IXSlbQ0BAXTYoW0NASF0oW0NASF00NSlbQ0BIXShbQ0BASF0zW0NIMl1bT0hdKVtDSDJdW0NIMl1bQ0gyXTYpW0NASF0oW0NIMl1bQ0gzXSlbQ0BIXTJjN1tjSF1uW2NIXW5bY0hdNw==

>  <s_epik_cmdline>  (264) 
J2VwaWtfcHl0aG9uJywgJy1waHQnLCAnMi4wJywgJy1waCcsICc3LjAnLCAnLXRuJywgJzgnLCAnLW1hJywgJzIwMCcsICctaW1hZScsICc8aW5maWxlLm1hZT4nLCAnLW9tYWUnLCAnPG91dGZpbGUubWFlPic=

>  <r_lp_tautomer_probability>  (264) 
1

>  <r_epik_Ionization_Penalty>  (264) 
0.000660211

>  <r_epik_Ionization_Penalty_Charging>  (264) 
0.000659377

>  <r_epik_Ionization_Penalty_Neutral>  (264) 
8.33934e-07

>  <r_epik_State_Penalty>  (264) 
0.00041794

>  <r_epik_Charging_Adjusted_Penalty>  (264) 
0.00107732

>  <i_epik_Tot_Q>  (264) 
1

>  <i_epik_Tot_abs_Q>  (264) 
1

>  <s_epik_Chemistry_Notes>  (264) 
This compound contains an electron-poor aromatic ring that is susceptible to covalent hydrolysis at low pH, typically resulting in measured values for nitrogen ring protonation that are around two units higher than predicted values.

>  <s_lp_Force_Field>  (264) 
OPLS3e

>  <r_lp_Energy>  (264) 
216.549

>  <b_lp_Chiralities_Consistent>  (264) 
1

>  <s_lp_Variant>  (264) 
80:0-1

>  <s_i_glide_gridfile>  (264) 
pfpi4k_grid

>  <i_i_glide_lignum>  (264) 
41

>  <i_i_glide_rotatable_bonds>  (264) 
5

>  <r_i_docking_score>  (264) 
-2.87679

>  <r_i_glide_ligand_efficiency>  (264) 
-0.0991998

>  <r_i_glide_ligand_efficiency_sa>  (264) 
-0.304773

>  <r_i_glide_ligand_efficiency_ln>  (264) 
-0.658713

>  <r_i_glide_gscore>  (264) 
-2.87679

>  <r_i_glide_lipo>  (264) 
-0.252649

>  <r_i_glide_hbond>  (264) 
-0.16

>  <r_i_glide_metal>  (264) 
-0

>  <r_i_glide_rewards>  (264) 
-0.80732

>  <r_i_glide_evdw>  (264) 
-19.4732

>  <r_i_glide_ecoul>  (264) 
-6.09564

>  <r_i_glide_erotb>  (264) 
0.248853

>  <r_i_glide_esite>  (264) 
-0.0176751

>  <r_i_glide_emodel>  (264) 
-31.6079

>  <r_i_glide_energy>  (264) 
-25.5688

>  <r_i_glide_einternal>  (264) 
2.20817

>  <r_i_glide_intrahb_reward>  (264) 
-0

>  <i_i_glide_confnum>  (264) 
2

>  <i_i_glide_posenum>  (264) 
14

>  <r_i_glide_eff_state_penalty>  (264) 
0

>  <ligand_id>  (264) 
80

>  <original_smiles>  (264) 
CCC1C(c2cncnc2)C2N3CCC24C(CO)C2CCCC15C2C4C5(O)CC3

>  <smiles>  (264) 
[H]OC([H])([H])C1([H])C2([H])C([H])([H])C([H])([H])C([H])([H])C34C([H])(C([H])([H])C([H])([H])[H])C([H])(c5c([H])nc([H])nc5[H])C5([H])C16C([H])([H])C([H])([H])[N+]5([H])C([H])([H])C([H])([H])C3(O[H])C6([H])C24[H]

$$$$
81:0:0
     RDKit          3D

 52 57  0  0  1  0  0  0  0  0999 V2000
    8.1454   -3.2942    0.4910 C   0  0  0  0  0  0  0  0  0  0  0  0
    6.6649   -3.6082    0.4333 C   0  0  0  0  0  0  0  0  0  0  0  0
    6.1429   -4.5767    1.2243 C   0  0  0  0  0  0  0  0  0  0  0  0
    4.7206   -5.0829    1.4765 C   0  0  1  0  0  0  0  0  0  0  0  0
    4.5544   -5.4078    2.9646 C   0  0  1  0  0  0  0  0  0  0  0  0
    4.2306   -6.8001    3.3913 C   0  0  0  0  0  0  0  0  0  0  0  0
    5.5706   -6.2813    3.5129 O   0  0  0  0  0  0  0  0  0  0  0  0
    4.1687   -4.2168    3.8561 C   0  0  1  0  0  0  0  0  0  0  0  0
    5.3683   -3.3412    4.2610 C   0  0  0  0  0  0  0  0  0  0  0  0
    2.9905   -3.3958    3.2704 C   0  0  0  0  0  0  0  0  0  0  0  0
    3.1147   -3.0551    1.7535 C   0  0  1  0  0  0  0  0  0  0  0  0
    4.0436   -1.9954    1.7674 O   0  0  0  0  0  0  0  0  0  0  0  0
    3.5219   -4.2992    0.8794 C   0  0  2  0  0  0  0  0  0  0  0  0
    2.2818   -5.2305    0.8512 C   0  0  0  0  0  0  0  0  0  0  0  0
    1.6285   -5.9773    1.9097 C   0  0  0  0  0  0  0  0  0  0  0  0
    0.5874   -6.6477    1.3484 C   0  0  0  0  0  0  0  0  0  0  0  0
    0.4126   -6.2564    0.0787 O   0  0  0  0  0  0  0  0  0  0  0  0
    1.4731   -5.4395   -0.2277 C   0  0  0  0  0  0  0  0  0  0  0  0
    3.8401   -4.0484   -0.5107 O   0  0  0  0  0  0  0  0  0  0  0  0
    4.5035   -2.8281   -0.8909 C   0  0  2  0  0  0  0  0  0  0  0  0
    5.9640   -2.6573   -0.5106 C   0  0  2  0  0  0  0  0  0  0  0  0
    6.3847   -2.7754   -1.9692 C   0  0  0  0  0  0  0  0  0  0  0  0
    4.9271   -2.8492   -2.3765 C   0  0  1  0  0  0  0  0  0  0  0  0
    4.6037   -3.8061   -3.5182 C   0  0  0  0  0  0  0  0  0  0  0  0
    3.8944   -1.8363   -1.9031 C   0  0  1  0  0  0  0  0  0  0  0  0
    2.6103   -2.1828   -2.3179 O   0  0  0  0  0  0  0  0  0  0  0  0
    8.2518   -2.2387    0.7309 H   0  0  0  0  0  0  0  0  0  0  0  0
    8.6577   -3.4710   -0.4539 H   0  0  0  0  0  0  0  0  0  0  0  0
    8.6364   -3.8525    1.2775 H   0  0  0  0  0  0  0  0  0  0  0  0
    6.8482   -5.0958    1.8693 H   0  0  0  0  0  0  0  0  0  0  0  0
    4.7278   -6.0446    0.9626 H   0  0  0  0  0  0  0  0  0  0  0  0
    3.7122   -6.9437    4.3410 H   0  0  0  0  0  0  0  0  0  0  0  0
    4.0956   -7.5771    2.6319 H   0  0  0  0  0  0  0  0  0  0  0  0
    3.8164   -4.6292    4.7980 H   0  0  0  0  0  0  0  0  0  0  0  0
    5.8120   -2.8534    3.3941 H   0  0  0  0  0  0  0  0  0  0  0  0
    6.1316   -3.9246    4.7706 H   0  0  0  0  0  0  0  0  0  0  0  0
    5.0497   -2.5589    4.9430 H   0  0  0  0  0  0  0  0  0  0  0  0
    2.0651   -3.9391    3.4487 H   0  0  0  0  0  0  0  0  0  0  0  0
    2.8608   -2.4798    3.8532 H   0  0  0  0  0  0  0  0  0  0  0  0
    2.1641   -2.6507    1.4031 H   0  0  0  0  0  0  0  0  0  0  0  0
    3.9753   -1.5377    0.9479 H   0  0  0  0  0  0  0  0  0  0  0  0
    1.8431   -6.0812    2.9614 H   0  0  0  0  0  0  0  0  0  0  0  0
   -0.1268   -7.3775    1.7094 H   0  0  0  0  0  0  0  0  0  0  0  0
    1.4785   -5.0532   -1.2489 H   0  0  0  0  0  0  0  0  0  0  0  0
    6.1680   -1.6514   -0.1511 H   0  0  0  0  0  0  0  0  0  0  0  0
    6.8525   -1.8761   -2.3267 H   0  0  0  0  0  0  0  0  0  0  0  0
    6.9780   -3.6517   -2.2483 H   0  0  0  0  0  0  0  0  0  0  0  0
    4.8711   -3.3410   -4.4523 H   0  0  0  0  0  0  0  0  0  0  0  0
    3.5398   -4.0559   -3.5787 H   0  0  0  0  0  0  0  0  0  0  0  0
    5.1666   -4.7206   -3.4295 H   0  0  0  0  0  0  0  0  0  0  0  0
    4.1002   -0.7485   -1.8624 H   0  0  0  0  0  0  0  0  0  0  0  0
    1.9530   -1.7207   -1.7906 H   0  0  0  0  0  0  0  0  0  0  0  0
  1  2  1  0
  1 27  1  0
  1 28  1  0
  1 29  1  0
  2 21  1  0
  2  3  2  0
  3  4  1  0
  3 30  1  0
  4 13  1  0
  4  5  1  0
  4 31  1  6
  5  7  1  1
  5  6  1  0
  5  8  1  0
  6  7  1  0
  6 32  1  0
  6 33  1  0
  8  9  1  0
  8 10  1  0
  8 34  1  1
  9 35  1  0
  9 36  1  0
  9 37  1  0
 10 11  1  0
 10 38  1  0
 10 39  1  0
 11 12  1  0
 11 13  1  0
 11 40  1  6
 12 41  1  0
 13 14  1  6
 13 19  1  0
 14 18  2  0
 14 15  1  0
 15 16  2  0
 15 42  1  0
 16 17  1  0
 16 43  1  0
 17 18  1  0
 18 44  1  0
 20 19  1  1
 20 23  1  0
 20 25  1  0
 20 21  1  0
 21 22  1  0
 21 45  1  1
 22 23  1  0
 22 46  1  0
 22 47  1  0
 23 24  1  6
 23 25  1  0
 24 48  1  0
 24 49  1  0
 24 50  1  0
 25 26  1  0
 25 51  1  1
 26 52  1  0
M  END
>  <i_m_ct_stereo_status>  (265) 
1

>  <s_m_source_file>  (265) 
/var/tmp/pbs.5076255.sched01/tmple0dc7g8/88jbw3zpwn.sdf

>  <i_m_source_file_index>  (265) 
42

>  <i_lp_mmshare_version>  (265) 
48012

>  <i_f3d_flags>  (265) 
0

>  <s_epik_input>  (265) 
W09IXVtDQEBIXTFbQ0BAXTIoW0NIM10pW0NIMl1bQ0BIXShDKFtDSDNdKT1bQ0hdMylbQ0BAXTEyT1tDQEBdKFtDQEBIXTNbQ0BAXTQ1W0NIMl1PNCkoW0NASF0oW09IXSlbQ0gyXVtDQEBIXTVbQ0gzXSljNltjSF1bY0hdb1tjSF02

>  <s_epik_cmdline>  (265) 
J2VwaWtfcHl0aG9uJywgJy1waHQnLCAnMi4wJywgJy1waCcsICc3LjAnLCAnLXRuJywgJzgnLCAnLW1hJywgJzIwMCcsICctaW1hZScsICc8aW5maWxlLm1hZT4nLCAnLW9tYWUnLCAnPG91dGZpbGUubWFlPic=

>  <r_lp_tautomer_probability>  (265) 
1

>  <r_epik_Ionization_Penalty>  (265) 
9.71221e-08

>  <r_epik_Ionization_Penalty_Charging>  (265) 
0

>  <r_epik_Ionization_Penalty_Neutral>  (265) 
9.71221e-08

>  <r_epik_State_Penalty>  (265) 
-0

>  <r_epik_Charging_Adjusted_Penalty>  (265) 
0

>  <i_epik_Tot_Q>  (265) 
0

>  <i_epik_Tot_abs_Q>  (265) 
0

>  <s_lp_Force_Field>  (265) 
OPLS3e

>  <r_lp_Energy>  (265) 
32.0026

>  <b_lp_Chiralities_Consistent>  (265) 
1

>  <s_lp_Variant>  (265) 
81:0-1

>  <s_i_glide_gridfile>  (265) 
pfpi4k_grid

>  <i_i_glide_lignum>  (265) 
42

>  <i_i_glide_rotatable_bonds>  (265) 
3

>  <r_i_docking_score>  (265) 
-3.74063

>  <r_i_glide_ligand_efficiency>  (265) 
-0.14387

>  <r_i_glide_ligand_efficiency_sa>  (265) 
-0.426215

>  <r_i_glide_ligand_efficiency_ln>  (265) 
-0.878474

>  <r_i_glide_gscore>  (265) 
-3.74063

>  <r_i_glide_lipo>  (265) 
-0.633723

>  <r_i_glide_hbond>  (265) 
-0.356846

>  <r_i_glide_metal>  (265) 
-0

>  <r_i_glide_rewards>  (265) 
-0.965263

>  <r_i_glide_evdw>  (265) 
-21.3222

>  <r_i_glide_ecoul>  (265) 
-5.78527

>  <r_i_glide_erotb>  (265) 
0.149105

>  <r_i_glide_esite>  (265) 
0

>  <r_i_glide_emodel>  (265) 
-30.9817

>  <r_i_glide_energy>  (265) 
-27.1074

>  <r_i_glide_einternal>  (265) 
2.6456

>  <r_i_glide_intrahb_reward>  (265) 
-0

>  <i_i_glide_confnum>  (265) 
2

>  <i_i_glide_posenum>  (265) 
24

>  <r_i_glide_eff_state_penalty>  (265) 
0

>  <ligand_id>  (265) 
81

>  <original_smiles>  (265) 
CC1=CC2C3(CO3)C(C)CC(O)C2(c2ccoc2)OC23C1CC2(C)C3O

>  <smiles>  (265) 
[H]OC1([H])C([H])([H])C([H])(C([H])([H])[H])C2(OC2([H])[H])C2([H])C([H])=C(C([H])([H])[H])C3([H])C([H])([H])C4(C([H])([H])[H])C([H])(O[H])C34OC12c1c([H])oc([H])c1[H]

$$$$
81:0:1
     RDKit          3D

 52 57  0  0  1  0  0  0  0  0999 V2000
    4.7051   -0.7516    2.9080 C   0  0  0  0  0  0  0  0  0  0  0  0
    4.8197   -2.1420    2.3275 C   0  0  0  0  0  0  0  0  0  0  0  0
    4.9537   -3.2262    3.1349 C   0  0  0  0  0  0  0  0  0  0  0  0
    5.0044   -4.7202    2.8855 C   0  0  1  0  0  0  0  0  0  0  0  0
    4.2464   -5.4522    3.9930 C   0  0  1  0  0  0  0  0  0  0  0  0
    4.9543   -6.4935    4.8208 C   0  0  0  0  0  0  0  0  0  0  0  0
    4.6953   -5.1742    5.3250 O   0  0  0  0  0  0  0  0  0  0  0  0
    2.7289   -5.5120    3.8082 C   0  0  1  0  0  0  0  0  0  0  0  0
    1.9713   -4.2253    4.2016 C   0  0  0  0  0  0  0  0  0  0  0  0
    2.3686   -6.0560    2.4164 C   0  0  0  0  0  0  0  0  0  0  0  0
    3.1346   -5.3725    1.2310 C   0  0  1  0  0  0  0  0  0  0  0  0
    2.4914   -4.1261    1.1208 O   0  0  0  0  0  0  0  0  0  0  0  0
    4.6913   -5.2713    1.4647 C   0  0  2  0  0  0  0  0  0  0  0  0
    5.2445   -6.7215    1.3821 C   0  0  0  0  0  0  0  0  0  0  0  0
    4.5861   -7.9447    1.0397 C   0  0  0  0  0  0  0  0  0  0  0  0
    5.5097   -8.9541    1.1193 C   0  0  0  0  0  0  0  0  0  0  0  0
    6.7191   -8.4404    1.4359 O   0  0  0  0  0  0  0  0  0  0  0  0
    6.5421   -7.0932    1.5686 C   0  0  0  0  0  0  0  0  0  0  0  0
    5.4632   -4.5040    0.5054 O   0  0  0  0  0  0  0  0  0  0  0  0
    4.8846   -3.3040   -0.0680 C   0  0  2  0  0  0  0  0  0  0  0  0
    4.6790   -2.0903    0.8208 C   0  0  2  0  0  0  0  0  0  0  0  0
    5.7744   -1.3488    0.0485 C   0  0  0  0  0  0  0  0  0  0  0  0
    5.9078   -2.5317   -0.8956 C   0  0  1  0  0  0  0  0  0  0  0  0
    7.3634   -2.8587   -1.2797 C   0  0  0  0  0  0  0  0  0  0  0  0
    4.7080   -3.1474   -1.5855 C   0  0  1  0  0  0  0  0  0  0  0  0
    4.9998   -4.2633   -2.3840 O   0  0  0  0  0  0  0  0  0  0  0  0
    3.7821   -0.3031    2.5421 H   0  0  0  0  0  0  0  0  0  0  0  0
    5.5328   -0.1138    2.5954 H   0  0  0  0  0  0  0  0  0  0  0  0
    4.6627   -0.7720    3.9883 H   0  0  0  0  0  0  0  0  0  0  0  0
    4.9984   -3.0014    4.1908 H   0  0  0  0  0  0  0  0  0  0  0  0
    6.0580   -4.9183    3.0835 H   0  0  0  0  0  0  0  0  0  0  0  0
    4.3725   -7.2771    5.2997 H   0  0  0  0  0  0  0  0  0  0  0  0
    6.0113   -6.7105    4.6493 H   0  0  0  0  0  0  0  0  0  0  0  0
    2.3619   -6.2494    4.5200 H   0  0  0  0  0  0  0  0  0  0  0  0
    2.2267   -3.3579    3.5920 H   0  0  0  0  0  0  0  0  0  0  0  0
    2.1523   -3.9648    5.2467 H   0  0  0  0  0  0  0  0  0  0  0  0
    0.8985   -4.3915    4.0981 H   0  0  0  0  0  0  0  0  0  0  0  0
    2.5798   -7.1219    2.4907 H   0  0  0  0  0  0  0  0  0  0  0  0
    1.2883   -6.0098    2.2565 H   0  0  0  0  0  0  0  0  0  0  0  0
    2.9394   -5.9220    0.3082 H   0  0  0  0  0  0  0  0  0  0  0  0
    2.7844   -3.6091    1.8520 H   0  0  0  0  0  0  0  0  0  0  0  0
    3.5560   -8.1449    0.7830 H   0  0  0  0  0  0  0  0  0  0  0  0
    5.4691  -10.0096    0.9175 H   0  0  0  0  0  0  0  0  0  0  0  0
    7.4428   -6.5559    1.8220 H   0  0  0  0  0  0  0  0  0  0  0  0
    3.7173   -1.6213    0.5966 H   0  0  0  0  0  0  0  0  0  0  0  0
    5.3723   -0.4757   -0.4525 H   0  0  0  0  0  0  0  0  0  0  0  0
    6.6704   -1.1026    0.6212 H   0  0  0  0  0  0  0  0  0  0  0  0
    7.6428   -2.2058   -2.0939 H   0  0  0  0  0  0  0  0  0  0  0  0
    7.4688   -3.8713   -1.6494 H   0  0  0  0  0  0  0  0  0  0  0  0
    8.0610   -2.6931   -0.4591 H   0  0  0  0  0  0  0  0  0  0  0  0
    3.8973   -2.5256   -1.9982 H   0  0  0  0  0  0  0  0  0  0  0  0
    4.2728   -4.8866   -2.3272 H   0  0  0  0  0  0  0  0  0  0  0  0
  1  2  1  0
  1 27  1  0
  1 28  1  0
  1 29  1  0
  2 21  1  0
  2  3  2  0
  3  4  1  0
  3 30  1  0
  4 13  1  0
  4  5  1  0
  4 31  1  1
  5  7  1  1
  5  6  1  0
  5  8  1  0
  6  7  1  0
  6 32  1  0
  6 33  1  0
  8  9  1  0
  8 10  1  0
  8 34  1  1
  9 35  1  0
  9 36  1  0
  9 37  1  0
 10 11  1  0
 10 38  1  0
 10 39  1  0
 11 12  1  0
 11 13  1  0
 11 40  1  6
 12 41  1  0
 13 14  1  1
 13 19  1  0
 14 18  2  0
 14 15  1  0
 15 16  2  0
 15 42  1  0
 16 17  1  0
 16 43  1  0
 17 18  1  0
 18 44  1  0
 20 19  1  1
 20 23  1  0
 20 25  1  0
 20 21  1  0
 21 22  1  0
 21 45  1  1
 22 23  1  0
 22 46  1  0
 22 47  1  0
 23 24  1  6
 23 25  1  0
 24 48  1  0
 24 49  1  0
 24 50  1  0
 25 26  1  0
 25 51  1  1
 26 52  1  0
M  END
>  <i_m_ct_stereo_status>  (266) 
1

>  <s_m_source_file>  (266) 
/var/tmp/pbs.5076255.sched01/tmple0dc7g8/88jbw3zpwn.sdf

>  <i_m_source_file_index>  (266) 
42

>  <i_lp_mmshare_version>  (266) 
48012

>  <i_f3d_flags>  (266) 
0

>  <s_epik_input>  (266) 
W09IXVtDQEBIXTFbQ0BAXTIoW0NIM10pW0NIMl1bQ0BIXShDKFtDSDNdKT1bQ0hdMylbQ0BAXTEyT1tDQEBdKFtDQEBIXTNbQ0BAXTQ1W0NIMl1PNCkoW0NASF0oW09IXSlbQ0gyXVtDQEBIXTVbQ0gzXSljNltjSF1bY0hdb1tjSF02

>  <s_epik_cmdline>  (266) 
J2VwaWtfcHl0aG9uJywgJy1waHQnLCAnMi4wJywgJy1waCcsICc3LjAnLCAnLXRuJywgJzgnLCAnLW1hJywgJzIwMCcsICctaW1hZScsICc8aW5maWxlLm1hZT4nLCAnLW9tYWUnLCAnPG91dGZpbGUubWFlPic=

>  <r_lp_tautomer_probability>  (266) 
1

>  <r_epik_Ionization_Penalty>  (266) 
9.71221e-08

>  <r_epik_Ionization_Penalty_Charging>  (266) 
0

>  <r_epik_Ionization_Penalty_Neutral>  (266) 
9.71221e-08

>  <r_epik_State_Penalty>  (266) 
-0

>  <r_epik_Charging_Adjusted_Penalty>  (266) 
0

>  <i_epik_Tot_Q>  (266) 
0

>  <i_epik_Tot_abs_Q>  (266) 
0

>  <s_lp_Force_Field>  (266) 
OPLS3e

>  <r_lp_Energy>  (266) 
32.0026

>  <b_lp_Chiralities_Consistent>  (266) 
1

>  <s_lp_Variant>  (266) 
81:0-1

>  <s_i_glide_gridfile>  (266) 
pfpi4k_grid

>  <i_i_glide_lignum>  (266) 
42

>  <i_i_glide_rotatable_bonds>  (266) 
3

>  <r_i_docking_score>  (266) 
-3.14761

>  <r_i_glide_ligand_efficiency>  (266) 
-0.121062

>  <r_i_glide_ligand_efficiency_sa>  (266) 
-0.358645

>  <r_i_glide_ligand_efficiency_ln>  (266) 
-0.739205

>  <r_i_glide_gscore>  (266) 
-3.14761

>  <r_i_glide_lipo>  (266) 
-0.485839

>  <r_i_glide_hbond>  (266) 
0

>  <r_i_glide_metal>  (266) 
-0

>  <r_i_glide_rewards>  (266) 
-0.965263

>  <r_i_glide_evdw>  (266) 
-22.9944

>  <r_i_glide_ecoul>  (266) 
-4.63925

>  <r_i_glide_erotb>  (266) 
0.149105

>  <r_i_glide_esite>  (266) 
0

>  <r_i_glide_emodel>  (266) 
-31.7048

>  <r_i_glide_energy>  (266) 
-27.6337

>  <r_i_glide_einternal>  (266) 
0.545925

>  <r_i_glide_intrahb_reward>  (266) 
-0

>  <i_i_glide_confnum>  (266) 
6

>  <i_i_glide_posenum>  (266) 
28

>  <r_i_glide_eff_state_penalty>  (266) 
0

>  <ligand_id>  (266) 
81

>  <original_smiles>  (266) 
CC1=CC2C3(CO3)C(C)CC(O)C2(c2ccoc2)OC23C1CC2(C)C3O

>  <smiles>  (266) 
[H]OC1([H])C([H])([H])C([H])(C([H])([H])[H])C2(OC2([H])[H])C2([H])C([H])=C(C([H])([H])[H])C3([H])C([H])([H])C4(C([H])([H])[H])C([H])(O[H])C34OC12c1c([H])oc([H])c1[H]

$$$$
81:0:2
     RDKit          3D

 52 57  0  0  1  0  0  0  0  0999 V2000
    5.0035   -1.2407    4.1199 C   0  0  0  0  0  0  0  0  0  0  0  0
    4.6401   -2.5730    3.4964 C   0  0  0  0  0  0  0  0  0  0  0  0
    5.0368   -3.7220    4.0884 C   0  0  0  0  0  0  0  0  0  0  0  0
    4.8052   -5.1937    3.7805 C   0  0  1  0  0  0  0  0  0  0  0  0
    4.6374   -5.9819    5.0886 C   0  0  1  0  0  0  0  0  0  0  0  0
    5.5485   -7.1433    5.3910 C   0  0  0  0  0  0  0  0  0  0  0  0
    5.7223   -5.8578    6.0165 O   0  0  0  0  0  0  0  0  0  0  0  0
    3.2434   -5.9192    5.7004 C   0  0  1  0  0  0  0  0  0  0  0  0
    2.9339   -4.6198    6.4773 C   0  0  0  0  0  0  0  0  0  0  0  0
    2.1799   -6.3035    4.6442 C   0  0  0  0  0  0  0  0  0  0  0  0
    2.2941   -5.5303    3.2864 C   0  0  1  0  0  0  0  0  0  0  0  0
    1.8019   -4.2495    3.5965 O   0  0  0  0  0  0  0  0  0  0  0  0
    3.7596   -5.5768    2.6984 C   0  0  2  0  0  0  0  0  0  0  0  0
    4.0124   -7.0416    2.2720 C   0  0  0  0  0  0  0  0  0  0  0  0
    3.0975   -8.1090    2.0293 C   0  0  0  0  0  0  0  0  0  0  0  0
    3.8129   -9.2088    1.6555 C   0  0  0  0  0  0  0  0  0  0  0  0
    5.1290   -8.9181    1.6236 O   0  0  0  0  0  0  0  0  0  0  0  0
    5.2383   -7.6143    1.9773 C   0  0  0  0  0  0  0  0  0  0  0  0
    4.0637   -4.8158    1.5211 O   0  0  0  0  0  0  0  0  0  0  0  0
    3.4188   -3.5475    1.3491 C   0  0  2  0  0  0  0  0  0  0  0  0
    3.7711   -2.3833    2.2719 C   0  0  2  0  0  0  0  0  0  0  0  0
    4.4205   -1.6445    1.0977 C   0  0  0  0  0  0  0  0  0  0  0  0
    3.9998   -2.7680    0.1672 C   0  0  1  0  0  0  0  0  0  0  0  0
    4.9648   -3.1351   -0.9615 C   0  0  0  0  0  0  0  0  0  0  0  0
    2.6072   -3.2372    0.1162 C   0  0  1  0  0  0  0  0  0  0  0  0
    2.2422   -4.3179   -0.6909 O   0  0  0  0  0  0  0  0  0  0  0  0
    4.0839   -0.6855    4.3025 H   0  0  0  0  0  0  0  0  0  0  0  0
    5.6286   -0.6415    3.4559 H   0  0  0  0  0  0  0  0  0  0  0  0
    5.5132   -1.3611    5.0669 H   0  0  0  0  0  0  0  0  0  0  0  0
    5.6428   -3.6089    4.9831 H   0  0  0  0  0  0  0  0  0  0  0  0
    5.7911   -5.4637    3.4089 H   0  0  0  0  0  0  0  0  0  0  0  0
    5.1986   -7.9223    6.0618 H   0  0  0  0  0  0  0  0  0  0  0  0
    6.3449   -7.4173    4.6965 H   0  0  0  0  0  0  0  0  0  0  0  0
    3.2020   -6.6922    6.4613 H   0  0  0  0  0  0  0  0  0  0  0  0
    2.9465   -3.7181    5.8651 H   0  0  0  0  0  0  0  0  0  0  0  0
    3.6467   -4.4714    7.2881 H   0  0  0  0  0  0  0  0  0  0  0  0
    1.9485   -4.6900    6.9332 H   0  0  0  0  0  0  0  0  0  0  0  0
    2.2838   -7.3759    4.4864 H   0  0  0  0  0  0  0  0  0  0  0  0
    1.1731   -6.1917    5.0731 H   0  0  0  0  0  0  0  0  0  0  0  0
    1.5873   -5.9691    2.5787 H   0  0  0  0  0  0  0  0  0  0  0  0
    2.4500   -3.8401    4.1533 H   0  0  0  0  0  0  0  0  0  0  0  0
    2.0136   -8.1192    2.1205 H   0  0  0  0  0  0  0  0  0  0  0  0
    3.5528  -10.2113    1.3511 H   0  0  0  0  0  0  0  0  0  0  0  0
    6.2553   -7.2522    2.0005 H   0  0  0  0  0  0  0  0  0  0  0  0
    2.8896   -1.8355    2.5884 H   0  0  0  0  0  0  0  0  0  0  0  0
    3.9076   -0.7193    0.8820 H   0  0  0  0  0  0  0  0  0  0  0  0
    5.4969   -1.5042    1.1412 H   0  0  0  0  0  0  0  0  0  0  0  0
    4.8502   -2.3864   -1.7227 H   0  0  0  0  0  0  0  0  0  0  0  0
    4.7259   -4.1034   -1.3809 H   0  0  0  0  0  0  0  0  0  0  0  0
    5.9826   -3.1192   -0.5972 H   0  0  0  0  0  0  0  0  0  0  0  0
    1.7470   -2.5740    0.2845 H   0  0  0  0  0  0  0  0  0  0  0  0
    2.9934   -4.5906   -1.2022 H   0  0  0  0  0  0  0  0  0  0  0  0
  1  2  1  0
  1 27  1  0
  1 28  1  0
  1 29  1  0
  2 21  1  0
  2  3  2  0
  3  4  1  0
  3 30  1  0
  4 13  1  0
  4  5  1  0
  4 31  1  6
  5  7  1  1
  5  6  1  0
  5  8  1  0
  6  7  1  0
  6 32  1  0
  6 33  1  0
  8  9  1  0
  8 10  1  0
  8 34  1  1
  9 35  1  0
  9 36  1  0
  9 37  1  0
 10 11  1  0
 10 38  1  0
 10 39  1  0
 11 12  1  0
 11 13  1  0
 11 40  1  6
 12 41  1  0
 13 14  1  6
 13 19  1  0
 14 18  2  0
 14 15  1  0
 15 16  2  0
 15 42  1  0
 16 17  1  0
 16 43  1  0
 17 18  1  0
 18 44  1  0
 20 19  1  1
 20 23  1  0
 20 25  1  0
 20 21  1  0
 21 22  1  0
 21 45  1  1
 22 23  1  0
 22 46  1  0
 22 47  1  0
 23 24  1  6
 23 25  1  0
 24 48  1  0
 24 49  1  0
 24 50  1  0
 25 26  1  0
 25 51  1  1
 26 52  1  0
M  END
>  <i_m_ct_stereo_status>  (267) 
1

>  <s_m_source_file>  (267) 
/var/tmp/pbs.5076255.sched01/tmple0dc7g8/88jbw3zpwn.sdf

>  <i_m_source_file_index>  (267) 
42

>  <i_lp_mmshare_version>  (267) 
48012

>  <i_f3d_flags>  (267) 
0

>  <s_epik_input>  (267) 
W09IXVtDQEBIXTFbQ0BAXTIoW0NIM10pW0NIMl1bQ0BIXShDKFtDSDNdKT1bQ0hdMylbQ0BAXTEyT1tDQEBdKFtDQEBIXTNbQ0BAXTQ1W0NIMl1PNCkoW0NASF0oW09IXSlbQ0gyXVtDQEBIXTVbQ0gzXSljNltjSF1bY0hdb1tjSF02

>  <s_epik_cmdline>  (267) 
J2VwaWtfcHl0aG9uJywgJy1waHQnLCAnMi4wJywgJy1waCcsICc3LjAnLCAnLXRuJywgJzgnLCAnLW1hJywgJzIwMCcsICctaW1hZScsICc8aW5maWxlLm1hZT4nLCAnLW9tYWUnLCAnPG91dGZpbGUubWFlPic=

>  <r_lp_tautomer_probability>  (267) 
1

>  <r_epik_Ionization_Penalty>  (267) 
9.71221e-08

>  <r_epik_Ionization_Penalty_Charging>  (267) 
0

>  <r_epik_Ionization_Penalty_Neutral>  (267) 
9.71221e-08

>  <r_epik_State_Penalty>  (267) 
-0

>  <r_epik_Charging_Adjusted_Penalty>  (267) 
0

>  <i_epik_Tot_Q>  (267) 
0

>  <i_epik_Tot_abs_Q>  (267) 
0

>  <s_lp_Force_Field>  (267) 
OPLS3e

>  <r_lp_Energy>  (267) 
32.0026

>  <b_lp_Chiralities_Consistent>  (267) 
1

>  <s_lp_Variant>  (267) 
81:0-1

>  <s_i_glide_gridfile>  (267) 
pfpi4k_grid

>  <i_i_glide_lignum>  (267) 
42

>  <i_i_glide_rotatable_bonds>  (267) 
3

>  <r_i_docking_score>  (267) 
-2.22656

>  <r_i_glide_ligand_efficiency>  (267) 
-0.0856368

>  <r_i_glide_ligand_efficiency_sa>  (267) 
-0.253699

>  <r_i_glide_ligand_efficiency_ln>  (267) 
-0.522899

>  <r_i_glide_gscore>  (267) 
-2.22656

>  <r_i_glide_lipo>  (267) 
-0.20191

>  <r_i_glide_hbond>  (267) 
0

>  <r_i_glide_metal>  (267) 
-0

>  <r_i_glide_rewards>  (267) 
-0.965263

>  <r_i_glide_evdw>  (267) 
-16.7247

>  <r_i_glide_ecoul>  (267) 
-2.48168

>  <r_i_glide_erotb>  (267) 
0.149105

>  <r_i_glide_esite>  (267) 
0

>  <r_i_glide_emodel>  (267) 
-21.8165

>  <r_i_glide_energy>  (267) 
-19.2064

>  <r_i_glide_einternal>  (267) 
0.298437

>  <r_i_glide_intrahb_reward>  (267) 
-0

>  <i_i_glide_confnum>  (267) 
6

>  <i_i_glide_posenum>  (267) 
1

>  <r_i_glide_eff_state_penalty>  (267) 
0

>  <ligand_id>  (267) 
81

>  <original_smiles>  (267) 
CC1=CC2C3(CO3)C(C)CC(O)C2(c2ccoc2)OC23C1CC2(C)C3O

>  <smiles>  (267) 
[H]OC1([H])C([H])([H])C([H])(C([H])([H])[H])C2(OC2([H])[H])C2([H])C([H])=C(C([H])([H])[H])C3([H])C([H])([H])C4(C([H])([H])[H])C([H])(O[H])C34OC12c1c([H])oc([H])c1[H]

$$$$
84:0:0
     RDKit          3D

 56 61  0  0  1  0  0  0  0  0999 V2000
    0.1299   -2.7529    5.0503 C   0  0  0  0  0  0  0  0  0  0  0  0
    1.1784   -1.8619    4.7156 O   0  0  0  0  0  0  0  0  0  0  0  0
    1.4914   -1.8706    3.3601 C   0  0  0  0  0  0  0  0  0  0  0  0
    2.0739   -3.0751    2.9635 O   0  0  0  0  0  0  0  0  0  0  0  0
    3.4326   -3.2177    3.3486 C   0  0  2  0  0  0  0  0  0  0  0  0
    4.3684   -2.4653    2.3474 C   0  0  0  0  0  0  0  0  0  0  0  0
    4.9871   -3.5207    1.3762 C   0  0  2  0  0  0  0  0  0  0  0  0
    4.9479   -3.1688   -0.1378 C   0  0  2  0  0  0  0  0  0  0  0  0
    5.5743   -4.3507   -0.9346 C   0  0  0  0  0  0  0  0  0  0  0  0
    5.5756   -1.8351   -0.6169 C   0  0  1  0  0  0  0  0  0  0  0  0
    6.9851   -1.8829   -0.7086 O   0  0  0  0  0  0  0  0  0  0  0  0
    4.9129   -1.5505   -1.9952 C   0  0  0  0  0  0  0  0  0  0  0  0
    3.6226   -2.3607   -1.9411 C   0  0  0  0  0  0  0  0  0  0  0  0
    2.8492   -2.5353   -2.8796 O   0  0  0  0  0  0  0  0  0  0  0  0
    3.4979   -2.9162   -0.5410 C   0  0  1  0  0  0  0  0  0  0  0  0
    2.6057   -4.0853   -0.2328 C   0  0  0  0  0  0  0  0  0  0  0  0
    2.8645   -4.8868    0.8236 C   0  0  0  0  0  0  0  0  0  0  0  0
    1.8308   -5.8518    1.2619 C   0  0  0  0  0  0  0  0  0  0  0  0
    0.9701   -6.3410    0.5278 O   0  0  0  0  0  0  0  0  0  0  0  0
    1.7770   -6.0322    2.7743 C   0  0  1  0  0  0  0  0  0  0  0  0
    1.2551   -7.2581    3.2364 O   0  0  0  0  0  0  0  0  0  0  0  0
    1.7820   -7.5790    4.4330 C   0  0  0  0  0  0  0  0  0  0  0  0
    1.4712   -8.5282    5.1459 O   0  0  0  0  0  0  0  0  0  0  0  0
    2.8580   -6.5632    4.7949 C   0  0  0  0  0  0  0  0  0  0  0  0
    3.1643   -5.9865    3.4177 C   0  0  1  0  0  0  0  0  0  0  0  0
    4.0414   -6.8942    2.6993 O   0  0  0  0  0  0  0  0  0  0  0  0
    4.7995   -6.2047    1.6863 C   0  0  0  0  0  0  0  0  0  0  0  0
    4.1659   -4.8045    1.7004 C   0  0  1  0  0  0  0  0  0  0  0  0
    3.9466   -4.6720    3.2203 C   0  0  1  0  0  0  0  0  0  0  0  0
    5.2124   -4.7523    4.1384 C   0  0  0  0  0  0  0  0  0  0  0  0
   -0.0538   -2.7157    6.1244 H   0  0  0  0  0  0  0  0  0  0  0  0
    0.3892   -3.7793    4.7890 H   0  0  0  0  0  0  0  0  0  0  0  0
   -0.7934   -2.4786    4.5368 H   0  0  0  0  0  0  0  0  0  0  0  0
    0.5993   -1.7141    2.7535 H   0  0  0  0  0  0  0  0  0  0  0  0
    2.1551   -1.0256    3.1680 H   0  0  0  0  0  0  0  0  0  0  0  0
    3.5541   -2.8539    4.3722 H   0  0  0  0  0  0  0  0  0  0  0  0
    3.8350   -1.6703    1.8366 H   0  0  0  0  0  0  0  0  0  0  0  0
    5.1745   -1.9635    2.8781 H   0  0  0  0  0  0  0  0  0  0  0  0
    6.0284   -3.6815    1.6646 H   0  0  0  0  0  0  0  0  0  0  0  0
    5.7872   -4.1042   -1.9759 H   0  0  0  0  0  0  0  0  0  0  0  0
    4.9333   -5.2332   -0.9722 H   0  0  0  0  0  0  0  0  0  0  0  0
    6.5131   -4.6420   -0.4634 H   0  0  0  0  0  0  0  0  0  0  0  0
    5.3116   -1.0359    0.0776 H   0  0  0  0  0  0  0  0  0  0  0  0
    7.3111   -2.1894    0.1249 H   0  0  0  0  0  0  0  0  0  0  0  0
    4.7132   -0.4885   -2.1343 H   0  0  0  0  0  0  0  0  0  0  0  0
    5.5212   -1.9095   -2.8266 H   0  0  0  0  0  0  0  0  0  0  0  0
    3.0640   -2.0841    0.0089 H   0  0  0  0  0  0  0  0  0  0  0  0
    1.6838   -4.1498   -0.7888 H   0  0  0  0  0  0  0  0  0  0  0  0
    1.1450   -5.2448    3.1782 H   0  0  0  0  0  0  0  0  0  0  0  0
    2.4222   -5.8235    5.4652 H   0  0  0  0  0  0  0  0  0  0  0  0
    3.7159   -7.0415    5.2667 H   0  0  0  0  0  0  0  0  0  0  0  0
    5.8595   -6.1820    1.9445 H   0  0  0  0  0  0  0  0  0  0  0  0
    4.6966   -6.7140    0.7270 H   0  0  0  0  0  0  0  0  0  0  0  0
    5.7061   -5.7271    4.1260 H   0  0  0  0  0  0  0  0  0  0  0  0
    4.9494   -4.5665    5.1836 H   0  0  0  0  0  0  0  0  0  0  0  0
    5.9647   -4.0113    3.8764 H   0  0  0  0  0  0  0  0  0  0  0  0
  1  2  1  0
  1 31  1  0
  1 32  1  0
  1 33  1  0
  2  3  1  0
  3  4  1  0
  3 34  1  0
  3 35  1  0
  4  5  1  0
  5 29  1  0
  5  6  1  0
  5 36  1  1
  6  7  1  0
  6 37  1  0
  6 38  1  0
  7 28  1  0
  7  8  1  0
  7 39  1  1
  8 15  1  0
  8  9  1  6
  8 10  1  0
  9 40  1  0
  9 41  1  0
  9 42  1  0
 10 11  1  0
 10 12  1  0
 10 43  1  1
 11 44  1  0
 12 13  1  0
 12 45  1  0
 12 46  1  0
 13 14  2  0
 13 15  1  0
 15 16  1  0
 15 47  1  1
 16 17  2  0
 16 48  1  0
 17 28  1  0
 17 18  1  0
 18 19  2  0
 18 20  1  0
 20 25  1  0
 20 21  1  0
 20 49  1  1
 21 22  1  0
 22 23  2  0
 22 24  1  0
 24 25  1  0
 24 50  1  0
 24 51  1  0
 25 29  1  0
 25 26  1  6
 26 27  1  0
 28 27  1  1
 27 52  1  0
 27 53  1  0
 28 29  1  0
 29 30  1  1
 30 54  1  0
 30 55  1  0
 30 56  1  0
M  END
>  <i_m_ct_stereo_status>  (268) 
1

>  <s_m_source_file>  (268) 
/var/tmp/pbs.5076255.sched01/tmpycp4azd_/132pnz8hy5b.sdf

>  <i_m_source_file_index>  (268) 
1

>  <i_lp_mmshare_version>  (268) 
48012

>  <i_f3d_flags>  (268) 
0

>  <s_epik_input>  (268) 
W0NIM11PW0NIMl1PW0NAQEhdKFtDQEBdMTJbQ0gzXSlbQ0gyXVtDQEhdKFtDQEBdMyhbQ0gzXSlbQ0BIXShbQ0hdPTQpQyg9TylbQ0gyXVtDQEBIXTNbT0hdKVtDQF0yKFtDSDJdTzUpQzRDKD1PKVtDQEhdKFtDQF0xNTYpT0MoPU8pW0NIMl02

>  <s_epik_cmdline>  (268) 
J2VwaWtfcHl0aG9uJywgJy1waHQnLCAnMi4wJywgJy1waCcsICc3LjAnLCAnLXRuJywgJzgnLCAnLW1hJywgJzIwMCcsICctaW1hZScsICc8aW5maWxlLm1hZT4nLCAnLW9tYWUnLCAnPG91dGZpbGUubWFlPic=

>  <r_lp_tautomer_probability>  (268) 
1

>  <r_epik_Ionization_Penalty>  (268) 
3.19313e-07

>  <r_epik_Ionization_Penalty_Charging>  (268) 
0

>  <r_epik_Ionization_Penalty_Neutral>  (268) 
3.19313e-07

>  <r_epik_State_Penalty>  (268) 
-0

>  <r_epik_Charging_Adjusted_Penalty>  (268) 
0

>  <i_epik_Tot_Q>  (268) 
0

>  <i_epik_Tot_abs_Q>  (268) 
0

>  <s_epik_Chemistry_Notes>  (268) 
This compound has an ester and may undergo hydrolysis at high or low pH. This compound contains an acetal/aminal-like group ( X-CH(R)-Y where X, Y are N, S, or O) that may be acid/base labile, releasing an aldehyde.

>  <s_lp_Force_Field>  (268) 
OPLS3e

>  <r_lp_Energy>  (268) 
60.795

>  <b_lp_Chiralities_Consistent>  (268) 
1

>  <s_lp_Variant>  (268) 
84:0-1

>  <s_i_glide_gridfile>  (268) 
pfpi4k_grid

>  <i_i_glide_lignum>  (268) 
1

>  <i_i_glide_rotatable_bonds>  (268) 
4

>  <r_i_docking_score>  (268) 
-2.95073

>  <r_i_glide_ligand_efficiency>  (268) 
-0.0983577

>  <r_i_glide_ligand_efficiency_sa>  (268) 
-0.30562

>  <r_i_glide_ligand_efficiency_ln>  (268) 
-0.670438

>  <r_i_glide_gscore>  (268) 
-2.95073

>  <r_i_glide_lipo>  (268) 
-0.152935

>  <r_i_glide_hbond>  (268) 
-0.349722

>  <r_i_glide_metal>  (268) 
-0

>  <r_i_glide_rewards>  (268) 
-0.574395

>  <r_i_glide_evdw>  (268) 
-23.0269

>  <r_i_glide_ecoul>  (268) 
-5.69155

>  <r_i_glide_erotb>  (268) 
0.225876

>  <r_i_glide_esite>  (268) 
-0.0944787

>  <r_i_glide_emodel>  (268) 
-33.7145

>  <r_i_glide_energy>  (268) 
-28.7184

>  <r_i_glide_einternal>  (268) 
0.653517

>  <r_i_glide_intrahb_reward>  (268) 
-0

>  <i_i_glide_confnum>  (268) 
6

>  <i_i_glide_posenum>  (268) 
35

>  <r_i_glide_eff_state_penalty>  (268) 
0

>  <ligand_id>  (268) 
84

>  <original_smiles>  (268) 
COCOC1CC2C3(C)C(O)CC(=O)C3C=C3C(=O)C4OC(=O)CC45OCC32C15C

>  <smiles>  (268) 
[H]OC1([H])C([H])([H])C(=O)C2([H])C([H])=C3C(=O)C4([H])OC(=O)C([H])([H])C45OC([H])([H])C34C([H])(C([H])([H])C([H])(OC([H])([H])OC([H])([H])[H])C54C([H])([H])[H])C21C([H])([H])[H]

$$$$
84:0:1
     RDKit          3D

 56 61  0  0  1  0  0  0  0  0999 V2000
    0.0893   -1.9347    4.6230 C   0  0  0  0  0  0  0  0  0  0  0  0
    1.0375   -1.0284    4.0843 O   0  0  0  0  0  0  0  0  0  0  0  0
    1.3298   -1.2695    2.7452 C   0  0  0  0  0  0  0  0  0  0  0  0
    1.9646   -2.4978    2.5616 O   0  0  0  0  0  0  0  0  0  0  0  0
    3.3341   -2.4905    2.9334 C   0  0  2  0  0  0  0  0  0  0  0  0
    4.2080   -1.9258    1.7668 C   0  0  0  0  0  0  0  0  0  0  0  0
    4.8684   -3.1350    1.0308 C   0  0  2  0  0  0  0  0  0  0  0  0
    4.7837   -3.1267   -0.5184 C   0  0  2  0  0  0  0  0  0  0  0  0
    5.4507   -4.4241   -1.0654 C   0  0  0  0  0  0  0  0  0  0  0  0
    5.3344   -1.9009   -1.2861 C   0  0  1  0  0  0  0  0  0  0  0  0
    6.7426   -1.9093   -1.3702 O   0  0  0  0  0  0  0  0  0  0  0  0
    4.6493   -1.9467   -2.6847 C   0  0  0  0  0  0  0  0  0  0  0  0
    3.3922   -2.7703   -2.4219 C   0  0  0  0  0  0  0  0  0  0  0  0
    2.5899   -3.1274   -3.2845 O   0  0  0  0  0  0  0  0  0  0  0  0
    3.3185   -3.0331   -0.9316 C   0  0  1  0  0  0  0  0  0  0  0  0
    2.4911   -4.1474   -0.3467 C   0  0  0  0  0  0  0  0  0  0  0  0
    2.8205   -4.6932    0.8441 C   0  0  0  0  0  0  0  0  0  0  0  0
    1.8557   -5.6010    1.5029 C   0  0  0  0  0  0  0  0  0  0  0  0
    1.0347   -6.3043    0.9147 O   0  0  0  0  0  0  0  0  0  0  0  0
    1.8257   -5.4466    3.0171 C   0  0  1  0  0  0  0  0  0  0  0  0
    1.3726   -6.5647    3.7517 O   0  0  0  0  0  0  0  0  0  0  0  0
    1.9317   -6.5912    4.9760 C   0  0  0  0  0  0  0  0  0  0  0  0
    1.6817   -7.3732    5.8865 O   0  0  0  0  0  0  0  0  0  0  0  0
    2.9593   -5.4691    5.0807 C   0  0  0  0  0  0  0  0  0  0  0  0
    3.2158   -5.1897    3.6047 C   0  0  1  0  0  0  0  0  0  0  0  0
    4.1333   -6.1839    3.0779 O   0  0  0  0  0  0  0  0  0  0  0  0
    4.8363   -5.6925    1.9195 C   0  0  0  0  0  0  0  0  0  0  0  0
    4.1275   -4.3578    1.6474 C   0  0  1  0  0  0  0  0  0  0  0  0
    3.9179   -3.9104    3.1061 C   0  0  1  0  0  0  0  0  0  0  0  0
    5.1961   -3.7204    3.9842 C   0  0  0  0  0  0  0  0  0  0  0  0
   -0.0855   -1.6947    5.6720 H   0  0  0  0  0  0  0  0  0  0  0  0
    0.4548   -2.9603    4.5754 H   0  0  0  0  0  0  0  0  0  0  0  0
   -0.8639   -1.8751    4.0944 H   0  0  0  0  0  0  0  0  0  0  0  0
    0.4195   -1.2642    2.1508 H   0  0  0  0  0  0  0  0  0  0  0  0
    1.9387   -0.4438    2.3707 H   0  0  0  0  0  0  0  0  0  0  0  0
    3.4555   -1.9082    3.8513 H   0  0  0  0  0  0  0  0  0  0  0  0
    3.6201   -1.2860    1.1163 H   0  0  0  0  0  0  0  0  0  0  0  0
    4.9930   -1.2789    2.1528 H   0  0  0  0  0  0  0  0  0  0  0  0
    5.9223   -3.1745    1.3134 H   0  0  0  0  0  0  0  0  0  0  0  0
    5.6207   -4.3791   -2.1401 H   0  0  0  0  0  0  0  0  0  0  0  0
    4.8533   -5.3220   -0.9014 H   0  0  0  0  0  0  0  0  0  0  0  0
    6.4123   -4.5870   -0.5779 H   0  0  0  0  0  0  0  0  0  0  0  0
    5.0232   -0.9835   -0.7861 H   0  0  0  0  0  0  0  0  0  0  0  0
    7.0074   -2.7148   -1.7898 H   0  0  0  0  0  0  0  0  0  0  0  0
    4.3893   -0.9496   -3.0414 H   0  0  0  0  0  0  0  0  0  0  0  0
    5.2601   -2.4418   -3.4420 H   0  0  0  0  0  0  0  0  0  0  0  0
    2.8562   -2.1230   -0.5566 H   0  0  0  0  0  0  0  0  0  0  0  0
    1.5639   -4.3780   -0.8487 H   0  0  0  0  0  0  0  0  0  0  0  0
    1.1545   -4.6241    3.2495 H   0  0  0  0  0  0  0  0  0  0  0  0
    2.4963   -4.6236    5.5863 H   0  0  0  0  0  0  0  0  0  0  0  0
    3.8503   -5.7894    5.6203 H   0  0  0  0  0  0  0  0  0  0  0  0
    5.8975   -5.5603    2.1360 H   0  0  0  0  0  0  0  0  0  0  0  0
    4.7484   -6.4000    1.0949 H   0  0  0  0  0  0  0  0  0  0  0  0
    5.7591   -4.6398    4.1616 H   0  0  0  0  0  0  0  0  0  0  0  0
    4.9422   -3.3325    4.9738 H   0  0  0  0  0  0  0  0  0  0  0  0
    5.8722   -2.9947    3.5408 H   0  0  0  0  0  0  0  0  0  0  0  0
  1  2  1  0
  1 31  1  0
  1 32  1  0
  1 33  1  0
  2  3  1  0
  3  4  1  0
  3 34  1  0
  3 35  1  0
  4  5  1  0
  5 29  1  0
  5  6  1  0
  5 36  1  1
  6  7  1  0
  6 37  1  0
  6 38  1  0
  7 28  1  0
  7  8  1  0
  7 39  1  6
  8 15  1  0
  8  9  1  6
  8 10  1  0
  9 40  1  0
  9 41  1  0
  9 42  1  0
 10 11  1  0
 10 12  1  0
 10 43  1  1
 11 44  1  0
 12 13  1  0
 12 45  1  0
 12 46  1  0
 13 14  2  0
 13 15  1  0
 15 16  1  0
 15 47  1  1
 16 17  2  0
 16 48  1  0
 17 28  1  0
 17 18  1  0
 18 19  2  0
 18 20  1  0
 20 25  1  0
 20 21  1  0
 20 49  1  6
 21 22  1  0
 22 23  2  0
 22 24  1  0
 24 25  1  0
 24 50  1  0
 24 51  1  0
 25 29  1  0
 25 26  1  6
 26 27  1  0
 28 27  1  1
 27 52  1  0
 27 53  1  0
 28 29  1  0
 29 30  1  1
 30 54  1  0
 30 55  1  0
 30 56  1  0
M  END
>  <i_m_ct_stereo_status>  (269) 
1

>  <s_m_source_file>  (269) 
/var/tmp/pbs.5076255.sched01/tmpycp4azd_/132pnz8hy5b.sdf

>  <i_m_source_file_index>  (269) 
1

>  <i_lp_mmshare_version>  (269) 
48012

>  <i_f3d_flags>  (269) 
0

>  <s_epik_input>  (269) 
W0NIM11PW0NIMl1PW0NAQEhdKFtDQEBdMTJbQ0gzXSlbQ0gyXVtDQEhdKFtDQEBdMyhbQ0gzXSlbQ0BIXShbQ0hdPTQpQyg9TylbQ0gyXVtDQEBIXTNbT0hdKVtDQF0yKFtDSDJdTzUpQzRDKD1PKVtDQEhdKFtDQF0xNTYpT0MoPU8pW0NIMl02

>  <s_epik_cmdline>  (269) 
J2VwaWtfcHl0aG9uJywgJy1waHQnLCAnMi4wJywgJy1waCcsICc3LjAnLCAnLXRuJywgJzgnLCAnLW1hJywgJzIwMCcsICctaW1hZScsICc8aW5maWxlLm1hZT4nLCAnLW9tYWUnLCAnPG91dGZpbGUubWFlPic=

>  <r_lp_tautomer_probability>  (269) 
1

>  <r_epik_Ionization_Penalty>  (269) 
3.19313e-07

>  <r_epik_Ionization_Penalty_Charging>  (269) 
0

>  <r_epik_Ionization_Penalty_Neutral>  (269) 
3.19313e-07

>  <r_epik_State_Penalty>  (269) 
-0

>  <r_epik_Charging_Adjusted_Penalty>  (269) 
0

>  <i_epik_Tot_Q>  (269) 
0

>  <i_epik_Tot_abs_Q>  (269) 
0

>  <s_epik_Chemistry_Notes>  (269) 
This compound has an ester and may undergo hydrolysis at high or low pH. This compound contains an acetal/aminal-like group ( X-CH(R)-Y where X, Y are N, S, or O) that may be acid/base labile, releasing an aldehyde.

>  <s_lp_Force_Field>  (269) 
OPLS3e

>  <r_lp_Energy>  (269) 
60.795

>  <b_lp_Chiralities_Consistent>  (269) 
1

>  <s_lp_Variant>  (269) 
84:0-1

>  <s_i_glide_gridfile>  (269) 
pfpi4k_grid

>  <i_i_glide_lignum>  (269) 
1

>  <i_i_glide_rotatable_bonds>  (269) 
4

>  <r_i_docking_score>  (269) 
-2.91356

>  <r_i_glide_ligand_efficiency>  (269) 
-0.0971187

>  <r_i_glide_ligand_efficiency_sa>  (269) 
-0.30177

>  <r_i_glide_ligand_efficiency_ln>  (269) 
-0.661992

>  <r_i_glide_gscore>  (269) 
-2.91356

>  <r_i_glide_lipo>  (269) 
-0.1728

>  <r_i_glide_hbond>  (269) 
-0.32

>  <r_i_glide_metal>  (269) 
-0

>  <r_i_glide_rewards>  (269) 
-0.556111

>  <r_i_glide_evdw>  (269) 
-20.5162

>  <r_i_glide_ecoul>  (269) 
-6.3457

>  <r_i_glide_erotb>  (269) 
0.225876

>  <r_i_glide_esite>  (269) 
-0.112862

>  <r_i_glide_emodel>  (269) 
-31.987

>  <r_i_glide_energy>  (269) 
-26.8619

>  <r_i_glide_einternal>  (269) 
0.204873

>  <r_i_glide_intrahb_reward>  (269) 
-0

>  <i_i_glide_confnum>  (269) 
1

>  <i_i_glide_posenum>  (269) 
23

>  <r_i_glide_eff_state_penalty>  (269) 
0

>  <ligand_id>  (269) 
84

>  <original_smiles>  (269) 
COCOC1CC2C3(C)C(O)CC(=O)C3C=C3C(=O)C4OC(=O)CC45OCC32C15C

>  <smiles>  (269) 
[H]OC1([H])C([H])([H])C(=O)C2([H])C([H])=C3C(=O)C4([H])OC(=O)C([H])([H])C45OC([H])([H])C34C([H])(C([H])([H])C([H])(OC([H])([H])OC([H])([H])[H])C54C([H])([H])[H])C21C([H])([H])[H]

$$$$
84:0:2
     RDKit          3D

 56 61  0  0  1  0  0  0  0  0999 V2000
    1.9532   -0.2814    1.7248 C   0  0  0  0  0  0  0  0  0  0  0  0
    2.0930   -0.6034    3.0964 O   0  0  0  0  0  0  0  0  0  0  0  0
    1.4458   -1.7671    3.4721 C   0  0  0  0  0  0  0  0  0  0  0  0
    2.0779   -2.9218    2.9978 O   0  0  0  0  0  0  0  0  0  0  0  0
    3.4062   -3.1381    3.4691 C   0  0  2  0  0  0  0  0  0  0  0  0
    4.4471   -2.4355    2.5208 C   0  0  0  0  0  0  0  0  0  0  0  0
    5.0616   -3.5151    1.5653 C   0  0  2  0  0  0  0  0  0  0  0  0
    5.1004   -3.1552    0.0516 C   0  0  2  0  0  0  0  0  0  0  0  0
    5.7507   -4.3592   -0.7249 C   0  0  0  0  0  0  0  0  0  0  0  0
    5.7637   -1.8295   -0.3942 C   0  0  1  0  0  0  0  0  0  0  0  0
    7.1743   -1.8671   -0.3972 O   0  0  0  0  0  0  0  0  0  0  0  0
    5.1820   -1.5147   -1.8154 C   0  0  0  0  0  0  0  0  0  0  0  0
    3.8752   -2.3095   -1.8502 C   0  0  0  0  0  0  0  0  0  0  0  0
    3.1293   -2.4181   -2.8151 O   0  0  0  0  0  0  0  0  0  0  0  0
    3.6892   -2.9030   -0.4620 C   0  0  1  0  0  0  0  0  0  0  0  0
    2.7158   -3.9884   -0.1604 C   0  0  0  0  0  0  0  0  0  0  0  0
    2.9119   -4.8041    0.9181 C   0  0  0  0  0  0  0  0  0  0  0  0
    1.8301   -5.7445    1.3037 C   0  0  0  0  0  0  0  0  0  0  0  0
    1.0147   -6.2519    0.5108 O   0  0  0  0  0  0  0  0  0  0  0  0
    1.6899   -5.9308    2.7909 C   0  0  1  0  0  0  0  0  0  0  0  0
    1.1263   -7.1516    3.2374 O   0  0  0  0  0  0  0  0  0  0  0  0
    1.5681   -7.4898    4.4405 C   0  0  0  0  0  0  0  0  0  0  0  0
    1.2032   -8.4323    5.1392 O   0  0  0  0  0  0  0  0  0  0  0  0
    2.6593   -6.4902    4.8830 C   0  0  0  0  0  0  0  0  0  0  0  0
    3.0530   -5.9078    3.5150 C   0  0  1  0  0  0  0  0  0  0  0  0
    3.9373   -6.8497    2.8489 O   0  0  0  0  0  0  0  0  0  0  0  0
    4.7578   -6.1699    1.8716 C   0  0  0  0  0  0  0  0  0  0  0  0
    4.1772   -4.7499    1.8510 C   0  0  1  0  0  0  0  0  0  0  0  0
    3.8710   -4.6039    3.3604 C   0  0  1  0  0  0  0  0  0  0  0  0
    5.0950   -4.7313    4.3478 C   0  0  0  0  0  0  0  0  0  0  0  0
    2.6587    0.4921    1.4540 H   0  0  0  0  0  0  0  0  0  0  0  0
    0.9726    0.0456    1.4721 H   0  0  0  0  0  0  0  0  0  0  0  0
    2.1933   -1.1798    1.1527 H   0  0  0  0  0  0  0  0  0  0  0  0
    1.3627   -1.8087    4.5616 H   0  0  0  0  0  0  0  0  0  0  0  0
    0.4280   -1.7500    3.0675 H   0  0  0  0  0  0  0  0  0  0  0  0
    3.4773   -2.7974    4.4982 H   0  0  0  0  0  0  0  0  0  0  0  0
    4.0239   -1.6102    1.9650 H   0  0  0  0  0  0  0  0  0  0  0  0
    5.2390   -2.0092    3.1336 H   0  0  0  0  0  0  0  0  0  0  0  0
    6.0739   -3.7116    1.9005 H   0  0  0  0  0  0  0  0  0  0  0  0
    5.9958   -4.1061   -1.7525 H   0  0  0  0  0  0  0  0  0  0  0  0
    5.0721   -5.2110   -0.7956 H   0  0  0  0  0  0  0  0  0  0  0  0
    6.6619   -4.7064   -0.2340 H   0  0  0  0  0  0  0  0  0  0  0  0
    5.4556   -1.0347    0.2815 H   0  0  0  0  0  0  0  0  0  0  0  0
    7.4444   -2.7037   -0.7205 H   0  0  0  0  0  0  0  0  0  0  0  0
    4.9901   -0.4535   -1.9344 H   0  0  0  0  0  0  0  0  0  0  0  0
    5.8237   -1.8583   -2.6071 H   0  0  0  0  0  0  0  0  0  0  0  0
    3.3128   -2.0079    0.0457 H   0  0  0  0  0  0  0  0  0  0  0  0
    1.8143   -4.0354   -0.7438 H   0  0  0  0  0  0  0  0  0  0  0  0
    1.0480   -5.1336    3.1805 H   0  0  0  0  0  0  0  0  0  0  0  0
    2.2091   -5.7400    5.5215 H   0  0  0  0  0  0  0  0  0  0  0  0
    3.4842   -6.9805    5.3865 H   0  0  0  0  0  0  0  0  0  0  0  0
    5.8133   -6.1598    2.1772 H   0  0  0  0  0  0  0  0  0  0  0  0
    4.6999   -6.6726    0.8982 H   0  0  0  0  0  0  0  0  0  0  0  0
    5.5737   -5.7174    4.3608 H   0  0  0  0  0  0  0  0  0  0  0  0
    4.7834   -4.5405    5.3811 H   0  0  0  0  0  0  0  0  0  0  0  0
    5.8768   -4.0064    4.1361 H   0  0  0  0  0  0  0  0  0  0  0  0
  1  2  1  0
  1 31  1  0
  1 32  1  0
  1 33  1  0
  2  3  1  0
  3  4  1  0
  3 34  1  0
  3 35  1  0
  4  5  1  0
  5 29  1  0
  5  6  1  0
  5 36  1  1
  6  7  1  0
  6 37  1  0
  6 38  1  0
  7 28  1  0
  7  8  1  0
  7 39  1  1
  8 15  1  0
  8  9  1  6
  8 10  1  0
  9 40  1  0
  9 41  1  0
  9 42  1  0
 10 11  1  0
 10 12  1  0
 10 43  1  1
 11 44  1  0
 12 13  1  0
 12 45  1  0
 12 46  1  0
 13 14  2  0
 13 15  1  0
 15 16  1  0
 15 47  1  1
 16 17  2  0
 16 48  1  0
 17 28  1  0
 17 18  1  0
 18 19  2  0
 18 20  1  0
 20 25  1  0
 20 21  1  0
 20 49  1  1
 21 22  1  0
 22 23  2  0
 22 24  1  0
 24 25  1  0
 24 50  1  0
 24 51  1  0
 25 29  1  0
 25 26  1  6
 26 27  1  0
 28 27  1  1
 27 52  1  0
 27 53  1  0
 28 29  1  0
 29 30  1  1
 30 54  1  0
 30 55  1  0
 30 56  1  0
M  END
>  <i_m_ct_stereo_status>  (270) 
1

>  <s_m_source_file>  (270) 
/var/tmp/pbs.5076255.sched01/tmpycp4azd_/132pnz8hy5b.sdf

>  <i_m_source_file_index>  (270) 
1

>  <i_lp_mmshare_version>  (270) 
48012

>  <i_f3d_flags>  (270) 
0

>  <s_epik_input>  (270) 
W0NIM11PW0NIMl1PW0NAQEhdKFtDQEBdMTJbQ0gzXSlbQ0gyXVtDQEhdKFtDQEBdMyhbQ0gzXSlbQ0BIXShbQ0hdPTQpQyg9TylbQ0gyXVtDQEBIXTNbT0hdKVtDQF0yKFtDSDJdTzUpQzRDKD1PKVtDQEhdKFtDQF0xNTYpT0MoPU8pW0NIMl02

>  <s_epik_cmdline>  (270) 
J2VwaWtfcHl0aG9uJywgJy1waHQnLCAnMi4wJywgJy1waCcsICc3LjAnLCAnLXRuJywgJzgnLCAnLW1hJywgJzIwMCcsICctaW1hZScsICc8aW5maWxlLm1hZT4nLCAnLW9tYWUnLCAnPG91dGZpbGUubWFlPic=

>  <r_lp_tautomer_probability>  (270) 
1

>  <r_epik_Ionization_Penalty>  (270) 
3.19313e-07

>  <r_epik_Ionization_Penalty_Charging>  (270) 
0

>  <r_epik_Ionization_Penalty_Neutral>  (270) 
3.19313e-07

>  <r_epik_State_Penalty>  (270) 
-0

>  <r_epik_Charging_Adjusted_Penalty>  (270) 
0

>  <i_epik_Tot_Q>  (270) 
0

>  <i_epik_Tot_abs_Q>  (270) 
0

>  <s_epik_Chemistry_Notes>  (270) 
This compound has an ester and may undergo hydrolysis at high or low pH. This compound contains an acetal/aminal-like group ( X-CH(R)-Y where X, Y are N, S, or O) that may be acid/base labile, releasing an aldehyde.

>  <s_lp_Force_Field>  (270) 
OPLS3e

>  <r_lp_Energy>  (270) 
60.795

>  <b_lp_Chiralities_Consistent>  (270) 
1

>  <s_lp_Variant>  (270) 
84:0-1

>  <s_i_glide_gridfile>  (270) 
pfpi4k_grid

>  <i_i_glide_lignum>  (270) 
1

>  <i_i_glide_rotatable_bonds>  (270) 
4

>  <r_i_docking_score>  (270) 
-2.85524

>  <r_i_glide_ligand_efficiency>  (270) 
-0.0951747

>  <r_i_glide_ligand_efficiency_sa>  (270) 
-0.29573

>  <r_i_glide_ligand_efficiency_ln>  (270) 
-0.648742

>  <r_i_glide_gscore>  (270) 
-2.85524

>  <r_i_glide_lipo>  (270) 
-0.156406

>  <r_i_glide_hbond>  (270) 
-0.338885

>  <r_i_glide_metal>  (270) 
-0

>  <r_i_glide_rewards>  (270) 
-0.56737

>  <r_i_glide_evdw>  (270) 
-23.6876

>  <r_i_glide_ecoul>  (270) 
-4.94663

>  <r_i_glide_erotb>  (270) 
0.225876

>  <r_i_glide_esite>  (270) 
-0.0920812

>  <r_i_glide_emodel>  (270) 
-32.6054

>  <r_i_glide_energy>  (270) 
-28.6342

>  <r_i_glide_einternal>  (270) 
0.61159

>  <r_i_glide_intrahb_reward>  (270) 
-0

>  <i_i_glide_confnum>  (270) 
5

>  <i_i_glide_posenum>  (270) 
13

>  <r_i_glide_eff_state_penalty>  (270) 
0

>  <ligand_id>  (270) 
84

>  <original_smiles>  (270) 
COCOC1CC2C3(C)C(O)CC(=O)C3C=C3C(=O)C4OC(=O)CC45OCC32C15C

>  <smiles>  (270) 
[H]OC1([H])C([H])([H])C(=O)C2([H])C([H])=C3C(=O)C4([H])OC(=O)C([H])([H])C45OC([H])([H])C34C([H])(C([H])([H])C([H])(OC([H])([H])OC([H])([H])[H])C54C([H])([H])[H])C21C([H])([H])[H]

$$$$
85:0:0
     RDKit          3D

 61 66  0  0  1  0  0  0  0  0999 V2000
    1.6287  -10.7309    5.2560 C   0  0  0  0  0  0  0  0  0  0  0  0
    1.4842   -9.9714    3.9242 C   0  0  0  0  0  0  0  0  0  0  0  0
    1.0589  -11.0196    2.8938 C   0  0  0  0  0  0  0  0  0  0  0  0
    0.4786   -8.8588    4.0869 C   0  0  0  0  0  0  0  0  0  0  0  0
   -0.8226   -8.7990    3.7124 C   0  0  0  0  0  0  0  0  0  0  0  0
   -1.2065   -7.4163    3.6443 C   0  0  2  0  0  0  0  0  0  0  0  0
   -0.6128   -6.6592    2.5702 O   0  0  0  0  0  0  0  0  0  0  0  0
    0.0305   -6.5782    3.8820 C   0  0  2  0  0  0  0  0  0  0  0  0
    1.1040   -7.5429    4.3408 C   0  0  1  0  0  0  0  0  0  0  0  0
    1.1957   -7.3864    5.8831 C   0  0  0  0  0  0  0  0  0  0  0  0
    2.4843   -7.6378    3.5934 C   0  0  2  0  0  0  0  0  0  0  0  0
    3.6111   -6.8315    4.3397 C   0  0  0  0  0  0  0  0  0  0  0  0
    3.5739   -5.3047    4.0924 C   0  0  0  0  0  0  0  0  0  0  0  0
    3.7707   -5.0752    2.5913 C   0  0  1  0  0  0  0  0  0  0  0  0
    2.6334   -5.7373    1.8304 C   0  0  1  0  0  0  0  0  0  0  0  0
    2.7446   -5.1771    0.4005 C   0  0  0  0  0  0  0  0  0  0  0  0
    3.7063   -3.9732    0.5093 C   0  0  1  0  0  0  0  0  0  0  0  0
    3.3387   -2.8612   -0.2999 O   0  0  0  0  0  0  0  0  0  0  0  0
    3.8630   -3.6386    2.0152 C   0  0  0  0  0  0  0  0  0  0  0  0
    2.7554   -2.7067    2.5395 C   0  0  0  0  0  0  0  0  0  0  0  0
    5.2392   -3.0141    2.2969 C   0  0  0  0  0  0  0  0  0  0  0  0
    2.5565   -7.2674    2.0577 C   0  0  2  0  0  0  0  0  0  0  0  0
    1.4633   -7.7317    1.2826 O   0  0  0  0  0  0  0  0  0  0  0  0
    3.7464   -8.1169    1.5638 C   0  0  0  0  0  0  0  0  0  0  0  0
    3.5072   -9.4731    2.2345 C   0  0  1  0  0  0  0  0  0  0  0  0
    4.7143  -10.2033    2.3950 O   0  0  0  0  0  0  0  0  0  0  0  0
    2.8105   -9.1803    3.5957 C   0  0  2  0  0  0  0  0  0  0  0  0
    2.3034  -11.5805    5.1409 H   0  0  0  0  0  0  0  0  0  0  0  0
    0.6599  -11.1146    5.5887 H   0  0  0  0  0  0  0  0  0  0  0  0
    2.0286  -10.1193    6.0676 H   0  0  0  0  0  0  0  0  0  0  0  0
    1.8641  -11.7380    2.7687 H   0  0  0  0  0  0  0  0  0  0  0  0
    0.7918  -10.5769    1.9364 H   0  0  0  0  0  0  0  0  0  0  0  0
    0.2140  -11.5987    3.2429 H   0  0  0  0  0  0  0  0  0  0  0  0
   -1.4234   -9.6138    3.3494 H   0  0  0  0  0  0  0  0  0  0  0  0
   -2.1625   -7.0518    4.0589 H   0  0  0  0  0  0  0  0  0  0  0  0
   -0.0257   -5.5865    4.3227 H   0  0  0  0  0  0  0  0  0  0  0  0
    1.4451   -6.3678    6.1790 H   0  0  0  0  0  0  0  0  0  0  0  0
    1.9238   -8.0486    6.3341 H   0  0  0  0  0  0  0  0  0  0  0  0
    0.2331   -7.6289    6.3467 H   0  0  0  0  0  0  0  0  0  0  0  0
    3.6137   -7.0091    5.4160 H   0  0  0  0  0  0  0  0  0  0  0  0
    4.5817   -7.1952    4.0328 H   0  0  0  0  0  0  0  0  0  0  0  0
    2.6300   -4.8883    4.4408 H   0  0  0  0  0  0  0  0  0  0  0  0
    4.3697   -4.8178    4.6617 H   0  0  0  0  0  0  0  0  0  0  0  0
    4.7071   -5.5515    2.3146 H   0  0  0  0  0  0  0  0  0  0  0  0
    1.7077   -5.3226    2.2282 H   0  0  0  0  0  0  0  0  0  0  0  0
    3.1385   -5.9142   -0.2974 H   0  0  0  0  0  0  0  0  0  0  0  0
    1.7694   -4.8826    0.0348 H   0  0  0  0  0  0  0  0  0  0  0  0
    4.6587   -4.3194    0.1279 H   0  0  0  0  0  0  0  0  0  0  0  0
    2.5200   -2.5086   -0.0290 H   0  0  0  0  0  0  0  0  0  0  0  0
    2.8351   -1.7145    2.0948 H   0  0  0  0  0  0  0  0  0  0  0  0
    2.8374   -2.5700    3.6239 H   0  0  0  0  0  0  0  0  0  0  0  0
    1.7539   -3.0740    2.3288 H   0  0  0  0  0  0  0  0  0  0  0  0
    5.3395   -2.0445    1.8018 H   0  0  0  0  0  0  0  0  0  0  0  0
    6.0534   -3.6466    1.9397 H   0  0  0  0  0  0  0  0  0  0  0  0
    5.3936   -2.8559    3.3667 H   0  0  0  0  0  0  0  0  0  0  0  0
    1.3287   -8.6461    1.4260 H   0  0  0  0  0  0  0  0  0  0  0  0
    3.8060   -8.2138    0.4811 H   0  0  0  0  0  0  0  0  0  0  0  0
    4.7022   -7.7142    1.8826 H   0  0  0  0  0  0  0  0  0  0  0  0
    2.9061  -10.0589    1.5543 H   0  0  0  0  0  0  0  0  0  0  0  0
    4.6734  -10.9330    1.7843 H   0  0  0  0  0  0  0  0  0  0  0  0
    3.5174   -9.3616    4.3979 H   0  0  0  0  0  0  0  0  0  0  0  0
  1  2  1  0
  1 28  1  0
  1 29  1  0
  1 30  1  0
  2 27  1  0
  2  3  1  0
  2  4  1  0
  3 31  1  0
  3 32  1  0
  3 33  1  0
  4  9  1  0
  4  5  2  0
  5  6  1  0
  5 34  1  0
  6  8  1  0
  6  7  1  0
  6 35  1  1
  7  8  1  0
  8  9  1  0
  8 36  1  1
  9 10  1  1
  9 11  1  0
 10 37  1  0
 10 38  1  0
 10 39  1  0
 11 22  1  0
 11 27  1  0
 11 12  1  1
 12 13  1  0
 12 40  1  0
 12 41  1  0
 13 14  1  0
 13 42  1  0
 13 43  1  0
 14 19  1  0
 14 15  1  0
 14 44  1  6
 15 16  1  0
 15 22  1  0
 15 45  1  1
 16 17  1  0
 16 46  1  0
 16 47  1  0
 17 18  1  0
 17 19  1  0
 17 48  1  6
 18 49  1  0
 19 20  1  0
 19 21  1  0
 20 50  1  0
 20 51  1  0
 20 52  1  0
 21 53  1  0
 21 54  1  0
 21 55  1  0
 22 23  1  6
 22 24  1  0
 23 56  1  0
 24 25  1  0
 24 57  1  0
 24 58  1  0
 25 26  1  0
 25 27  1  0
 25 59  1  6
 26 60  1  0
 27 61  1  1
M  END
>  <i_m_ct_stereo_status>  (271) 
1

>  <s_m_source_file>  (271) 
/var/tmp/pbs.5076255.sched01/tmpycp4azd_/132pnz8hy5b.sdf

>  <i_m_source_file_index>  (271) 
2

>  <i_lp_mmshare_version>  (271) 
48012

>  <i_f3d_flags>  (271) 
0

>  <s_epik_input>  (271) 
TzFbQ0BIXTJbQ0BASF0xW0NIXT1DKFtDQF0yKFtDQF0zNDUpW0NIM10pQyhbQ0gzXSkoW0NIM10pW0NASF01W0NASF0oW09IXSlbQ0gyXVtDQF00KFtPSF0pW0NASF02W0NASF0oW0NIMl1bQ0gyXTMpQyhbQ0gzXSkoW0NIM10pW0NAQEhdKFtDSDJdNilbT0hd

>  <s_epik_cmdline>  (271) 
J2VwaWtfcHl0aG9uJywgJy1waHQnLCAnMi4wJywgJy1waCcsICc3LjAnLCAnLXRuJywgJzgnLCAnLW1hJywgJzIwMCcsICctaW1hZScsICc8aW5maWxlLm1hZT4nLCAnLW9tYWUnLCAnPG91dGZpbGUubWFlPic=

>  <r_lp_tautomer_probability>  (271) 
1

>  <r_epik_Ionization_Penalty>  (271) 
3.67725e-06

>  <r_epik_Ionization_Penalty_Charging>  (271) 
0

>  <r_epik_Ionization_Penalty_Neutral>  (271) 
3.67725e-06

>  <r_epik_State_Penalty>  (271) 
-0

>  <r_epik_Charging_Adjusted_Penalty>  (271) 
0

>  <i_epik_Tot_Q>  (271) 
0

>  <i_epik_Tot_abs_Q>  (271) 
0

>  <s_lp_Force_Field>  (271) 
OPLS3e

>  <r_lp_Energy>  (271) 
55.9879

>  <b_lp_Chiralities_Consistent>  (271) 
1

>  <s_lp_Variant>  (271) 
85:0-1

>  <s_i_glide_gridfile>  (271) 
pfpi4k_grid

>  <i_i_glide_lignum>  (271) 
2

>  <i_i_glide_rotatable_bonds>  (271) 
3

>  <r_i_docking_score>  (271) 
-3.76276

>  <r_i_glide_ligand_efficiency>  (271) 
-0.139361

>  <r_i_glide_ligand_efficiency_sa>  (271) 
-0.418084

>  <r_i_glide_ligand_efficiency_ln>  (271) 
-0.875908

>  <r_i_glide_gscore>  (271) 
-3.76276

>  <r_i_glide_lipo>  (271) 
-0.1972

>  <r_i_glide_hbond>  (271) 
-0.32

>  <r_i_glide_metal>  (271) 
-0

>  <r_i_glide_rewards>  (271) 
-0.855589

>  <r_i_glide_evdw>  (271) 
-25.7826

>  <r_i_glide_ecoul>  (271) 
-7.33893

>  <r_i_glide_erotb>  (271) 
0

>  <r_i_glide_esite>  (271) 
0

>  <r_i_glide_emodel>  (271) 
-40.7297

>  <r_i_glide_energy>  (271) 
-33.1215

>  <r_i_glide_einternal>  (271) 
1.37589

>  <r_i_glide_intrahb_reward>  (271) 
-0

>  <i_i_glide_confnum>  (271) 
2

>  <i_i_glide_posenum>  (271) 
8

>  <r_i_glide_eff_state_penalty>  (271) 
0

>  <ligand_id>  (271) 
85

>  <original_smiles>  (271) 
CC1(C)C2=CC3OC3C2(C)C23CCC4C(CC(O)C4(C)C)C2(O)CC(O)C13

>  <smiles>  (271) 
[H]OC1([H])C([H])([H])C2(O[H])C3([H])C([H])([H])C([H])(O[H])C(C([H])([H])[H])(C([H])([H])[H])C3([H])C([H])([H])C([H])([H])C23C1([H])C(C([H])([H])[H])(C([H])([H])[H])C1=C([H])C2([H])OC2([H])C13C([H])([H])[H]

$$$$
85:0:1
     RDKit          3D

 61 66  0  0  1  0  0  0  0  0999 V2000
    4.3881   -7.3446    5.8601 C   0  0  0  0  0  0  0  0  0  0  0  0
    3.4718   -6.7878    4.7304 C   0  0  0  0  0  0  0  0  0  0  0  0
    2.2286   -7.7098    4.7170 C   0  0  0  0  0  0  0  0  0  0  0  0
    3.1413   -5.3171    5.0136 C   0  0  0  0  0  0  0  0  0  0  0  0
    2.0302   -4.7834    5.5179 C   0  0  0  0  0  0  0  0  0  0  0  0
    1.9961   -3.3798    5.1315 C   0  0  2  0  0  0  0  0  0  0  0  0
    1.7892   -3.0756    3.7371 O   0  0  0  0  0  0  0  0  0  0  0  0
    3.1678   -3.1283    4.2146 C   0  0  2  0  0  0  0  0  0  0  0  0
    4.0166   -4.3898    4.2478 C   0  0  1  0  0  0  0  0  0  0  0  0
    5.2124   -4.0754    5.1718 C   0  0  0  0  0  0  0  0  0  0  0  0
    4.3607   -5.1846    2.9407 C   0  0  2  0  0  0  0  0  0  0  0  0
    5.8020   -4.8395    2.4155 C   0  0  0  0  0  0  0  0  0  0  0  0
    5.8990   -3.4973    1.6543 C   0  0  0  0  0  0  0  0  0  0  0  0
    4.9931   -3.5970    0.4265 C   0  0  1  0  0  0  0  0  0  0  0  0
    3.5592   -3.8162    0.8837 C   0  0  1  0  0  0  0  0  0  0  0  0
    2.7080   -3.5820   -0.3750 C   0  0  0  0  0  0  0  0  0  0  0  0
    3.6614   -2.9007   -1.3865 C   0  0  1  0  0  0  0  0  0  0  0  0
    3.0265   -1.8627   -2.1192 O   0  0  0  0  0  0  0  0  0  0  0  0
    4.9193   -2.4426   -0.6011 C   0  0  0  0  0  0  0  0  0  0  0  0
    4.7515   -1.0597    0.0573 C   0  0  0  0  0  0  0  0  0  0  0  0
    6.1590   -2.4354   -1.5080 C   0  0  0  0  0  0  0  0  0  0  0  0
    3.3711   -5.1040    1.7169 C   0  0  2  0  0  0  0  0  0  0  0  0
    1.9969   -5.2135    2.0599 O   0  0  0  0  0  0  0  0  0  0  0  0
    3.6307   -6.4264    0.9882 C   0  0  0  0  0  0  0  0  0  0  0  0
    3.6926   -7.4580    2.1249 C   0  0  1  0  0  0  0  0  0  0  0  0
    4.5153   -8.5595    1.7574 O   0  0  0  0  0  0  0  0  0  0  0  0
    4.2691   -6.7060    3.3696 C   0  0  2  0  0  0  0  0  0  0  0  0
    4.5950   -8.4031    5.7054 H   0  0  0  0  0  0  0  0  0  0  0  0
    3.9217   -7.2318    6.8391 H   0  0  0  0  0  0  0  0  0  0  0  0
    5.3597   -6.8446    5.9070 H   0  0  0  0  0  0  0  0  0  0  0  0
    2.5202   -8.7170    4.4252 H   0  0  0  0  0  0  0  0  0  0  0  0
    1.4582   -7.3682    4.0327 H   0  0  0  0  0  0  0  0  0  0  0  0
    1.7733   -7.7950    5.7055 H   0  0  0  0  0  0  0  0  0  0  0  0
    1.2062   -5.3128    5.9766 H   0  0  0  0  0  0  0  0  0  0  0  0
    1.7468   -2.6064    5.8718 H   0  0  0  0  0  0  0  0  0  0  0  0
    3.6628   -2.1546    4.1544 H   0  0  0  0  0  0  0  0  0  0  0  0
    5.7923   -3.2274    4.8088 H   0  0  0  0  0  0  0  0  0  0  0  0
    5.8906   -4.9099    5.2987 H   0  0  0  0  0  0  0  0  0  0  0  0
    4.8644   -3.8078    6.1789 H   0  0  0  0  0  0  0  0  0  0  0  0
    6.5426   -4.8530    3.2152 H   0  0  0  0  0  0  0  0  0  0  0  0
    6.1489   -5.6236    1.7616 H   0  0  0  0  0  0  0  0  0  0  0  0
    5.6092   -2.6715    2.3054 H   0  0  0  0  0  0  0  0  0  0  0  0
    6.9358   -3.3209    1.3540 H   0  0  0  0  0  0  0  0  0  0  0  0
    5.3203   -4.4602   -0.1459 H   0  0  0  0  0  0  0  0  0  0  0  0
    3.3090   -2.9869    1.5424 H   0  0  0  0  0  0  0  0  0  0  0  0
    2.3051   -4.5035   -0.7905 H   0  0  0  0  0  0  0  0  0  0  0  0
    1.8673   -2.9459   -0.1204 H   0  0  0  0  0  0  0  0  0  0  0  0
    3.9533   -3.6614   -2.1049 H   0  0  0  0  0  0  0  0  0  0  0  0
    2.3385   -1.4665   -1.5885 H   0  0  0  0  0  0  0  0  0  0  0  0
    4.6751   -0.2748   -0.6934 H   0  0  0  0  0  0  0  0  0  0  0  0
    5.6177   -0.8108    0.6846 H   0  0  0  0  0  0  0  0  0  0  0  0
    3.8614   -0.9909    0.6798 H   0  0  0  0  0  0  0  0  0  0  0  0
    6.0496   -1.6905   -2.2977 H   0  0  0  0  0  0  0  0  0  0  0  0
    6.3172   -3.4005   -1.9964 H   0  0  0  0  0  0  0  0  0  0  0  0
    7.0653   -2.2085   -0.9426 H   0  0  0  0  0  0  0  0  0  0  0  0
    1.9033   -5.8957    2.6925 H   0  0  0  0  0  0  0  0  0  0  0  0
    2.8471   -6.6306    0.2717 H   0  0  0  0  0  0  0  0  0  0  0  0
    4.5724   -6.4346    0.4454 H   0  0  0  0  0  0  0  0  0  0  0  0
    2.6948   -7.8397    2.2771 H   0  0  0  0  0  0  0  0  0  0  0  0
    3.9971   -9.1954    1.2976 H   0  0  0  0  0  0  0  0  0  0  0  0
    5.2871   -7.0456    3.5489 H   0  0  0  0  0  0  0  0  0  0  0  0
  1  2  1  0
  1 28  1  0
  1 29  1  0
  1 30  1  0
  2 27  1  0
  2  3  1  0
  2  4  1  0
  3 31  1  0
  3 32  1  0
  3 33  1  0
  4  9  1  0
  4  5  2  0
  5  6  1  0
  5 34  1  0
  6  8  1  0
  6  7  1  0
  6 35  1  1
  7  8  1  0
  8  9  1  0
  8 36  1  1
  9 10  1  1
  9 11  1  0
 10 37  1  0
 10 38  1  0
 10 39  1  0
 11 22  1  0
 11 27  1  0
 11 12  1  6
 12 13  1  0
 12 40  1  0
 12 41  1  0
 13 14  1  0
 13 42  1  0
 13 43  1  0
 14 19  1  0
 14 15  1  0
 14 44  1  6
 15 16  1  0
 15 22  1  0
 15 45  1  1
 16 17  1  0
 16 46  1  0
 16 47  1  0
 17 18  1  0
 17 19  1  0
 17 48  1  6
 18 49  1  0
 19 20  1  0
 19 21  1  0
 20 50  1  0
 20 51  1  0
 20 52  1  0
 21 53  1  0
 21 54  1  0
 21 55  1  0
 22 23  1  1
 22 24  1  0
 23 56  1  0
 24 25  1  0
 24 57  1  0
 24 58  1  0
 25 26  1  0
 25 27  1  0
 25 59  1  1
 26 60  1  0
 27 61  1  1
M  END
>  <i_m_ct_stereo_status>  (272) 
1

>  <s_m_source_file>  (272) 
/var/tmp/pbs.5076255.sched01/tmpycp4azd_/132pnz8hy5b.sdf

>  <i_m_source_file_index>  (272) 
2

>  <i_lp_mmshare_version>  (272) 
48012

>  <i_f3d_flags>  (272) 
0

>  <s_epik_input>  (272) 
TzFbQ0BIXTJbQ0BASF0xW0NIXT1DKFtDQF0yKFtDQF0zNDUpW0NIM10pQyhbQ0gzXSkoW0NIM10pW0NASF01W0NASF0oW09IXSlbQ0gyXVtDQF00KFtPSF0pW0NASF02W0NASF0oW0NIMl1bQ0gyXTMpQyhbQ0gzXSkoW0NIM10pW0NAQEhdKFtDSDJdNilbT0hd

>  <s_epik_cmdline>  (272) 
J2VwaWtfcHl0aG9uJywgJy1waHQnLCAnMi4wJywgJy1waCcsICc3LjAnLCAnLXRuJywgJzgnLCAnLW1hJywgJzIwMCcsICctaW1hZScsICc8aW5maWxlLm1hZT4nLCAnLW9tYWUnLCAnPG91dGZpbGUubWFlPic=

>  <r_lp_tautomer_probability>  (272) 
1

>  <r_epik_Ionization_Penalty>  (272) 
3.67725e-06

>  <r_epik_Ionization_Penalty_Charging>  (272) 
0

>  <r_epik_Ionization_Penalty_Neutral>  (272) 
3.67725e-06

>  <r_epik_State_Penalty>  (272) 
-0

>  <r_epik_Charging_Adjusted_Penalty>  (272) 
0

>  <i_epik_Tot_Q>  (272) 
0

>  <i_epik_Tot_abs_Q>  (272) 
0

>  <s_lp_Force_Field>  (272) 
OPLS3e

>  <r_lp_Energy>  (272) 
55.9879

>  <b_lp_Chiralities_Consistent>  (272) 
1

>  <s_lp_Variant>  (272) 
85:0-1

>  <s_i_glide_gridfile>  (272) 
pfpi4k_grid

>  <i_i_glide_lignum>  (272) 
2

>  <i_i_glide_rotatable_bonds>  (272) 
3

>  <r_i_docking_score>  (272) 
-2.72181

>  <r_i_glide_ligand_efficiency>  (272) 
-0.100808

>  <r_i_glide_ligand_efficiency_sa>  (272) 
-0.302424

>  <r_i_glide_ligand_efficiency_ln>  (272) 
-0.633593

>  <r_i_glide_gscore>  (272) 
-2.72181

>  <r_i_glide_lipo>  (272) 
-0.206344

>  <r_i_glide_hbond>  (272) 
-0.16

>  <r_i_glide_metal>  (272) 
-0

>  <r_i_glide_rewards>  (272) 
-0.855589

>  <r_i_glide_evdw>  (272) 
-22.1303

>  <r_i_glide_ecoul>  (272) 
-2.62242

>  <r_i_glide_erotb>  (272) 
0

>  <r_i_glide_esite>  (272) 
0

>  <r_i_glide_emodel>  (272) 
-29.7106

>  <r_i_glide_energy>  (272) 
-24.7527

>  <r_i_glide_einternal>  (272) 
1.2861

>  <r_i_glide_intrahb_reward>  (272) 
-0

>  <i_i_glide_confnum>  (272) 
2

>  <i_i_glide_posenum>  (272) 
1

>  <r_i_glide_eff_state_penalty>  (272) 
0

>  <ligand_id>  (272) 
85

>  <original_smiles>  (272) 
CC1(C)C2=CC3OC3C2(C)C23CCC4C(CC(O)C4(C)C)C2(O)CC(O)C13

>  <smiles>  (272) 
[H]OC1([H])C([H])([H])C2(O[H])C3([H])C([H])([H])C([H])(O[H])C(C([H])([H])[H])(C([H])([H])[H])C3([H])C([H])([H])C([H])([H])C23C1([H])C(C([H])([H])[H])(C([H])([H])[H])C1=C([H])C2([H])OC2([H])C13C([H])([H])[H]

$$$$
87:0:0
     RDKit          3D

 38 40  0  0  1  0  0  0  0  0999 V2000
    1.5896   -4.7314    4.0275 C   0  0  0  0  0  0  0  0  0  0  0  0
    2.8150   -4.3196    3.1983 C   0  0  0  0  0  0  0  0  0  0  0  0
    2.7644   -4.8156    1.7542 C   0  0  0  0  0  0  0  0  0  0  0  0
    1.8117   -5.4655    1.3137 O   0  0  0  0  0  0  0  0  0  0  0  0
    3.8452   -4.4453    1.0508 O   0  0  0  0  0  0  0  0  0  0  0  0
    3.9608   -4.7843   -0.3210 C   0  0  0  0  0  0  0  0  0  0  0  0
    4.4843   -3.5898   -1.1284 C   0  0  2  0  0  0  0  0  0  0  0  0
    5.8367   -3.0268   -0.6906 C   0  0  0  0  0  0  0  0  0  0  0  0
    5.6220   -1.8145   -1.5865 C   0  0  2  0  0  0  0  0  0  0  0  0
    4.4813   -1.2027   -0.7822 C   0  0  0  0  0  0  0  0  0  0  0  0
    3.5385   -2.3087   -1.2369 C   0  0  1  0  0  0  0  0  0  0  0  0
    3.4464   -2.0244   -2.7582 C   0  0  0  0  0  0  0  0  0  0  0  0
    2.3821   -2.9115   -3.4540 C   0  0  0  0  0  0  0  0  0  0  0  0
    3.1822   -0.5831   -3.2582 C   0  0  0  0  0  0  0  0  0  0  0  0
    4.9315   -2.3970   -2.8993 C   0  0  2  0  0  0  0  0  0  0  0  0
    4.8925   -3.8718   -2.5755 C   0  0  0  0  0  0  0  0  0  0  0  0
    1.6657   -4.3551    5.0478 H   0  0  0  0  0  0  0  0  0  0  0  0
    1.5004   -5.8171    4.0809 H   0  0  0  0  0  0  0  0  0  0  0  0
    0.6702   -4.3347    3.5954 H   0  0  0  0  0  0  0  0  0  0  0  0
    2.9013   -3.2323    3.1805 H   0  0  0  0  0  0  0  0  0  0  0  0
    3.7242   -4.7014    3.6637 H   0  0  0  0  0  0  0  0  0  0  0  0
    4.6239   -5.6445   -0.4175 H   0  0  0  0  0  0  0  0  0  0  0  0
    2.9887   -5.0722   -0.7200 H   0  0  0  0  0  0  0  0  0  0  0  0
    5.9183   -2.8117    0.3761 H   0  0  0  0  0  0  0  0  0  0  0  0
    6.7101   -3.6252   -0.9499 H   0  0  0  0  0  0  0  0  0  0  0  0
    6.4902   -1.1904   -1.7265 H   0  0  0  0  0  0  0  0  0  0  0  0
    4.6244   -1.1738    0.2990 H   0  0  0  0  0  0  0  0  0  0  0  0
    4.2134   -0.1928   -1.0641 H   0  0  0  0  0  0  0  0  0  0  0  0
    2.5991   -2.3495   -0.6885 H   0  0  0  0  0  0  0  0  0  0  0  0
    2.6522   -3.1237   -4.4880 H   0  0  0  0  0  0  0  0  0  0  0  0
    1.4157   -2.4152   -3.4638 H   0  0  0  0  0  0  0  0  0  0  0  0
    2.2084   -3.8557   -2.9419 H   0  0  0  0  0  0  0  0  0  0  0  0
    2.9262   -0.5790   -4.3170 H   0  0  0  0  0  0  0  0  0  0  0  0
    4.0421    0.0799   -3.1631 H   0  0  0  0  0  0  0  0  0  0  0  0
    2.3441   -0.1448   -2.7196 H   0  0  0  0  0  0  0  0  0  0  0  0
    5.3929   -2.1667   -3.8554 H   0  0  0  0  0  0  0  0  0  0  0  0
    5.8688   -4.3151   -2.7125 H   0  0  0  0  0  0  0  0  0  0  0  0
    4.2229   -4.4643   -3.1868 H   0  0  0  0  0  0  0  0  0  0  0  0
  1  2  1  0
  1 17  1  0
  1 18  1  0
  1 19  1  0
  2  3  1  0
  2 20  1  0
  2 21  1  0
  3  4  2  0
  3  5  1  0
  5  6  1  0
  7  6  1  1
  6 22  1  0
  6 23  1  0
  7 11  1  0
  7 16  1  0
  7  8  1  0
  8  9  1  0
  8 24  1  0
  8 25  1  0
  9 15  1  0
  9 10  1  0
  9 26  1  6
 10 11  1  0
 10 27  1  0
 10 28  1  0
 11 12  1  0
 11 29  1  1
 12 13  1  0
 12 14  1  0
 12 15  1  0
 13 30  1  0
 13 31  1  0
 13 32  1  0
 14 33  1  0
 14 34  1  0
 14 35  1  0
 15 16  1  0
 15 36  1  6
 16 37  1  0
 16 38  1  0
M  END
>  <i_m_ct_stereo_status>  (273) 
1

>  <s_m_source_file>  (273) 
/var/tmp/pbs.5076255.sched01/tmpycp4azd_/132pnz8hy5b.sdf

>  <i_m_source_file_index>  (273) 
5

>  <i_lp_mmshare_version>  (273) 
48012

>  <i_f3d_flags>  (273) 
0

>  <s_epik_input>  (273) 
W0NIM11bQ0gyXUMoPU8pT1tDSDJdW0NAQF0xMltDQEhdM1tDSDJdW0NAQEhdKFtDSDJdMSlbQ0BASF0oW0NIMl0yKUMzKFtDSDNdKVtDSDNd

>  <s_epik_cmdline>  (273) 
J2VwaWtfcHl0aG9uJywgJy1waHQnLCAnMi4wJywgJy1waCcsICc3LjAnLCAnLXRuJywgJzgnLCAnLW1hJywgJzIwMCcsICctaW1hZScsICc8aW5maWxlLm1hZT4nLCAnLW9tYWUnLCAnPG91dGZpbGUubWFlPic=

>  <r_lp_tautomer_probability>  (273) 
1

>  <r_epik_Ionization_Penalty>  (273) 
0

>  <r_epik_Ionization_Penalty_Charging>  (273) 
0

>  <r_epik_Ionization_Penalty_Neutral>  (273) 
0

>  <r_epik_State_Penalty>  (273) 
-0

>  <r_epik_Charging_Adjusted_Penalty>  (273) 
0

>  <i_epik_Tot_Q>  (273) 
0

>  <i_epik_Tot_abs_Q>  (273) 
0

>  <s_epik_Chemistry_Notes>  (273) 
This compound has an ester and may undergo hydrolysis at high or low pH.

>  <s_lp_Force_Field>  (273) 
OPLS3e

>  <r_lp_Energy>  (273) 
79.1553

>  <b_lp_Chiralities_Consistent>  (273) 
1

>  <s_lp_Variant>  (273) 
87:0-1

>  <s_i_glide_gridfile>  (273) 
pfpi4k_grid

>  <i_i_glide_lignum>  (273) 
5

>  <i_i_glide_rotatable_bonds>  (273) 
4

>  <r_i_docking_score>  (273) 
-2.44287

>  <r_i_glide_ligand_efficiency>  (273) 
-0.152679

>  <r_i_glide_ligand_efficiency_sa>  (273) 
-0.384728

>  <r_i_glide_ligand_efficiency_ln>  (273) 
-0.647531

>  <r_i_glide_gscore>  (273) 
-2.44287

>  <r_i_glide_lipo>  (273) 
-0.461491

>  <r_i_glide_hbond>  (273) 
-0.0752737

>  <r_i_glide_metal>  (273) 
-0

>  <r_i_glide_rewards>  (273) 
-1.89325

>  <r_i_glide_evdw>  (273) 
-14.6437

>  <r_i_glide_ecoul>  (273) 
-1.97637

>  <r_i_glide_erotb>  (273) 
1.02568

>  <r_i_glide_esite>  (273) 
-0.00989286

>  <r_i_glide_emodel>  (273) 
-18.5927

>  <r_i_glide_energy>  (273) 
-16.62

>  <r_i_glide_einternal>  (273) 
0.94432

>  <r_i_glide_intrahb_reward>  (273) 
-0

>  <i_i_glide_confnum>  (273) 
3

>  <i_i_glide_posenum>  (273) 
1

>  <r_i_glide_eff_state_penalty>  (273) 
0

>  <ligand_id>  (273) 
87

>  <original_smiles>  (273) 
CCC(=O)OCC12CC3CC1C(C)(C)C3C2

>  <smiles>  (273) 
[H]C([H])([H])C([H])([H])C(=O)OC([H])([H])C12C([H])([H])C3([H])C([H])([H])C1([H])C(C([H])([H])[H])(C([H])([H])[H])C3([H])C2([H])[H]

$$$$
87:0:1
     RDKit          3D

 38 40  0  0  1  0  0  0  0  0999 V2000
    3.7374   -5.7640    3.9839 C   0  0  0  0  0  0  0  0  0  0  0  0
    2.8962   -4.7318    3.2227 C   0  0  0  0  0  0  0  0  0  0  0  0
    2.8437   -5.0296    1.7295 C   0  0  0  0  0  0  0  0  0  0  0  0
    1.8182   -5.4592    1.2004 O   0  0  0  0  0  0  0  0  0  0  0  0
    4.0109   -4.7743    1.1124 O   0  0  0  0  0  0  0  0  0  0  0  0
    4.1516   -4.9805   -0.2853 C   0  0  0  0  0  0  0  0  0  0  0  0
    4.5817   -3.6863   -0.9922 C   0  0  2  0  0  0  0  0  0  0  0  0
    5.8883   -3.0560   -0.5015 C   0  0  0  0  0  0  0  0  0  0  0  0
    5.5835   -1.7916   -1.2986 C   0  0  2  0  0  0  0  0  0  0  0  0
    4.3941   -1.3345   -0.4625 C   0  0  0  0  0  0  0  0  0  0  0  0
    3.5420   -2.4691   -1.0136 C   0  0  1  0  0  0  0  0  0  0  0  0
    3.4448   -2.0764   -2.5098 C   0  0  0  0  0  0  0  0  0  0  0  0
    2.4346   -2.9653   -3.2788 C   0  0  0  0  0  0  0  0  0  0  0  0
    3.0901   -0.6248   -2.9075 C   0  0  0  0  0  0  0  0  0  0  0  0
    4.9549   -2.3342   -2.6594 C   0  0  2  0  0  0  0  0  0  0  0  0
    5.0233   -3.8339   -2.4537 C   0  0  0  0  0  0  0  0  0  0  0  0
    3.7566   -5.5337    5.0483 H   0  0  0  0  0  0  0  0  0  0  0  0
    4.7680   -5.7792    3.6279 H   0  0  0  0  0  0  0  0  0  0  0  0
    3.3263   -6.7673    3.8676 H   0  0  0  0  0  0  0  0  0  0  0  0
    1.8776   -4.7164    3.6126 H   0  0  0  0  0  0  0  0  0  0  0  0
    3.3086   -3.7324    3.3622 H   0  0  0  0  0  0  0  0  0  0  0  0
    4.8889   -5.7669   -0.4486 H   0  0  0  0  0  0  0  0  0  0  0  0
    3.2167   -5.3262   -0.7194 H   0  0  0  0  0  0  0  0  0  0  0  0
    5.9513   -2.9213    0.5792 H   0  0  0  0  0  0  0  0  0  0  0  0
    6.8065   -3.5627   -0.8038 H   0  0  0  0  0  0  0  0  0  0  0  0
    6.3848   -1.0691   -1.3573 H   0  0  0  0  0  0  0  0  0  0  0  0
    4.5361   -1.3859    0.6169 H   0  0  0  0  0  0  0  0  0  0  0  0
    4.0602   -0.3222   -0.6620 H   0  0  0  0  0  0  0  0  0  0  0  0
    2.5939   -2.6229   -0.4975 H   0  0  0  0  0  0  0  0  0  0  0  0
    2.7127   -3.0854   -4.3252 H   0  0  0  0  0  0  0  0  0  0  0  0
    1.4327   -2.5440   -3.2495 H   0  0  0  0  0  0  0  0  0  0  0  0
    2.3148   -3.9427   -2.8281 H   0  0  0  0  0  0  0  0  0  0  0  0
    2.8367   -0.5581   -3.9649 H   0  0  0  0  0  0  0  0  0  0  0  0
    3.9054    0.0827   -2.7569 H   0  0  0  0  0  0  0  0  0  0  0  0
    2.2248   -0.2690   -2.3532 H   0  0  0  0  0  0  0  0  0  0  0  0
    5.4013   -1.9881   -3.5855 H   0  0  0  0  0  0  0  0  0  0  0  0
    6.0248   -4.2302   -2.6059 H   0  0  0  0  0  0  0  0  0  0  0  0
    4.3890   -4.4229   -3.1062 H   0  0  0  0  0  0  0  0  0  0  0  0
  1  2  1  0
  1 17  1  0
  1 18  1  0
  1 19  1  0
  2  3  1  0
  2 20  1  0
  2 21  1  0
  3  4  2  0
  3  5  1  0
  5  6  1  0
  7  6  1  1
  6 22  1  0
  6 23  1  0
  7 11  1  0
  7 16  1  0
  7  8  1  0
  8  9  1  0
  8 24  1  0
  8 25  1  0
  9 15  1  0
  9 10  1  0
  9 26  1  6
 10 11  1  0
 10 27  1  0
 10 28  1  0
 11 12  1  0
 11 29  1  1
 12 13  1  0
 12 14  1  0
 12 15  1  0
 13 30  1  0
 13 31  1  0
 13 32  1  0
 14 33  1  0
 14 34  1  0
 14 35  1  0
 15 16  1  0
 15 36  1  6
 16 37  1  0
 16 38  1  0
M  END
>  <i_m_ct_stereo_status>  (274) 
1

>  <s_m_source_file>  (274) 
/var/tmp/pbs.5076255.sched01/tmpycp4azd_/132pnz8hy5b.sdf

>  <i_m_source_file_index>  (274) 
5

>  <i_lp_mmshare_version>  (274) 
48012

>  <i_f3d_flags>  (274) 
0

>  <s_epik_input>  (274) 
W0NIM11bQ0gyXUMoPU8pT1tDSDJdW0NAQF0xMltDQEhdM1tDSDJdW0NAQEhdKFtDSDJdMSlbQ0BASF0oW0NIMl0yKUMzKFtDSDNdKVtDSDNd

>  <s_epik_cmdline>  (274) 
J2VwaWtfcHl0aG9uJywgJy1waHQnLCAnMi4wJywgJy1waCcsICc3LjAnLCAnLXRuJywgJzgnLCAnLW1hJywgJzIwMCcsICctaW1hZScsICc8aW5maWxlLm1hZT4nLCAnLW9tYWUnLCAnPG91dGZpbGUubWFlPic=

>  <r_lp_tautomer_probability>  (274) 
1

>  <r_epik_Ionization_Penalty>  (274) 
0

>  <r_epik_Ionization_Penalty_Charging>  (274) 
0

>  <r_epik_Ionization_Penalty_Neutral>  (274) 
0

>  <r_epik_State_Penalty>  (274) 
-0

>  <r_epik_Charging_Adjusted_Penalty>  (274) 
0

>  <i_epik_Tot_Q>  (274) 
0

>  <i_epik_Tot_abs_Q>  (274) 
0

>  <s_epik_Chemistry_Notes>  (274) 
This compound has an ester and may undergo hydrolysis at high or low pH.

>  <s_lp_Force_Field>  (274) 
OPLS3e

>  <r_lp_Energy>  (274) 
79.1553

>  <b_lp_Chiralities_Consistent>  (274) 
1

>  <s_lp_Variant>  (274) 
87:0-1

>  <s_i_glide_gridfile>  (274) 
pfpi4k_grid

>  <i_i_glide_lignum>  (274) 
5

>  <i_i_glide_rotatable_bonds>  (274) 
4

>  <r_i_docking_score>  (274) 
-2.34301

>  <r_i_glide_ligand_efficiency>  (274) 
-0.146438

>  <r_i_glide_ligand_efficiency_sa>  (274) 
-0.369001

>  <r_i_glide_ligand_efficiency_ln>  (274) 
-0.621062

>  <r_i_glide_gscore>  (274) 
-2.34301

>  <r_i_glide_lipo>  (274) 
-0.376096

>  <r_i_glide_hbond>  (274) 
-0.0829605

>  <r_i_glide_metal>  (274) 
-0

>  <r_i_glide_rewards>  (274) 
-1.89325

>  <r_i_glide_evdw>  (274) 
-14.3699

>  <r_i_glide_ecoul>  (274) 
-1.9324

>  <r_i_glide_erotb>  (274) 
1.02568

>  <r_i_glide_esite>  (274) 
-0.00802374

>  <r_i_glide_emodel>  (274) 
-18.2136

>  <r_i_glide_energy>  (274) 
-16.3023

>  <r_i_glide_einternal>  (274) 
0.840555

>  <r_i_glide_intrahb_reward>  (274) 
-0

>  <i_i_glide_confnum>  (274) 
3

>  <i_i_glide_posenum>  (274) 
10

>  <r_i_glide_eff_state_penalty>  (274) 
0

>  <ligand_id>  (274) 
87

>  <original_smiles>  (274) 
CCC(=O)OCC12CC3CC1C(C)(C)C3C2

>  <smiles>  (274) 
[H]C([H])([H])C([H])([H])C(=O)OC([H])([H])C12C([H])([H])C3([H])C([H])([H])C1([H])C(C([H])([H])[H])(C([H])([H])[H])C3([H])C2([H])[H]

$$$$
88:0:0
     RDKit          3D

 51 55  0  0  1  0  0  0  0  0999 V2000
    1.6161    1.2793    2.2585 C   0  0  0  0  0  0  0  0  0  0  0  0
    1.3501    2.3299    3.3675 C   0  0  0  0  0  0  0  0  0  0  0  0
    2.2430    3.5205    2.9234 C   0  0  0  0  0  0  0  0  0  0  0  0
   -0.1728    2.7016    3.3283 C   0  0  1  0  0  0  0  0  0  0  0  0
   -1.1632    1.5441    3.6351 C   0  0  0  0  0  0  0  0  0  0  0  0
   -1.3299    1.1293    5.1097 C   0  0  0  0  0  0  0  0  0  0  0  0
   -1.3851    2.3056    6.1180 C   0  0  2  0  0  0  0  0  0  0  0  0
   -2.0076    1.7509    7.4267 C   0  0  0  0  0  0  0  0  0  0  0  0
   -2.3868    3.3487    5.5677 C   0  0  0  0  0  0  0  0  0  0  0  0
   -1.9553    3.9529    4.3470 O   0  0  0  0  0  0  0  0  0  0  0  0
   -0.5742    4.0203    4.1007 C   0  0  2  0  0  0  0  0  0  0  0  0
   -0.3042    5.1419    3.2817 O   0  0  0  0  0  0  0  0  0  0  0  0
    0.1563    4.2553    5.4531 C   0  0  1  0  0  0  0  0  0  0  0  0
   -0.3087    5.4588    6.0635 O   0  0  0  0  0  0  0  0  0  0  0  0
    0.0383    2.9896    6.3460 C   0  0  1  0  0  0  0  0  0  0  0  0
    0.1271    3.4715    7.6842 O   0  0  0  0  0  0  0  0  0  0  0  0
    1.2775    2.0277    6.1577 C   0  0  2  0  0  0  0  0  0  0  0  0
    1.4815    0.9668    7.2909 C   0  0  1  0  0  0  0  0  0  0  0  0
    1.5948   -0.3890    6.9173 O   0  0  0  0  0  0  0  0  0  0  0  0
    2.7629    1.6598    7.7499 C   0  0  0  0  0  0  0  0  0  0  0  0
    2.7317    2.4767    6.4688 C   0  0  1  0  0  0  0  0  0  0  0  0
    3.2502    1.8396    5.1801 C   0  0  0  0  0  0  0  0  0  0  0  0
    1.7960    1.6783    4.7138 C   0  0  2  0  0  0  0  0  0  0  0  0
    1.2976    1.6467    1.2849 H   0  0  0  0  0  0  0  0  0  0  0  0
    1.1100    0.3328    2.4218 H   0  0  0  0  0  0  0  0  0  0  0  0
    2.6752    1.0408    2.1814 H   0  0  0  0  0  0  0  0  0  0  0  0
    2.4418    4.2512    3.6983 H   0  0  0  0  0  0  0  0  0  0  0  0
    1.8198    4.0500    2.0746 H   0  0  0  0  0  0  0  0  0  0  0  0
    3.2234    3.1846    2.5950 H   0  0  0  0  0  0  0  0  0  0  0  0
   -0.4073    2.9146    2.2861 H   0  0  0  0  0  0  0  0  0  0  0  0
   -2.1421    1.8210    3.2394 H   0  0  0  0  0  0  0  0  0  0  0  0
   -0.9144    0.6558    3.0575 H   0  0  0  0  0  0  0  0  0  0  0  0
   -2.2648    0.5697    5.1587 H   0  0  0  0  0  0  0  0  0  0  0  0
   -0.5748    0.3966    5.3934 H   0  0  0  0  0  0  0  0  0  0  0  0
   -2.1722    2.5407    8.1641 H   0  0  0  0  0  0  0  0  0  0  0  0
   -1.3968    0.9759    7.8906 H   0  0  0  0  0  0  0  0  0  0  0  0
   -2.9901    1.3204    7.2294 H   0  0  0  0  0  0  0  0  0  0  0  0
   -3.3680    2.9184    5.3891 H   0  0  0  0  0  0  0  0  0  0  0  0
   -2.5517    4.1274    6.3091 H   0  0  0  0  0  0  0  0  0  0  0  0
   -0.1927    4.8464    2.3708 H   0  0  0  0  0  0  0  0  0  0  0  0
    1.2055    4.4630    5.2810 H   0  0  0  0  0  0  0  0  0  0  0  0
    0.2322    5.6399    6.8138 H   0  0  0  0  0  0  0  0  0  0  0  0
    0.9810    3.8521    7.8085 H   0  0  0  0  0  0  0  0  0  0  0  0
    0.7430    1.0405    8.0820 H   0  0  0  0  0  0  0  0  0  0  0  0
    2.2552   -0.4321    6.2429 H   0  0  0  0  0  0  0  0  0  0  0  0
    2.6256    2.2694    8.6403 H   0  0  0  0  0  0  0  0  0  0  0  0
    3.6388    1.0127    7.8365 H   0  0  0  0  0  0  0  0  0  0  0  0
    2.8734    3.5534    6.5495 H   0  0  0  0  0  0  0  0  0  0  0  0
    3.8897    2.5061    4.6045 H   0  0  0  0  0  0  0  0  0  0  0  0
    3.7454    0.8771    5.3407 H   0  0  0  0  0  0  0  0  0  0  0  0
    1.6139    0.6083    4.6189 H   0  0  0  0  0  0  0  0  0  0  0  0
  1  2  1  0
  1 24  1  0
  1 25  1  0
  1 26  1  0
  2 23  1  0
  2  3  1  0
  2  4  1  0
  3 27  1  0
  3 28  1  0
  3 29  1  0
  4 11  1  0
  4  5  1  0
  4 30  1  6
  5  6  1  0
  5 31  1  0
  5 32  1  0
  6  7  1  0
  6 33  1  0
  6 34  1  0
  7 15  1  0
  7  8  1  1
  7  9  1  0
  8 35  1  0
  8 36  1  0
  8 37  1  0
  9 10  1  0
  9 38  1  0
  9 39  1  0
 10 11  1  0
 11 12  1  6
 11 13  1  0
 12 40  1  0
 13 14  1  0
 13 15  1  0
 13 41  1  6
 14 42  1  0
 15 16  1  1
 17 15  1  6
 16 43  1  0
 17 21  1  0
 17 23  1  0
 17 18  1  0
 18 19  1  0
 18 20  1  0
 18 44  1  1
 19 45  1  0
 20 21  1  0
 20 46  1  0
 20 47  1  0
 21 22  1  0
 21 48  1  1
 22 23  1  0
 22 49  1  0
 22 50  1  0
 23 51  1  6
M  END
>  <i_m_ct_stereo_status>  (275) 
1

>  <s_m_source_file>  (275) 
/var/tmp/pbs.5076255.sched01/tmpycp4azd_/132pnz8hy5b.sdf

>  <i_m_source_file_index>  (275) 
6

>  <i_lp_mmshare_version>  (275) 
48012

>  <i_f3d_flags>  (275) 
0

>  <s_epik_input>  (275) 
W09IXVtDQEhdMVtDSDJdW0NASF0yW0NIMl1bQ0BASF0zQyhbQ0gzXSkoW0NIM10pW0NASF0oW0NAQF0oW09IXSkoT1tDSDJdNClbQ0BIXTVbT0hdKVtDSDJdW0NIMl1bQ0BAXTQoW0NIM10pW0NAXTUoW0NAXTEyMylbT0hd

>  <s_epik_cmdline>  (275) 
J2VwaWtfcHl0aG9uJywgJy1waHQnLCAnMi4wJywgJy1waCcsICc3LjAnLCAnLXRuJywgJzgnLCAnLW1hJywgJzIwMCcsICctaW1hZScsICc8aW5maWxlLm1hZT4nLCAnLW9tYWUnLCAnPG91dGZpbGUubWFlPic=

>  <r_lp_tautomer_probability>  (275) 
1

>  <r_epik_Ionization_Penalty>  (275) 
2.05849e-06

>  <r_epik_Ionization_Penalty_Charging>  (275) 
0

>  <r_epik_Ionization_Penalty_Neutral>  (275) 
2.05849e-06

>  <r_epik_State_Penalty>  (275) 
-0

>  <r_epik_Charging_Adjusted_Penalty>  (275) 
0

>  <i_epik_Tot_Q>  (275) 
0

>  <i_epik_Tot_abs_Q>  (275) 
0

>  <s_lp_Force_Field>  (275) 
OPLS3e

>  <r_lp_Energy>  (275) 
86.7186

>  <b_lp_Chiralities_Consistent>  (275) 
1

>  <s_lp_Variant>  (275) 
88:0-1

>  <s_i_glide_gridfile>  (275) 
pfpi4k_grid

>  <i_i_glide_lignum>  (275) 
6

>  <i_i_glide_rotatable_bonds>  (275) 
4

>  <r_i_docking_score>  (275) 
-3.54366

>  <r_i_glide_ligand_efficiency>  (275) 
-0.154072

>  <r_i_glide_ligand_efficiency_sa>  (275) 
-0.438161

>  <r_i_glide_ligand_efficiency_ln>  (275) 
-0.85689

>  <r_i_glide_gscore>  (275) 
-3.54366

>  <r_i_glide_lipo>  (275) 
0

>  <r_i_glide_hbond>  (275) 
0

>  <r_i_glide_metal>  (275) 
-0

>  <r_i_glide_rewards>  (275) 
-1.19719

>  <r_i_glide_evdw>  (275) 
-19.2358

>  <r_i_glide_ecoul>  (275) 
-8.75581

>  <r_i_glide_erotb>  (275) 
0

>  <r_i_glide_esite>  (275) 
-0.0713127

>  <r_i_glide_emodel>  (275) 
-34.259

>  <r_i_glide_energy>  (275) 
-27.9916

>  <r_i_glide_einternal>  (275) 
1.31966

>  <r_i_glide_intrahb_reward>  (275) 
-0

>  <i_i_glide_confnum>  (275) 
1

>  <i_i_glide_posenum>  (275) 
5

>  <r_i_glide_eff_state_penalty>  (275) 
0

>  <ligand_id>  (275) 
88

>  <original_smiles>  (275) 
CC1(C)C2CCC3(C)COC2(O)C(O)C3(O)C23C(O)CC2CC13

>  <smiles>  (275) 
[H]OC1([H])C2(O[H])OC([H])([H])C3(C([H])([H])[H])C([H])([H])C([H])([H])C2([H])C(C([H])([H])[H])(C([H])([H])[H])C2([H])C([H])([H])C4([H])C([H])([H])C([H])(O[H])C42C13O[H]

$$$$
88:0:1
     RDKit          3D

 51 55  0  0  1  0  0  0  0  0999 V2000
   -2.3186    3.5257    4.1315 C   0  0  0  0  0  0  0  0  0  0  0  0
   -1.1376    2.7336    4.7380 C   0  0  0  0  0  0  0  0  0  0  0  0
   -1.4883    2.7184    6.2524 C   0  0  0  0  0  0  0  0  0  0  0  0
   -1.1758    1.2883    4.1285 C   0  0  1  0  0  0  0  0  0  0  0  0
   -0.9573    1.2191    2.5895 C   0  0  0  0  0  0  0  0  0  0  0  0
    0.4799    1.3794    2.0611 C   0  0  0  0  0  0  0  0  0  0  0  0
    1.5794    0.6725    2.8863 C   0  0  2  0  0  0  0  0  0  0  0  0
    2.8282    0.5569    1.9704 C   0  0  0  0  0  0  0  0  0  0  0  0
    1.1005   -0.7772    3.1493 C   0  0  0  0  0  0  0  0  0  0  0  0
   -0.0649   -0.8421    3.9793 O   0  0  0  0  0  0  0  0  0  0  0  0
   -0.2972    0.2136    4.8741 C   0  0  2  0  0  0  0  0  0  0  0  0
   -1.0098   -0.2921    5.9826 O   0  0  0  0  0  0  0  0  0  0  0  0
    1.0699    0.7126    5.4086 C   0  0  1  0  0  0  0  0  0  0  0  0
    1.7352   -0.3624    6.0677 O   0  0  0  0  0  0  0  0  0  0  0  0
    1.8636    1.4106    4.2665 C   0  0  1  0  0  0  0  0  0  0  0  0
    3.2328    1.2365    4.6112 O   0  0  0  0  0  0  0  0  0  0  0  0
    1.6133    2.9738    4.2549 C   0  0  2  0  0  0  0  0  0  0  0  0
    2.6568    3.8153    3.4444 C   0  0  1  0  0  0  0  0  0  0  0  0
    2.2160    4.7589    2.4830 O   0  0  0  0  0  0  0  0  0  0  0  0
    3.1892    4.4296    4.7450 C   0  0  0  0  0  0  0  0  0  0  0  0
    1.9746    3.8675    5.4674 C   0  0  1  0  0  0  0  0  0  0  0  0
    0.6494    4.6186    5.3629 C   0  0  0  0  0  0  0  0  0  0  0  0
    0.1512    3.5389    4.3908 C   0  0  2  0  0  0  0  0  0  0  0  0
   -3.2726    3.0233    4.2993 H   0  0  0  0  0  0  0  0  0  0  0  0
   -2.2208    3.6972    3.0619 H   0  0  0  0  0  0  0  0  0  0  0  0
   -2.3844    4.5143    4.5816 H   0  0  0  0  0  0  0  0  0  0  0  0
   -0.6527    2.4685    6.8967 H   0  0  0  0  0  0  0  0  0  0  0  0
   -2.2937    2.0155    6.4717 H   0  0  0  0  0  0  0  0  0  0  0  0
   -1.8324    3.6939    6.5983 H   0  0  0  0  0  0  0  0  0  0  0  0
   -2.2014    0.9364    4.2528 H   0  0  0  0  0  0  0  0  0  0  0  0
   -1.3373    0.2597    2.2440 H   0  0  0  0  0  0  0  0  0  0  0  0
   -1.5926    1.9324    2.0729 H   0  0  0  0  0  0  0  0  0  0  0  0
    0.4817    0.9719    1.0485 H   0  0  0  0  0  0  0  0  0  0  0  0
    0.7206    2.4288    1.9112 H   0  0  0  0  0  0  0  0  0  0  0  0
    3.6296   -0.0184    2.4369 H   0  0  0  0  0  0  0  0  0  0  0  0
    3.2248    1.5280    1.6799 H   0  0  0  0  0  0  0  0  0  0  0  0
    2.5831    0.0369    1.0420 H   0  0  0  0  0  0  0  0  0  0  0  0
    0.8723   -1.2777    2.2095 H   0  0  0  0  0  0  0  0  0  0  0  0
    1.8977   -1.3626    3.6063 H   0  0  0  0  0  0  0  0  0  0  0  0
   -0.3865   -0.8444    6.4351 H   0  0  0  0  0  0  0  0  0  0  0  0
    0.9369    1.4258    6.2116 H   0  0  0  0  0  0  0  0  0  0  0  0
    2.0402   -0.9582    5.4003 H   0  0  0  0  0  0  0  0  0  0  0  0
    3.7560    1.6427    3.9375 H   0  0  0  0  0  0  0  0  0  0  0  0
    3.4141    3.1880    2.9938 H   0  0  0  0  0  0  0  0  0  0  0  0
    1.5442    4.3620    1.9316 H   0  0  0  0  0  0  0  0  0  0  0  0
    4.1246    3.9902    5.0906 H   0  0  0  0  0  0  0  0  0  0  0  0
    3.2378    5.5221    4.7490 H   0  0  0  0  0  0  0  0  0  0  0  0
    2.1496    3.3305    6.3995 H   0  0  0  0  0  0  0  0  0  0  0  0
    0.1442    4.7121    6.3216 H   0  0  0  0  0  0  0  0  0  0  0  0
    0.7369    5.5957    4.8781 H   0  0  0  0  0  0  0  0  0  0  0  0
   -0.0223    4.0380    3.4368 H   0  0  0  0  0  0  0  0  0  0  0  0
  1  2  1  0
  1 24  1  0
  1 25  1  0
  1 26  1  0
  2 23  1  0
  2  3  1  0
  2  4  1  0
  3 27  1  0
  3 28  1  0
  3 29  1  0
  4 11  1  0
  4  5  1  0
  4 30  1  6
  5  6  1  0
  5 31  1  0
  5 32  1  0
  6  7  1  0
  6 33  1  0
  6 34  1  0
  7 15  1  0
  7  8  1  6
  7  9  1  0
  8 35  1  0
  8 36  1  0
  8 37  1  0
  9 10  1  0
  9 38  1  0
  9 39  1  0
 10 11  1  0
 11 12  1  1
 11 13  1  0
 12 40  1  0
 13 14  1  0
 13 15  1  0
 13 41  1  1
 14 42  1  0
 15 16  1  1
 17 15  1  1
 16 43  1  0
 17 21  1  0
 17 23  1  0
 17 18  1  0
 18 19  1  0
 18 20  1  0
 18 44  1  6
 19 45  1  0
 20 21  1  0
 20 46  1  0
 20 47  1  0
 21 22  1  0
 21 48  1  1
 22 23  1  0
 22 49  1  0
 22 50  1  0
 23 51  1  6
M  END
>  <i_m_ct_stereo_status>  (276) 
1

>  <s_m_source_file>  (276) 
/var/tmp/pbs.5076255.sched01/tmpycp4azd_/132pnz8hy5b.sdf

>  <i_m_source_file_index>  (276) 
6

>  <i_lp_mmshare_version>  (276) 
48012

>  <i_f3d_flags>  (276) 
0

>  <s_epik_input>  (276) 
W09IXVtDQEhdMVtDSDJdW0NASF0yW0NIMl1bQ0BASF0zQyhbQ0gzXSkoW0NIM10pW0NASF0oW0NAQF0oW09IXSkoT1tDSDJdNClbQ0BIXTVbT0hdKVtDSDJdW0NIMl1bQ0BAXTQoW0NIM10pW0NAXTUoW0NAXTEyMylbT0hd

>  <s_epik_cmdline>  (276) 
J2VwaWtfcHl0aG9uJywgJy1waHQnLCAnMi4wJywgJy1waCcsICc3LjAnLCAnLXRuJywgJzgnLCAnLW1hJywgJzIwMCcsICctaW1hZScsICc8aW5maWxlLm1hZT4nLCAnLW9tYWUnLCAnPG91dGZpbGUubWFlPic=

>  <r_lp_tautomer_probability>  (276) 
1

>  <r_epik_Ionization_Penalty>  (276) 
2.05849e-06

>  <r_epik_Ionization_Penalty_Charging>  (276) 
0

>  <r_epik_Ionization_Penalty_Neutral>  (276) 
2.05849e-06

>  <r_epik_State_Penalty>  (276) 
-0

>  <r_epik_Charging_Adjusted_Penalty>  (276) 
0

>  <i_epik_Tot_Q>  (276) 
0

>  <i_epik_Tot_abs_Q>  (276) 
0

>  <s_lp_Force_Field>  (276) 
OPLS3e

>  <r_lp_Energy>  (276) 
86.7186

>  <b_lp_Chiralities_Consistent>  (276) 
1

>  <s_lp_Variant>  (276) 
88:0-1

>  <s_i_glide_gridfile>  (276) 
pfpi4k_grid

>  <i_i_glide_lignum>  (276) 
6

>  <i_i_glide_rotatable_bonds>  (276) 
4

>  <r_i_docking_score>  (276) 
-3.4235

>  <r_i_glide_ligand_efficiency>  (276) 
-0.148848

>  <r_i_glide_ligand_efficiency_sa>  (276) 
-0.423304

>  <r_i_glide_ligand_efficiency_ln>  (276) 
-0.827834

>  <r_i_glide_gscore>  (276) 
-3.4235

>  <r_i_glide_lipo>  (276) 
-0.0986183

>  <r_i_glide_hbond>  (276) 
-0.16

>  <r_i_glide_metal>  (276) 
-0

>  <r_i_glide_rewards>  (276) 
-1.19719

>  <r_i_glide_evdw>  (276) 
-23.9476

>  <r_i_glide_ecoul>  (276) 
-5.02751

>  <r_i_glide_erotb>  (276) 
0

>  <r_i_glide_esite>  (276) 
-0.0161868

>  <r_i_glide_emodel>  (276) 
-34.9279

>  <r_i_glide_energy>  (276) 
-28.9751

>  <r_i_glide_einternal>  (276) 
1.73048

>  <r_i_glide_intrahb_reward>  (276) 
-0

>  <i_i_glide_confnum>  (276) 
2

>  <i_i_glide_posenum>  (276) 
1

>  <r_i_glide_eff_state_penalty>  (276) 
0

>  <ligand_id>  (276) 
88

>  <original_smiles>  (276) 
CC1(C)C2CCC3(C)COC2(O)C(O)C3(O)C23C(O)CC2CC13

>  <smiles>  (276) 
[H]OC1([H])C2(O[H])OC([H])([H])C3(C([H])([H])[H])C([H])([H])C([H])([H])C2([H])C(C([H])([H])[H])(C([H])([H])[H])C2([H])C([H])([H])C4([H])C([H])([H])C([H])(O[H])C42C13O[H]

$$$$
88:0:2
     RDKit          3D

 51 55  0  0  1  0  0  0  0  0999 V2000
   -2.4439    3.7198    3.4894 C   0  0  0  0  0  0  0  0  0  0  0  0
   -1.3930    2.9875    4.3585 C   0  0  0  0  0  0  0  0  0  0  0  0
   -1.9795    3.1279    5.7915 C   0  0  0  0  0  0  0  0  0  0  0  0
   -1.3600    1.4937    3.8965 C   0  0  1  0  0  0  0  0  0  0  0  0
   -0.9138    1.2585    2.4247 C   0  0  0  0  0  0  0  0  0  0  0  0
    0.5883    1.3487    2.1097 C   0  0  0  0  0  0  0  0  0  0  0  0
    1.5202    0.7140    3.1707 C   0  0  2  0  0  0  0  0  0  0  0  0
    2.8939    0.4954    2.4797 C   0  0  0  0  0  0  0  0  0  0  0  0
    0.9604   -0.6975    3.4935 C   0  0  0  0  0  0  0  0  0  0  0  0
   -0.3214   -0.6641    4.1332 O   0  0  0  0  0  0  0  0  0  0  0  0
   -0.6582    0.4778    4.8769 C   0  0  2  0  0  0  0  0  0  0  0  0
   -1.6015    0.1160    5.8652 O   0  0  0  0  0  0  0  0  0  0  0  0
    0.6258    1.0091    5.5741 C   0  0  1  0  0  0  0  0  0  0  0  0
    1.1762    0.0072    6.4246 O   0  0  0  0  0  0  0  0  0  0  0  0
    1.6044    1.5808    4.5036 C   0  0  1  0  0  0  0  0  0  0  0  0
    2.9018    1.4294    5.0712 O   0  0  0  0  0  0  0  0  0  0  0  0
    1.4039    3.1366    4.3024 C   0  0  2  0  0  0  0  0  0  0  0  0
    2.5739    3.8863    3.5808 C   0  0  1  0  0  0  0  0  0  0  0  0
    2.2791    4.7140    2.4776 O   0  0  0  0  0  0  0  0  0  0  0  0
    2.9187    4.6141    4.8867 C   0  0  0  0  0  0  0  0  0  0  0  0
    1.5926    4.1426    5.4645 C   0  0  1  0  0  0  0  0  0  0  0  0
    0.3236    4.8974    5.0792 C   0  0  0  0  0  0  0  0  0  0  0  0
   -0.0478    3.7325    4.1509 C   0  0  2  0  0  0  0  0  0  0  0  0
   -3.4244    3.2485    3.5486 H   0  0  0  0  0  0  0  0  0  0  0  0
   -2.1732    3.7776    2.4385 H   0  0  0  0  0  0  0  0  0  0  0  0
   -2.5601    4.7491    3.8138 H   0  0  0  0  0  0  0  0  0  0  0  0
   -1.2656    2.9287    6.5849 H   0  0  0  0  0  0  0  0  0  0  0  0
   -2.8349    2.4702    5.9483 H   0  0  0  0  0  0  0  0  0  0  0  0
   -2.3408    4.1385    5.9793 H   0  0  0  0  0  0  0  0  0  0  0  0
   -2.4070    1.1975    3.9024 H   0  0  0  0  0  0  0  0  0  0  0  0
   -1.2643    0.2731    2.1249 H   0  0  0  0  0  0  0  0  0  0  0  0
   -1.4418    1.9145    1.7417 H   0  0  0  0  0  0  0  0  0  0  0  0
    0.7278    0.8404    1.1547 H   0  0  0  0  0  0  0  0  0  0  0  0
    0.8771    2.3739    1.8945 H   0  0  0  0  0  0  0  0  0  0  0  0
    3.5913   -0.0427    3.1236 H   0  0  0  0  0  0  0  0  0  0  0  0
    3.3627    1.4261    2.1652 H   0  0  0  0  0  0  0  0  0  0  0  0
    2.7829   -0.1138    1.5818 H   0  0  0  0  0  0  0  0  0  0  0  0
    0.8676   -1.2886    2.5829 H   0  0  0  0  0  0  0  0  0  0  0  0
    1.6565   -1.2449    4.1293 H   0  0  0  0  0  0  0  0  0  0  0  0
   -2.4218   -0.0142    5.4098 H   0  0  0  0  0  0  0  0  0  0  0  0
    0.3832    1.7983    6.2709 H   0  0  0  0  0  0  0  0  0  0  0  0
    1.4926   -0.6902    5.8753 H   0  0  0  0  0  0  0  0  0  0  0  0
    3.5333    1.7453    4.4467 H   0  0  0  0  0  0  0  0  0  0  0  0
    3.4052    3.2428    3.3103 H   0  0  0  0  0  0  0  0  0  0  0  0
    1.5441    4.3481    1.9838 H   0  0  0  0  0  0  0  0  0  0  0  0
    3.7700    4.1958    5.4217 H   0  0  0  0  0  0  0  0  0  0  0  0
    2.9993    5.7006    4.8009 H   0  0  0  0  0  0  0  0  0  0  0  0
    1.6038    3.6975    6.4626 H   0  0  0  0  0  0  0  0  0  0  0  0
   -0.3226    5.0942    5.9286 H   0  0  0  0  0  0  0  0  0  0  0  0
    0.5148    5.8177    4.5203 H   0  0  0  0  0  0  0  0  0  0  0  0
   -0.0620    4.1370    3.1395 H   0  0  0  0  0  0  0  0  0  0  0  0
  1  2  1  0
  1 24  1  0
  1 25  1  0
  1 26  1  0
  2 23  1  0
  2  3  1  0
  2  4  1  0
  3 27  1  0
  3 28  1  0
  3 29  1  0
  4 11  1  0
  4  5  1  0
  4 30  1  6
  5  6  1  0
  5 31  1  0
  5 32  1  0
  6  7  1  0
  6 33  1  0
  6 34  1  0
  7 15  1  0
  7  8  1  6
  7  9  1  0
  8 35  1  0
  8 36  1  0
  8 37  1  0
  9 10  1  0
  9 38  1  0
  9 39  1  0
 10 11  1  0
 11 12  1  1
 11 13  1  0
 12 40  1  0
 13 14  1  0
 13 15  1  0
 13 41  1  1
 14 42  1  0
 15 16  1  1
 17 15  1  1
 16 43  1  0
 17 21  1  0
 17 23  1  0
 17 18  1  0
 18 19  1  0
 18 20  1  0
 18 44  1  6
 19 45  1  0
 20 21  1  0
 20 46  1  0
 20 47  1  0
 21 22  1  0
 21 48  1  1
 22 23  1  0
 22 49  1  0
 22 50  1  0
 23 51  1  6
M  END
>  <i_m_ct_stereo_status>  (277) 
1

>  <s_m_source_file>  (277) 
/var/tmp/pbs.5076255.sched01/tmpycp4azd_/132pnz8hy5b.sdf

>  <i_m_source_file_index>  (277) 
6

>  <i_lp_mmshare_version>  (277) 
48012

>  <i_f3d_flags>  (277) 
0

>  <s_epik_input>  (277) 
W09IXVtDQEhdMVtDSDJdW0NASF0yW0NIMl1bQ0BASF0zQyhbQ0gzXSkoW0NIM10pW0NASF0oW0NAQF0oW09IXSkoT1tDSDJdNClbQ0BIXTVbT0hdKVtDSDJdW0NIMl1bQ0BAXTQoW0NIM10pW0NAXTUoW0NAXTEyMylbT0hd

>  <s_epik_cmdline>  (277) 
J2VwaWtfcHl0aG9uJywgJy1waHQnLCAnMi4wJywgJy1waCcsICc3LjAnLCAnLXRuJywgJzgnLCAnLW1hJywgJzIwMCcsICctaW1hZScsICc8aW5maWxlLm1hZT4nLCAnLW9tYWUnLCAnPG91dGZpbGUubWFlPic=

>  <r_lp_tautomer_probability>  (277) 
1

>  <r_epik_Ionization_Penalty>  (277) 
2.05849e-06

>  <r_epik_Ionization_Penalty_Charging>  (277) 
0

>  <r_epik_Ionization_Penalty_Neutral>  (277) 
2.05849e-06

>  <r_epik_State_Penalty>  (277) 
-0

>  <r_epik_Charging_Adjusted_Penalty>  (277) 
0

>  <i_epik_Tot_Q>  (277) 
0

>  <i_epik_Tot_abs_Q>  (277) 
0

>  <s_lp_Force_Field>  (277) 
OPLS3e

>  <r_lp_Energy>  (277) 
86.7186

>  <b_lp_Chiralities_Consistent>  (277) 
1

>  <s_lp_Variant>  (277) 
88:0-1

>  <s_i_glide_gridfile>  (277) 
pfpi4k_grid

>  <i_i_glide_lignum>  (277) 
6

>  <i_i_glide_rotatable_bonds>  (277) 
4

>  <r_i_docking_score>  (277) 
-3.38722

>  <r_i_glide_ligand_efficiency>  (277) 
-0.14727

>  <r_i_glide_ligand_efficiency_sa>  (277) 
-0.418817

>  <r_i_glide_ligand_efficiency_ln>  (277) 
-0.81906

>  <r_i_glide_gscore>  (277) 
-3.38722

>  <r_i_glide_lipo>  (277) 
-0.0720018

>  <r_i_glide_hbond>  (277) 
-0.16

>  <r_i_glide_metal>  (277) 
-0

>  <r_i_glide_rewards>  (277) 
-1.19719

>  <r_i_glide_evdw>  (277) 
-23.8055

>  <r_i_glide_ecoul>  (277) 
-4.98622

>  <r_i_glide_erotb>  (277) 
0

>  <r_i_glide_esite>  (277) 
-0.0198182

>  <r_i_glide_emodel>  (277) 
-34.7021

>  <r_i_glide_energy>  (277) 
-28.7917

>  <r_i_glide_einternal>  (277) 
2.02525

>  <r_i_glide_intrahb_reward>  (277) 
-0

>  <i_i_glide_confnum>  (277) 
1

>  <i_i_glide_posenum>  (277) 
16

>  <r_i_glide_eff_state_penalty>  (277) 
0

>  <ligand_id>  (277) 
88

>  <original_smiles>  (277) 
CC1(C)C2CCC3(C)COC2(O)C(O)C3(O)C23C(O)CC2CC13

>  <smiles>  (277) 
[H]OC1([H])C2(O[H])OC([H])([H])C3(C([H])([H])[H])C([H])([H])C([H])([H])C2([H])C(C([H])([H])[H])(C([H])([H])[H])C2([H])C([H])([H])C4([H])C([H])([H])C([H])(O[H])C42C13O[H]

$$$$
89:0:0
     RDKit          3D

 46 52  0  0  1  0  0  0  0  0999 V2000
    2.5585   -3.5697   -0.7173 C   0  0  0  0  0  0  0  0  0  0  0  0
    3.9845   -3.2659   -0.2056 C   0  0  2  0  0  0  0  0  0  0  0  0
    4.4415   -4.2437    0.9103 C   0  0  1  0  0  0  0  0  0  0  0  0
    3.5723   -5.3903    1.4111 C   0  0  2  0  0  0  0  0  0  0  0  0
    2.4662   -5.3736    2.4636 C   0  0  0  0  0  0  0  0  0  0  0  0
    2.9991   -6.7730    2.8695 C   0  0  0  0  0  0  0  0  0  0  0  0
    4.3730   -6.2730    2.3965 C   0  0  1  0  0  0  0  0  0  0  0  0
    5.4909   -7.0922    1.7167 C   0  0  1  0  0  0  0  0  0  0  0  0
    6.9000   -6.9604    1.2964 O   0  0  0  0  0  0  0  0  0  0  0  0
    6.2936   -5.7607    1.4297 C   0  0  1  0  0  0  0  0  0  0  0  0
    5.6811   -4.9317    0.2940 C   0  0  2  0  0  0  0  0  0  0  0  0
    6.3635   -3.8044   -0.5153 C   0  0  1  0  0  0  0  0  0  0  0  0
    7.1960   -2.9369    0.4617 C   0  0  1  0  0  0  0  0  0  0  0  0
    8.5297   -2.9084   -0.0103 O   0  0  0  0  0  0  0  0  0  0  0  0
    6.7410   -1.4950    0.7904 C   0  0  0  0  0  0  0  0  0  0  0  0
    5.2510   -1.2947    1.1234 C   0  0  0  0  0  0  0  0  0  0  0  0
    4.2077   -1.7293    0.0462 C   0  0  2  0  0  0  0  0  0  0  0  0
    3.0160   -1.1453    0.5347 O   0  0  0  0  0  0  0  0  0  0  0  0
    4.5670   -1.0635   -1.3103 C   0  0  0  0  0  0  0  0  0  0  0  0
    5.8289   -1.5514   -1.8155 O   0  0  0  0  0  0  0  0  0  0  0  0
    6.0929   -2.9709   -1.8257 C   0  0  2  0  0  0  0  0  0  0  0  0
    4.9804   -3.6512   -1.2600 C   0  0  2  0  0  0  0  0  0  0  0  0
    2.4573   -4.5931   -1.0688 H   0  0  0  0  0  0  0  0  0  0  0  0
    2.2766   -2.9225   -1.5465 H   0  0  0  0  0  0  0  0  0  0  0  0
    1.8259   -3.4306    0.0758 H   0  0  0  0  0  0  0  0  0  0  0  0
    4.7627   -3.6924    1.7865 H   0  0  0  0  0  0  0  0  0  0  0  0
    3.2319   -6.0104    0.5755 H   0  0  0  0  0  0  0  0  0  0  0  0
    2.6045   -4.6027    3.2267 H   0  0  0  0  0  0  0  0  0  0  0  0
    1.4541   -5.3742    2.0616 H   0  0  0  0  0  0  0  0  0  0  0  0
    2.9331   -6.9771    3.9385 H   0  0  0  0  0  0  0  0  0  0  0  0
    2.5920   -7.5919    2.2710 H   0  0  0  0  0  0  0  0  0  0  0  0
    4.7456   -5.7363    3.2747 H   0  0  0  0  0  0  0  0  0  0  0  0
    5.0152   -7.6665    0.9232 H   0  0  0  0  0  0  0  0  0  0  0  0
    6.6609   -5.2121    2.2921 H   0  0  0  0  0  0  0  0  0  0  0  0
    5.4020   -5.7119   -0.4191 H   0  0  0  0  0  0  0  0  0  0  0  0
    7.2771   -3.4234    1.4272 H   0  0  0  0  0  0  0  0  0  0  0  0
    8.5350   -2.6549   -0.9221 H   0  0  0  0  0  0  0  0  0  0  0  0
    7.3062   -1.1429    1.6533 H   0  0  0  0  0  0  0  0  0  0  0  0
    7.0397   -0.7866    0.0235 H   0  0  0  0  0  0  0  0  0  0  0  0
    5.0232   -1.6979    2.1110 H   0  0  0  0  0  0  0  0  0  0  0  0
    5.1375   -0.2192    1.2644 H   0  0  0  0  0  0  0  0  0  0  0  0
    2.3226   -1.1600   -0.1287 H   0  0  0  0  0  0  0  0  0  0  0  0
    3.7964   -1.2621   -2.0543 H   0  0  0  0  0  0  0  0  0  0  0  0
    4.6102    0.0157   -1.2054 H   0  0  0  0  0  0  0  0  0  0  0  0
    6.4960   -3.3319   -2.7712 H   0  0  0  0  0  0  0  0  0  0  0  0
    4.6364   -4.4531   -1.9069 H   0  0  0  0  0  0  0  0  0  0  0  0
  2  1  1  6
  1 23  1  0
  1 24  1  0
  1 25  1  0
  2 17  1  0
  2 22  1  0
  2  3  1  0
  3 11  1  0
  3  4  1  0
  3 26  1  1
  4  7  1  0
  4  5  1  0
  4 27  1  6
  5  6  1  0
  5 28  1  0
  5 29  1  0
  6  7  1  0
  6 30  1  0
  6 31  1  0
  7  8  1  0
  7 32  1  1
  8 10  1  0
  8  9  1  0
  8 33  1  6
  9 10  1  0
 10 11  1  0
 10 34  1  1
 11 12  1  0
 11 35  1  6
 12 21  1  0
 12 22  1  0
 12 13  1  1
 13 14  1  0
 13 15  1  0
 13 36  1  1
 14 37  1  0
 15 16  1  0
 15 38  1  0
 15 39  1  0
 16 17  1  0
 16 40  1  0
 16 41  1  0
 17 18  1  1
 17 19  1  0
 18 42  1  0
 19 20  1  0
 19 43  1  0
 19 44  1  0
 20 21  1  0
 21 22  1  0
 21 45  1  6
 22 46  1  6
M  END
>  <i_m_ct_stereo_status>  (278) 
1

>  <s_m_source_file>  (278) 
/var/tmp/pbs.5076255.sched01/tmpycp4azd_/132pnz8hy5b.sdf

>  <i_m_source_file_index>  (278) 
7

>  <i_lp_mmshare_version>  (278) 
48012

>  <i_f3d_flags>  (278) 
0

>  <s_epik_input>  (278) 
W09IXVtDQEhdMVtDSDJdW0NIMl1bQ0BAXShbT0hdKShbQ0gyXU9bQ0BASF0yW0NASF0zNClbQ0BdMyhbQ0gzXSlbQ0BIXShbQ0BIXTVbQ0BAXTEyNClbQ0BIXTZbQ0BASF0oW0NIMl1bQ0gyXTYpW0NASF03W0NASF01Tzc=

>  <s_epik_cmdline>  (278) 
J2VwaWtfcHl0aG9uJywgJy1waHQnLCAnMi4wJywgJy1waCcsICc3LjAnLCAnLXRuJywgJzgnLCAnLW1hJywgJzIwMCcsICctaW1hZScsICc8aW5maWxlLm1hZT4nLCAnLW9tYWUnLCAnPG91dGZpbGUubWFlPic=

>  <r_lp_tautomer_probability>  (278) 
1

>  <r_epik_Ionization_Penalty>  (278) 
4.8261e-07

>  <r_epik_Ionization_Penalty_Charging>  (278) 
0

>  <r_epik_Ionization_Penalty_Neutral>  (278) 
4.8261e-07

>  <r_epik_State_Penalty>  (278) 
-0

>  <r_epik_Charging_Adjusted_Penalty>  (278) 
0

>  <i_epik_Tot_Q>  (278) 
0

>  <i_epik_Tot_abs_Q>  (278) 
0

>  <s_lp_Force_Field>  (278) 
OPLS3e

>  <r_lp_Energy>  (278) 
158.274

>  <b_lp_Chiralities_Consistent>  (278) 
1

>  <s_lp_Variant>  (278) 
89:0-1

>  <s_i_glide_gridfile>  (278) 
pfpi4k_grid

>  <i_i_glide_lignum>  (278) 
7

>  <i_i_glide_rotatable_bonds>  (278) 
2

>  <r_i_docking_score>  (278) 
-4.40668

>  <r_i_glide_ligand_efficiency>  (278) 
-0.200304

>  <r_i_glide_ligand_efficiency_sa>  (278) 
-0.561259

>  <r_i_glide_ligand_efficiency_ln>  (278) 
-1.07715

>  <r_i_glide_gscore>  (278) 
-4.40668

>  <r_i_glide_lipo>  (278) 
-0.71878

>  <r_i_glide_hbond>  (278) 
-0.23202

>  <r_i_glide_metal>  (278) 
-0

>  <r_i_glide_rewards>  (278) 
-1.33377

>  <r_i_glide_evdw>  (278) 
-23.8352

>  <r_i_glide_ecoul>  (278) 
-6.20236

>  <r_i_glide_erotb>  (278) 
0

>  <r_i_glide_esite>  (278) 
0

>  <r_i_glide_emodel>  (278) 
-38.5457

>  <r_i_glide_energy>  (278) 
-30.0375

>  <r_i_glide_einternal>  (278) 
0.362405

>  <r_i_glide_intrahb_reward>  (278) 
-0

>  <i_i_glide_confnum>  (278) 
1

>  <i_i_glide_posenum>  (278) 
37

>  <r_i_glide_eff_state_penalty>  (278) 
0

>  <ligand_id>  (278) 
89

>  <original_smiles>  (278) 
CC12C3C4CCC4C4OC4C3C34C(O)CCC1(O)COC3C42

>  <smiles>  (278) 
[H]OC1([H])C([H])([H])C([H])([H])C2(O[H])C([H])([H])OC3([H])C4([H])C13C1([H])C3([H])OC3([H])C3([H])C([H])([H])C([H])([H])C3([H])C1([H])C42C([H])([H])[H]

$$$$
89:0:1
     RDKit          3D

 46 52  0  0  1  0  0  0  0  0999 V2000
    2.5610   -3.5263   -0.7131 C   0  0  0  0  0  0  0  0  0  0  0  0
    3.9908   -3.2227   -0.2135 C   0  0  2  0  0  0  0  0  0  0  0  0
    4.4726   -4.2261    0.8687 C   0  0  1  0  0  0  0  0  0  0  0  0
    3.6206   -5.3947    1.3534 C   0  0  2  0  0  0  0  0  0  0  0  0
    2.5308   -5.4139    2.4211 C   0  0  0  0  0  0  0  0  0  0  0  0
    3.0809   -6.8191    2.7803 C   0  0  0  0  0  0  0  0  0  0  0  0
    4.4422   -6.2951    2.3050 C   0  0  1  0  0  0  0  0  0  0  0  0
    5.5544   -7.0834    1.5886 C   0  0  1  0  0  0  0  0  0  0  0  0
    6.9671   -6.9325    1.1902 O   0  0  0  0  0  0  0  0  0  0  0  0
    6.3443   -5.7361    1.3294 C   0  0  1  0  0  0  0  0  0  0  0  0
    5.7093   -4.8909    0.2176 C   0  0  2  0  0  0  0  0  0  0  0  0
    6.3715   -3.7346   -0.5723 C   0  0  1  0  0  0  0  0  0  0  0  0
    7.2016   -2.8832    0.4253 C   0  0  1  0  0  0  0  0  0  0  0  0
    8.5059   -2.7672   -0.1011 O   0  0  0  0  0  0  0  0  0  0  0  0
    6.7377   -1.4599    0.8014 C   0  0  0  0  0  0  0  0  0  0  0  0
    5.2543   -1.2803    1.1557 C   0  0  0  0  0  0  0  0  0  0  0  0
    4.2077   -1.6912    0.0774 C   0  0  2  0  0  0  0  0  0  0  0  0
    3.0183   -1.1243    0.5955 O   0  0  0  0  0  0  0  0  0  0  0  0
    4.5537   -0.9987   -1.2692 C   0  0  0  0  0  0  0  0  0  0  0  0
    5.8150   -1.4577   -1.8036 O   0  0  0  0  0  0  0  0  0  0  0  0
    6.0779   -2.8730   -1.8518 C   0  0  2  0  0  0  0  0  0  0  0  0
    4.9806   -3.5784   -1.2894 C   0  0  2  0  0  0  0  0  0  0  0  0
    2.4617   -4.5414   -1.0936 H   0  0  0  0  0  0  0  0  0  0  0  0
    2.2615   -2.8579   -1.5201 H   0  0  0  0  0  0  0  0  0  0  0  0
    1.8383   -3.4158    0.0962 H   0  0  0  0  0  0  0  0  0  0  0  0
    4.8057   -3.6943    1.7547 H   0  0  0  0  0  0  0  0  0  0  0  0
    3.2728   -5.9959    0.5039 H   0  0  0  0  0  0  0  0  0  0  0  0
    2.6749   -4.6608    3.2044 H   0  0  0  0  0  0  0  0  0  0  0  0
    1.5134   -5.4143    2.0314 H   0  0  0  0  0  0  0  0  0  0  0  0
    3.0354   -7.0519    3.8438 H   0  0  0  0  0  0  0  0  0  0  0  0
    2.6743   -7.6261    2.1637 H   0  0  0  0  0  0  0  0  0  0  0  0
    4.8220   -5.7770    3.1929 H   0  0  0  0  0  0  0  0  0  0  0  0
    5.0821   -7.6363    0.7766 H   0  0  0  0  0  0  0  0  0  0  0  0
    6.7158   -5.2001    2.2006 H   0  0  0  0  0  0  0  0  0  0  0  0
    5.4214   -5.6534   -0.5178 H   0  0  0  0  0  0  0  0  0  0  0  0
    7.3177   -3.4072    1.3648 H   0  0  0  0  0  0  0  0  0  0  0  0
    8.7027   -3.5458   -0.5938 H   0  0  0  0  0  0  0  0  0  0  0  0
    7.3195   -1.1266    1.6588 H   0  0  0  0  0  0  0  0  0  0  0  0
    7.0219   -0.7322    0.0493 H   0  0  0  0  0  0  0  0  0  0  0  0
    5.0417   -1.7072    2.1373 H   0  0  0  0  0  0  0  0  0  0  0  0
    5.1368   -0.2094    1.3210 H   0  0  0  0  0  0  0  0  0  0  0  0
    2.3234   -1.1265   -0.0666 H   0  0  0  0  0  0  0  0  0  0  0  0
    3.7649   -1.1687   -2.0022 H   0  0  0  0  0  0  0  0  0  0  0  0
    4.6105    0.0785   -1.1293 H   0  0  0  0  0  0  0  0  0  0  0  0
    6.4651   -3.2005   -2.8176 H   0  0  0  0  0  0  0  0  0  0  0  0
    4.6214   -4.3594   -1.9583 H   0  0  0  0  0  0  0  0  0  0  0  0
  2  1  1  6
  1 23  1  0
  1 24  1  0
  1 25  1  0
  2 17  1  0
  2 22  1  0
  2  3  1  0
  3 11  1  0
  3  4  1  0
  3 26  1  1
  4  7  1  0
  4  5  1  0
  4 27  1  6
  5  6  1  0
  5 28  1  0
  5 29  1  0
  6  7  1  0
  6 30  1  0
  6 31  1  0
  7  8  1  0
  7 32  1  1
  8 10  1  0
  8  9  1  0
  8 33  1  6
  9 10  1  0
 10 11  1  0
 10 34  1  1
 11 12  1  0
 11 35  1  6
 12 21  1  0
 12 22  1  0
 12 13  1  1
 13 14  1  0
 13 15  1  0
 13 36  1  1
 14 37  1  0
 15 16  1  0
 15 38  1  0
 15 39  1  0
 16 17  1  0
 16 40  1  0
 16 41  1  0
 17 18  1  1
 17 19  1  0
 18 42  1  0
 19 20  1  0
 19 43  1  0
 19 44  1  0
 20 21  1  0
 21 22  1  0
 21 45  1  6
 22 46  1  6
M  END
>  <i_m_ct_stereo_status>  (279) 
1

>  <s_m_source_file>  (279) 
/var/tmp/pbs.5076255.sched01/tmpycp4azd_/132pnz8hy5b.sdf

>  <i_m_source_file_index>  (279) 
7

>  <i_lp_mmshare_version>  (279) 
48012

>  <i_f3d_flags>  (279) 
0

>  <s_epik_input>  (279) 
W09IXVtDQEhdMVtDSDJdW0NIMl1bQ0BAXShbT0hdKShbQ0gyXU9bQ0BASF0yW0NASF0zNClbQ0BdMyhbQ0gzXSlbQ0BIXShbQ0BIXTVbQ0BAXTEyNClbQ0BIXTZbQ0BASF0oW0NIMl1bQ0gyXTYpW0NASF03W0NASF01Tzc=

>  <s_epik_cmdline>  (279) 
J2VwaWtfcHl0aG9uJywgJy1waHQnLCAnMi4wJywgJy1waCcsICc3LjAnLCAnLXRuJywgJzgnLCAnLW1hJywgJzIwMCcsICctaW1hZScsICc8aW5maWxlLm1hZT4nLCAnLW9tYWUnLCAnPG91dGZpbGUubWFlPic=

>  <r_lp_tautomer_probability>  (279) 
1

>  <r_epik_Ionization_Penalty>  (279) 
4.8261e-07

>  <r_epik_Ionization_Penalty_Charging>  (279) 
0

>  <r_epik_Ionization_Penalty_Neutral>  (279) 
4.8261e-07

>  <r_epik_State_Penalty>  (279) 
-0

>  <r_epik_Charging_Adjusted_Penalty>  (279) 
0

>  <i_epik_Tot_Q>  (279) 
0

>  <i_epik_Tot_abs_Q>  (279) 
0

>  <s_lp_Force_Field>  (279) 
OPLS3e

>  <r_lp_Energy>  (279) 
158.274

>  <b_lp_Chiralities_Consistent>  (279) 
1

>  <s_lp_Variant>  (279) 
89:0-1

>  <s_i_glide_gridfile>  (279) 
pfpi4k_grid

>  <i_i_glide_lignum>  (279) 
7

>  <i_i_glide_rotatable_bonds>  (279) 
2

>  <r_i_docking_score>  (279) 
-4.34649

>  <r_i_glide_ligand_efficiency>  (279) 
-0.197568

>  <r_i_glide_ligand_efficiency_sa>  (279) 
-0.553593

>  <r_i_glide_ligand_efficiency_ln>  (279) 
-1.06244

>  <r_i_glide_gscore>  (279) 
-4.34649

>  <r_i_glide_lipo>  (279) 
-0.719793

>  <r_i_glide_hbond>  (279) 
-0.233354

>  <r_i_glide_metal>  (279) 
-0

>  <r_i_glide_rewards>  (279) 
-1.33377

>  <r_i_glide_evdw>  (279) 
-23.5779

>  <r_i_glide_ecoul>  (279) 
-5.87121

>  <r_i_glide_erotb>  (279) 
0

>  <r_i_glide_esite>  (279) 
0

>  <r_i_glide_emodel>  (279) 
-37.504

>  <r_i_glide_energy>  (279) 
-29.4492

>  <r_i_glide_einternal>  (279) 
0.987279

>  <r_i_glide_intrahb_reward>  (279) 
-0

>  <i_i_glide_confnum>  (279) 
2

>  <i_i_glide_posenum>  (279) 
11

>  <r_i_glide_eff_state_penalty>  (279) 
0

>  <ligand_id>  (279) 
89

>  <original_smiles>  (279) 
CC12C3C4CCC4C4OC4C3C34C(O)CCC1(O)COC3C42

>  <smiles>  (279) 
[H]OC1([H])C([H])([H])C([H])([H])C2(O[H])C([H])([H])OC3([H])C4([H])C13C1([H])C3([H])OC3([H])C3([H])C([H])([H])C([H])([H])C3([H])C1([H])C42C([H])([H])[H]

$$$$
89:0:2
     RDKit          3D

 46 52  0  0  1  0  0  0  0  0999 V2000
    4.5291   -4.6677   -0.6123 C   0  0  0  0  0  0  0  0  0  0  0  0
    4.5202   -3.5421    0.4370 C   0  0  2  0  0  0  0  0  0  0  0  0
    4.1930   -4.0462    1.8645 C   0  0  1  0  0  0  0  0  0  0  0  0
    3.9209   -5.5109    2.1747 C   0  0  2  0  0  0  0  0  0  0  0  0
    2.6275   -6.3107    2.0591 C   0  0  0  0  0  0  0  0  0  0  0  0
    3.0924   -7.0352    3.3470 C   0  0  0  0  0  0  0  0  0  0  0  0
    3.8108   -5.7245    3.6958 C   0  0  1  0  0  0  0  0  0  0  0  0
    5.1378   -5.5474    4.4579 C   0  0  1  0  0  0  0  0  0  0  0  0
    5.9660   -4.4856    5.0682 O   0  0  0  0  0  0  0  0  0  0  0  0
    5.1216   -4.0044    4.1227 C   0  0  1  0  0  0  0  0  0  0  0  0
    5.4550   -3.6972    2.6607 C   0  0  2  0  0  0  0  0  0  0  0  0
    5.9056   -2.3566    2.0463 C   0  0  1  0  0  0  0  0  0  0  0  0
    5.0867   -1.2292    2.7078 C   0  0  1  0  0  0  0  0  0  0  0  0
    5.9699   -0.2761    3.2572 O   0  0  0  0  0  0  0  0  0  0  0  0
    4.0567   -0.4670    1.8666 C   0  0  0  0  0  0  0  0  0  0  0  0
    3.1107   -1.3278    1.0167 C   0  0  0  0  0  0  0  0  0  0  0  0
    3.7481   -2.2639   -0.0545 C   0  0  2  0  0  0  0  0  0  0  0  0
    2.6280   -2.6910   -0.8226 O   0  0  0  0  0  0  0  0  0  0  0  0
    4.7135   -1.4225   -0.9442 C   0  0  0  0  0  0  0  0  0  0  0  0
    5.8513   -0.9323   -0.1951 O   0  0  0  0  0  0  0  0  0  0  0  0
    6.5390   -1.8153    0.7119 C   0  0  2  0  0  0  0  0  0  0  0  0
    5.9239   -3.0860    0.6543 C   0  0  2  0  0  0  0  0  0  0  0  0
    5.2097   -5.4749   -0.3568 H   0  0  0  0  0  0  0  0  0  0  0  0
    4.8094   -4.3116   -1.6031 H   0  0  0  0  0  0  0  0  0  0  0  0
    3.5355   -5.1044   -0.6978 H   0  0  0  0  0  0  0  0  0  0  0  0
    3.3665   -3.4873    2.2831 H   0  0  0  0  0  0  0  0  0  0  0  0
    4.7267   -6.1485    1.8067 H   0  0  0  0  0  0  0  0  0  0  0  0
    1.7371   -5.6932    2.1890 H   0  0  0  0  0  0  0  0  0  0  0  0
    2.5710   -6.9492    1.1786 H   0  0  0  0  0  0  0  0  0  0  0  0
    2.2804   -7.3028    4.0232 H   0  0  0  0  0  0  0  0  0  0  0  0
    3.7719   -7.8697    3.1663 H   0  0  0  0  0  0  0  0  0  0  0  0
    3.0124   -5.1505    4.1618 H   0  0  0  0  0  0  0  0  0  0  0  0
    5.8470   -6.2222    3.9924 H   0  0  0  0  0  0  0  0  0  0  0  0
    4.3363   -3.4110    4.5689 H   0  0  0  0  0  0  0  0  0  0  0  0
    6.2576   -4.4042    2.4656 H   0  0  0  0  0  0  0  0  0  0  0  0
    4.5307   -1.5971    3.5629 H   0  0  0  0  0  0  0  0  0  0  0  0
    6.5703    0.0107    2.5838 H   0  0  0  0  0  0  0  0  0  0  0  0
    3.4284    0.1102    2.5483 H   0  0  0  0  0  0  0  0  0  0  0  0
    4.5118    0.3118    1.2486 H   0  0  0  0  0  0  0  0  0  0  0  0
    2.3693   -1.8380    1.6362 H   0  0  0  0  0  0  0  0  0  0  0  0
    2.5172   -0.5798    0.4986 H   0  0  0  0  0  0  0  0  0  0  0  0
    1.9784   -1.9638   -0.8716 H   0  0  0  0  0  0  0  0  0  0  0  0
    5.0871   -2.0244   -1.7718 H   0  0  0  0  0  0  0  0  0  0  0  0
    4.1995   -0.5723   -1.3968 H   0  0  0  0  0  0  0  0  0  0  0  0
    7.6267   -1.7583    0.6259 H   0  0  0  0  0  0  0  0  0  0  0  0
    6.6553   -3.8655    0.4927 H   0  0  0  0  0  0  0  0  0  0  0  0
  2  1  1  6
  1 23  1  0
  1 24  1  0
  1 25  1  0
  2 17  1  0
  2 22  1  0
  2  3  1  0
  3 11  1  0
  3  4  1  0
  3 26  1  1
  4  7  1  0
  4  5  1  0
  4 27  1  6
  5  6  1  0
  5 28  1  0
  5 29  1  0
  6  7  1  0
  6 30  1  0
  6 31  1  0
  7  8  1  0
  7 32  1  1
  8 10  1  0
  8  9  1  0
  8 33  1  6
  9 10  1  0
 10 11  1  0
 10 34  1  1
 11 12  1  0
 11 35  1  6
 12 21  1  0
 12 22  1  0
 12 13  1  6
 13 14  1  0
 13 15  1  0
 13 36  1  1
 14 37  1  0
 15 16  1  0
 15 38  1  0
 15 39  1  0
 16 17  1  0
 16 40  1  0
 16 41  1  0
 17 18  1  6
 17 19  1  0
 18 42  1  0
 19 20  1  0
 19 43  1  0
 19 44  1  0
 20 21  1  0
 21 22  1  0
 21 45  1  1
 22 46  1  1
M  END
>  <i_m_ct_stereo_status>  (280) 
1

>  <s_m_source_file>  (280) 
/var/tmp/pbs.5076255.sched01/tmpycp4azd_/132pnz8hy5b.sdf

>  <i_m_source_file_index>  (280) 
7

>  <i_lp_mmshare_version>  (280) 
48012

>  <i_f3d_flags>  (280) 
0

>  <s_epik_input>  (280) 
W09IXVtDQEhdMVtDSDJdW0NIMl1bQ0BAXShbT0hdKShbQ0gyXU9bQ0BASF0yW0NASF0zNClbQ0BdMyhbQ0gzXSlbQ0BIXShbQ0BIXTVbQ0BAXTEyNClbQ0BIXTZbQ0BASF0oW0NIMl1bQ0gyXTYpW0NASF03W0NASF01Tzc=

>  <s_epik_cmdline>  (280) 
J2VwaWtfcHl0aG9uJywgJy1waHQnLCAnMi4wJywgJy1waCcsICc3LjAnLCAnLXRuJywgJzgnLCAnLW1hJywgJzIwMCcsICctaW1hZScsICc8aW5maWxlLm1hZT4nLCAnLW9tYWUnLCAnPG91dGZpbGUubWFlPic=

>  <r_lp_tautomer_probability>  (280) 
1

>  <r_epik_Ionization_Penalty>  (280) 
4.8261e-07

>  <r_epik_Ionization_Penalty_Charging>  (280) 
0

>  <r_epik_Ionization_Penalty_Neutral>  (280) 
4.8261e-07

>  <r_epik_State_Penalty>  (280) 
-0

>  <r_epik_Charging_Adjusted_Penalty>  (280) 
0

>  <i_epik_Tot_Q>  (280) 
0

>  <i_epik_Tot_abs_Q>  (280) 
0

>  <s_lp_Force_Field>  (280) 
OPLS3e

>  <r_lp_Energy>  (280) 
158.274

>  <b_lp_Chiralities_Consistent>  (280) 
1

>  <s_lp_Variant>  (280) 
89:0-1

>  <s_i_glide_gridfile>  (280) 
pfpi4k_grid

>  <i_i_glide_lignum>  (280) 
7

>  <i_i_glide_rotatable_bonds>  (280) 
2

>  <r_i_docking_score>  (280) 
-3.99595

>  <r_i_glide_ligand_efficiency>  (280) 
-0.181634

>  <r_i_glide_ligand_efficiency_sa>  (280) 
-0.508946

>  <r_i_glide_ligand_efficiency_ln>  (280) 
-0.976755

>  <r_i_glide_gscore>  (280) 
-3.99595

>  <r_i_glide_lipo>  (280) 
-0.424692

>  <r_i_glide_hbond>  (280) 
-0.456965

>  <r_i_glide_metal>  (280) 
-0

>  <r_i_glide_rewards>  (280) 
-1.33377

>  <r_i_glide_evdw>  (280) 
-15.5877

>  <r_i_glide_ecoul>  (280) 
-6.67427

>  <r_i_glide_erotb>  (280) 
0

>  <r_i_glide_esite>  (280) 
0

>  <r_i_glide_emodel>  (280) 
-29.7156

>  <r_i_glide_energy>  (280) 
-22.2619

>  <r_i_glide_einternal>  (280) 
0.630532

>  <r_i_glide_intrahb_reward>  (280) 
-0

>  <i_i_glide_confnum>  (280) 
1

>  <i_i_glide_posenum>  (280) 
21

>  <r_i_glide_eff_state_penalty>  (280) 
0

>  <ligand_id>  (280) 
89

>  <original_smiles>  (280) 
CC12C3C4CCC4C4OC4C3C34C(O)CCC1(O)COC3C42

>  <smiles>  (280) 
[H]OC1([H])C([H])([H])C([H])([H])C2(O[H])C([H])([H])OC3([H])C4([H])C13C1([H])C3([H])OC3([H])C3([H])C([H])([H])C([H])([H])C3([H])C1([H])C42C([H])([H])[H]

$$$$
90:0:0
     RDKit          3D

 25 26  0  0  1  0  0  0  0  0999 V2000
    3.2018    0.0515   -4.4600 C   0  0  0  0  0  0  0  0  0  0  0  0
    4.2279   -0.9680   -3.9797 C   0  0  0  0  0  0  0  0  0  0  0  0
    3.6160   -2.3489   -3.6550 C   0  0  0  0  0  0  0  0  0  0  0  0
    4.6328   -3.3611   -3.0857 C   0  0  0  0  0  0  0  0  0  0  0  0
    5.4545   -2.8089   -2.0149 N   0  0  0  0  0  0  0  0  0  0  0  0
    6.7963   -2.8722   -1.9021 C   0  0  0  0  0  0  0  0  0  0  0  0
    7.3520   -2.2629   -0.8568 N   0  0  0  0  0  0  0  0  0  0  0  0
    6.2370   -1.7950   -0.1839 C   0  0  0  0  0  0  0  0  0  0  0  0
    6.0753   -1.0579    1.0111 C   0  0  0  0  0  0  0  0  0  0  0  0
    4.8288   -0.6928    1.3874 N   0  0  0  0  0  0  0  0  0  0  0  0
    3.7865   -1.0636    0.6349 C   0  0  0  0  0  0  0  0  0  0  0  0
    3.7838   -1.7881   -0.4858 N   0  0  0  0  0  0  0  0  0  0  0  0
    5.0392   -2.1281   -0.8770 C   0  0  0  0  0  0  0  0  0  0  0  0
    3.6838    1.0095   -4.6547 H   0  0  0  0  0  0  0  0  0  0  0  0
    2.4452    0.2031   -3.6913 H   0  0  0  0  0  0  0  0  0  0  0  0
    2.7069   -0.2768   -5.3724 H   0  0  0  0  0  0  0  0  0  0  0  0
    5.0124   -1.0680   -4.7244 H   0  0  0  0  0  0  0  0  0  0  0  0
    4.7002   -0.5378   -3.0970 H   0  0  0  0  0  0  0  0  0  0  0  0
    2.8075   -2.2194   -2.9358 H   0  0  0  0  0  0  0  0  0  0  0  0
    3.1364   -2.7693   -4.5396 H   0  0  0  0  0  0  0  0  0  0  0  0
    4.1350   -4.2473   -2.6983 H   0  0  0  0  0  0  0  0  0  0  0  0
    5.2931   -3.6947   -3.8855 H   0  0  0  0  0  0  0  0  0  0  0  0
    7.3971   -3.3679   -2.6538 H   0  0  0  0  0  0  0  0  0  0  0  0
    6.9100   -0.7493    1.6273 H   0  0  0  0  0  0  0  0  0  0  0  0
    2.8138   -0.7509    0.9860 H   0  0  0  0  0  0  0  0  0  0  0  0
  1  2  1  0
  1 14  1  0
  1 15  1  0
  1 16  1  0
  2  3  1  0
  2 17  1  0
  2 18  1  0
  3  4  1  0
  3 19  1  0
  3 20  1  0
  4  5  1  0
  4 21  1  0
  4 22  1  0
  5 13  1  0
  5  6  1  0
  6  7  2  0
  6 23  1  0
  7  8  1  0
  8 13  2  0
  8  9  1  0
  9 10  2  0
  9 24  1  0
 10 11  1  0
 11 12  2  0
 11 25  1  0
 12 13  1  0
M  END
>  <i_m_ct_stereo_status>  (281) 
1

>  <s_m_source_file>  (281) 
/var/tmp/pbs.5076255.sched01/tmpycp4azd_/132pnz8hy5b.sdf

>  <i_m_source_file_index>  (281) 
8

>  <i_lp_mmshare_version>  (281) 
48012

>  <i_f3d_flags>  (281) 
0

>  <s_epik_input>  (281) 
W0NIM11bQ0gyXVtDSDJdW0NIMl1uKFtjSF1uMSljKGMxMiluW2NIXW5bY0hdMg==

>  <s_epik_cmdline>  (281) 
J2VwaWtfcHl0aG9uJywgJy1waHQnLCAnMi4wJywgJy1waCcsICc3LjAnLCAnLXRuJywgJzgnLCAnLW1hJywgJzIwMCcsICctaW1hZScsICc8aW5maWxlLm1hZT4nLCAnLW9tYWUnLCAnPG91dGZpbGUubWFlPic=

>  <r_lp_tautomer_probability>  (281) 
1

>  <r_epik_Ionization_Penalty>  (281) 
7.17547e-05

>  <r_epik_Ionization_Penalty_Charging>  (281) 
0

>  <r_epik_Ionization_Penalty_Neutral>  (281) 
7.17547e-05

>  <r_epik_State_Penalty>  (281) 
-0

>  <r_epik_Charging_Adjusted_Penalty>  (281) 
0

>  <i_epik_Tot_Q>  (281) 
0

>  <i_epik_Tot_abs_Q>  (281) 
0

>  <s_lp_Force_Field>  (281) 
OPLS3e

>  <r_lp_Energy>  (281) 
15.9009

>  <b_lp_Chiralities_Consistent>  (281) 
1

>  <s_lp_Variant>  (281) 
90:0-1

>  <s_i_glide_gridfile>  (281) 
pfpi4k_grid

>  <i_i_glide_lignum>  (281) 
8

>  <i_i_glide_rotatable_bonds>  (281) 
3

>  <r_i_docking_score>  (281) 
-4.39169

>  <r_i_glide_ligand_efficiency>  (281) 
-0.337823

>  <r_i_glide_ligand_efficiency_sa>  (281) 
-0.794334

>  <r_i_glide_ligand_efficiency_ln>  (281) 
-1.23191

>  <r_i_glide_gscore>  (281) 
-4.39169

>  <r_i_glide_lipo>  (281) 
-0.754852

>  <r_i_glide_hbond>  (281) 
-0.16

>  <r_i_glide_metal>  (281) 
-0

>  <r_i_glide_rewards>  (281) 
-2.29807

>  <r_i_glide_evdw>  (281) 
-21.6155

>  <r_i_glide_ecoul>  (281) 
-3.55175

>  <r_i_glide_erotb>  (281) 
0.503341

>  <r_i_glide_esite>  (281) 
-0.0685714

>  <r_i_glide_emodel>  (281) 
-31.3229

>  <r_i_glide_energy>  (281) 
-25.1673

>  <r_i_glide_einternal>  (281) 
1.61297

>  <r_i_glide_intrahb_reward>  (281) 
-0

>  <i_i_glide_confnum>  (281) 
6

>  <i_i_glide_posenum>  (281) 
15

>  <r_i_glide_eff_state_penalty>  (281) 
0

>  <ligand_id>  (281) 
90

>  <original_smiles>  (281) 
CCCCn1cnc2cncnc21

>  <smiles>  (281) 
[H]c1nc([H])c2nc([H])n(C([H])([H])C([H])([H])C([H])([H])C([H])([H])[H])c2n1

$$$$
90:0:1
     RDKit          3D

 25 26  0  0  1  0  0  0  0  0999 V2000
    3.4103    0.1615   -4.8861 C   0  0  0  0  0  0  0  0  0  0  0  0
    3.9626   -0.9386   -3.9766 C   0  0  0  0  0  0  0  0  0  0  0  0
    2.8579   -1.7866   -3.3275 C   0  0  0  0  0  0  0  0  0  0  0  0
    3.3960   -2.9136   -2.4357 C   0  0  0  0  0  0  0  0  0  0  0  0
    4.1812   -2.3888   -1.3337 N   0  0  0  0  0  0  0  0  0  0  0  0
    3.7283   -1.6928   -0.2675 C   0  0  0  0  0  0  0  0  0  0  0  0
    4.6251   -1.2752    0.6238 N   0  0  0  0  0  0  0  0  0  0  0  0
    5.7908   -1.7677    0.0751 C   0  0  0  0  0  0  0  0  0  0  0  0
    7.1357   -1.6909    0.4844 C   0  0  0  0  0  0  0  0  0  0  0  0
    8.0814   -2.2779   -0.2851 N   0  0  0  0  0  0  0  0  0  0  0  0
    7.7209   -2.9300   -1.3955 C   0  0  0  0  0  0  0  0  0  0  0  0
    6.5000   -3.0566   -1.9200 N   0  0  0  0  0  0  0  0  0  0  0  0
    5.5503   -2.4716   -1.1382 C   0  0  0  0  0  0  0  0  0  0  0  0
    4.2120    0.7451   -5.3340 H   0  0  0  0  0  0  0  0  0  0  0  0
    2.7826    0.8516   -4.3238 H   0  0  0  0  0  0  0  0  0  0  0  0
    2.8114   -0.2536   -5.6941 H   0  0  0  0  0  0  0  0  0  0  0  0
    4.6146   -1.5923   -4.5561 H   0  0  0  0  0  0  0  0  0  0  0  0
    4.5834   -0.4772   -3.2073 H   0  0  0  0  0  0  0  0  0  0  0  0
    2.2257   -1.1391   -2.7205 H   0  0  0  0  0  0  0  0  0  0  0  0
    2.2139   -2.2133   -4.0962 H   0  0  0  0  0  0  0  0  0  0  0  0
    2.5763   -3.4996   -2.0215 H   0  0  0  0  0  0  0  0  0  0  0  0
    4.0117   -3.5987   -3.0203 H   0  0  0  0  0  0  0  0  0  0  0  0
    2.6806   -1.4665   -0.1459 H   0  0  0  0  0  0  0  0  0  0  0  0
    7.4321   -1.1675    1.3804 H   0  0  0  0  0  0  0  0  0  0  0  0
    8.5321   -3.3651   -1.9589 H   0  0  0  0  0  0  0  0  0  0  0  0
  1  2  1  0
  1 14  1  0
  1 15  1  0
  1 16  1  0
  2  3  1  0
  2 17  1  0
  2 18  1  0
  3  4  1  0
  3 19  1  0
  3 20  1  0
  4  5  1  0
  4 21  1  0
  4 22  1  0
  5 13  1  0
  5  6  1  0
  6  7  2  0
  6 23  1  0
  7  8  1  0
  8 13  2  0
  8  9  1  0
  9 10  2  0
  9 24  1  0
 10 11  1  0
 11 12  2  0
 11 25  1  0
 12 13  1  0
M  END
>  <i_m_ct_stereo_status>  (282) 
1

>  <s_m_source_file>  (282) 
/var/tmp/pbs.5076255.sched01/tmpycp4azd_/132pnz8hy5b.sdf

>  <i_m_source_file_index>  (282) 
8

>  <i_lp_mmshare_version>  (282) 
48012

>  <i_f3d_flags>  (282) 
0

>  <s_epik_input>  (282) 
W0NIM11bQ0gyXVtDSDJdW0NIMl1uKFtjSF1uMSljKGMxMiluW2NIXW5bY0hdMg==

>  <s_epik_cmdline>  (282) 
J2VwaWtfcHl0aG9uJywgJy1waHQnLCAnMi4wJywgJy1waCcsICc3LjAnLCAnLXRuJywgJzgnLCAnLW1hJywgJzIwMCcsICctaW1hZScsICc8aW5maWxlLm1hZT4nLCAnLW9tYWUnLCAnPG91dGZpbGUubWFlPic=

>  <r_lp_tautomer_probability>  (282) 
1

>  <r_epik_Ionization_Penalty>  (282) 
7.17547e-05

>  <r_epik_Ionization_Penalty_Charging>  (282) 
0

>  <r_epik_Ionization_Penalty_Neutral>  (282) 
7.17547e-05

>  <r_epik_State_Penalty>  (282) 
-0

>  <r_epik_Charging_Adjusted_Penalty>  (282) 
0

>  <i_epik_Tot_Q>  (282) 
0

>  <i_epik_Tot_abs_Q>  (282) 
0

>  <s_lp_Force_Field>  (282) 
OPLS3e

>  <r_lp_Energy>  (282) 
15.9009

>  <b_lp_Chiralities_Consistent>  (282) 
1

>  <s_lp_Variant>  (282) 
90:0-1

>  <s_i_glide_gridfile>  (282) 
pfpi4k_grid

>  <i_i_glide_lignum>  (282) 
8

>  <i_i_glide_rotatable_bonds>  (282) 
3

>  <r_i_docking_score>  (282) 
-3.89762

>  <r_i_glide_ligand_efficiency>  (282) 
-0.299817

>  <r_i_glide_ligand_efficiency_sa>  (282) 
-0.70497

>  <r_i_glide_ligand_efficiency_ln>  (282) 
-1.09332

>  <r_i_glide_gscore>  (282) 
-3.89762

>  <r_i_glide_lipo>  (282) 
-0.385332

>  <r_i_glide_hbond>  (282) 
-0.0898861

>  <r_i_glide_metal>  (282) 
-0

>  <r_i_glide_rewards>  (282) 
-2.2076

>  <r_i_glide_evdw>  (282) 
-22.5431

>  <r_i_glide_ecoul>  (282) 
-2.89787

>  <r_i_glide_erotb>  (282) 
0.503341

>  <r_i_glide_esite>  (282) 
-0.156309

>  <r_i_glide_emodel>  (282) 
-31.4706

>  <r_i_glide_energy>  (282) 
-25.4409

>  <r_i_glide_einternal>  (282) 
0.428388

>  <r_i_glide_intrahb_reward>  (282) 
-0

>  <i_i_glide_confnum>  (282) 
6

>  <i_i_glide_posenum>  (282) 
36

>  <r_i_glide_eff_state_penalty>  (282) 
0

>  <ligand_id>  (282) 
90

>  <original_smiles>  (282) 
CCCCn1cnc2cncnc21

>  <smiles>  (282) 
[H]c1nc([H])c2nc([H])n(C([H])([H])C([H])([H])C([H])([H])C([H])([H])[H])c2n1

$$$$
90:0:2
     RDKit          3D

 25 26  0  0  1  0  0  0  0  0999 V2000
    2.4994    0.7445   -5.2533 C   0  0  0  0  0  0  0  0  0  0  0  0
    3.8059    0.7250   -4.4605 C   0  0  0  0  0  0  0  0  0  0  0  0
    3.7566   -0.1937   -3.2321 C   0  0  0  0  0  0  0  0  0  0  0  0
    3.9537   -1.6736   -3.5709 C   0  0  0  0  0  0  0  0  0  0  0  0
    4.0496   -2.4752   -2.3699 N   0  0  0  0  0  0  0  0  0  0  0  0
    3.0328   -3.0276   -1.6756 C   0  0  0  0  0  0  0  0  0  0  0  0
    3.3368   -3.7104   -0.5725 N   0  0  0  0  0  0  0  0  0  0  0  0
    4.7151   -3.6003   -0.5589 C   0  0  0  0  0  0  0  0  0  0  0  0
    5.7013   -4.0840    0.3269 C   0  0  0  0  0  0  0  0  0  0  0  0
    6.9966   -3.7858    0.0702 N   0  0  0  0  0  0  0  0  0  0  0  0
    7.3111   -3.0550   -1.0066 C   0  0  0  0  0  0  0  0  0  0  0  0
    6.4959   -2.5106   -1.9133 N   0  0  0  0  0  0  0  0  0  0  0  0
    5.1894   -2.8269   -1.6585 C   0  0  0  0  0  0  0  0  0  0  0  0
    2.5945    1.4019   -6.1150 H   0  0  0  0  0  0  0  0  0  0  0  0
    1.6607    1.0981   -4.6566 H   0  0  0  0  0  0  0  0  0  0  0  0
    2.2411   -0.2530   -5.5991 H   0  0  0  0  0  0  0  0  0  0  0  0
    4.6150    0.4236   -5.1188 H   0  0  0  0  0  0  0  0  0  0  0  0
    4.0380    1.7401   -4.1386 H   0  0  0  0  0  0  0  0  0  0  0  0
    4.5287    0.1245   -2.5297 H   0  0  0  0  0  0  0  0  0  0  0  0
    2.8040   -0.0642   -2.7226 H   0  0  0  0  0  0  0  0  0  0  0  0
    3.1252   -2.0434   -4.1722 H   0  0  0  0  0  0  0  0  0  0  0  0
    4.8673   -1.8094   -4.1456 H   0  0  0  0  0  0  0  0  0  0  0  0
    2.0084   -2.9019   -1.9872 H   0  0  0  0  0  0  0  0  0  0  0  0
    5.4705   -4.6745    1.2034 H   0  0  0  0  0  0  0  0  0  0  0  0
    8.3646   -2.8632   -1.1424 H   0  0  0  0  0  0  0  0  0  0  0  0
  1  2  1  0
  1 14  1  0
  1 15  1  0
  1 16  1  0
  2  3  1  0
  2 17  1  0
  2 18  1  0
  3  4  1  0
  3 19  1  0
  3 20  1  0
  4  5  1  0
  4 21  1  0
  4 22  1  0
  5 13  1  0
  5  6  1  0
  6  7  2  0
  6 23  1  0
  7  8  1  0
  8 13  2  0
  8  9  1  0
  9 10  2  0
  9 24  1  0
 10 11  1  0
 11 12  2  0
 11 25  1  0
 12 13  1  0
M  END
>  <i_m_ct_stereo_status>  (283) 
1

>  <s_m_source_file>  (283) 
/var/tmp/pbs.5076255.sched01/tmpycp4azd_/132pnz8hy5b.sdf

>  <i_m_source_file_index>  (283) 
8

>  <i_lp_mmshare_version>  (283) 
48012

>  <i_f3d_flags>  (283) 
0

>  <s_epik_input>  (283) 
W0NIM11bQ0gyXVtDSDJdW0NIMl1uKFtjSF1uMSljKGMxMiluW2NIXW5bY0hdMg==

>  <s_epik_cmdline>  (283) 
J2VwaWtfcHl0aG9uJywgJy1waHQnLCAnMi4wJywgJy1waCcsICc3LjAnLCAnLXRuJywgJzgnLCAnLW1hJywgJzIwMCcsICctaW1hZScsICc8aW5maWxlLm1hZT4nLCAnLW9tYWUnLCAnPG91dGZpbGUubWFlPic=

>  <r_lp_tautomer_probability>  (283) 
1

>  <r_epik_Ionization_Penalty>  (283) 
7.17547e-05

>  <r_epik_Ionization_Penalty_Charging>  (283) 
0

>  <r_epik_Ionization_Penalty_Neutral>  (283) 
7.17547e-05

>  <r_epik_State_Penalty>  (283) 
-0

>  <r_epik_Charging_Adjusted_Penalty>  (283) 
0

>  <i_epik_Tot_Q>  (283) 
0

>  <i_epik_Tot_abs_Q>  (283) 
0

>  <s_lp_Force_Field>  (283) 
OPLS3e

>  <r_lp_Energy>  (283) 
15.9009

>  <b_lp_Chiralities_Consistent>  (283) 
1

>  <s_lp_Variant>  (283) 
90:0-1

>  <s_i_glide_gridfile>  (283) 
pfpi4k_grid

>  <i_i_glide_lignum>  (283) 
8

>  <i_i_glide_rotatable_bonds>  (283) 
3

>  <r_i_docking_score>  (283) 
-3.72199

>  <r_i_glide_ligand_efficiency>  (283) 
-0.286307

>  <r_i_glide_ligand_efficiency_sa>  (283) 
-0.673204

>  <r_i_glide_ligand_efficiency_ln>  (283) 
-1.04405

>  <r_i_glide_gscore>  (283) 
-3.72199

>  <r_i_glide_lipo>  (283) 
-0.499928

>  <r_i_glide_hbond>  (283) 
-0.0588618

>  <r_i_glide_metal>  (283) 
-0

>  <r_i_glide_rewards>  (283) 
-2.31206

>  <r_i_glide_evdw>  (283) 
-22.5845

>  <r_i_glide_ecoul>  (283) 
-1.50171

>  <r_i_glide_erotb>  (283) 
0.503341

>  <r_i_glide_esite>  (283) 
0

>  <r_i_glide_emodel>  (283) 
-29.2429

>  <r_i_glide_energy>  (283) 
-24.0862

>  <r_i_glide_einternal>  (283) 
1.50059

>  <r_i_glide_intrahb_reward>  (283) 
-0

>  <i_i_glide_confnum>  (283) 
4

>  <i_i_glide_posenum>  (283) 
13

>  <r_i_glide_eff_state_penalty>  (283) 
0

>  <ligand_id>  (283) 
90

>  <original_smiles>  (283) 
CCCCn1cnc2cncnc21

>  <smiles>  (283) 
[H]c1nc([H])c2nc([H])n(C([H])([H])C([H])([H])C([H])([H])C([H])([H])[H])c2n1

$$$$
92:0:0
     RDKit          3D

 31 33  0  0  1  0  0  0  0  0999 V2000
    4.5902   -6.2387    1.0151 C   0  0  0  0  0  0  0  0  0  0  0  0
    5.4195   -4.9809    0.8309 C   0  0  0  0  0  0  0  0  0  0  0  0
    6.6486   -5.1011    0.5048 N   0  0  0  0  0  0  0  0  0  0  0  0
    7.4562   -4.0200    0.3254 C   0  0  0  0  0  0  0  0  0  0  0  0
    8.7771   -3.9778    0.2332 N   0  0  0  0  0  0  0  0  0  0  0  0
    8.9791   -2.6396    0.0841 C   0  0  0  0  0  0  0  0  0  0  0  0
    7.8862   -1.8775    0.0601 N   0  0  0  0  0  0  0  0  0  0  0  0
    6.9101   -2.7945    0.2112 N   0  0  0  0  0  0  0  0  0  0  0  0
    5.4960   -2.4785    0.2348 C   0  0  1  0  0  0  0  0  0  0  0  0
    4.9559   -2.2817   -1.1898 C   0  0  0  0  0  0  0  0  0  0  0  0
    4.3078   -1.0859   -1.5666 C   0  0  0  0  0  0  0  0  0  0  0  0
    3.8197   -0.9591   -2.8825 C   0  0  0  0  0  0  0  0  0  0  0  0
    3.9845   -2.0406   -3.7669 C   0  0  0  0  0  0  0  0  0  0  0  0
    4.6126   -3.1817   -3.4316 N   0  0  0  0  0  0  0  0  0  0  0  0
    5.0678   -3.3012   -2.1669 C   0  0  0  0  0  0  0  0  0  0  0  0
    4.7891   -3.5809    1.0835 C   0  0  1  0  0  0  0  0  0  0  0  0
    3.2450   -3.4996    1.0357 C   0  0  0  0  0  0  0  0  0  0  0  0
    2.6541   -2.6656    1.8958 N   0  0  0  0  0  0  0  0  0  0  0  0
    2.5775   -4.1536    0.2401 O   0  0  0  0  0  0  0  0  0  0  0  0
    4.1441   -6.2784    2.0104 H   0  0  0  0  0  0  0  0  0  0  0  0
    5.2368   -7.1100    0.9047 H   0  0  0  0  0  0  0  0  0  0  0  0
    3.8182   -6.3285    0.2497 H   0  0  0  0  0  0  0  0  0  0  0  0
    9.9704   -2.2145    0.0678 H   0  0  0  0  0  0  0  0  0  0  0  0
    5.3901   -1.5306    0.7660 H   0  0  0  0  0  0  0  0  0  0  0  0
    4.1940   -0.2685   -0.8670 H   0  0  0  0  0  0  0  0  0  0  0  0
    3.3159   -0.0609   -3.2141 H   0  0  0  0  0  0  0  0  0  0  0  0
    3.6220   -1.9830   -4.7826 H   0  0  0  0  0  0  0  0  0  0  0  0
    5.5422   -4.2403   -1.9373 H   0  0  0  0  0  0  0  0  0  0  0  0
    5.0579   -3.3618    2.1171 H   0  0  0  0  0  0  0  0  0  0  0  0
    3.1984   -2.0879    2.5212 H   0  0  0  0  0  0  0  0  0  0  0  0
    1.6518   -2.5505    1.8474 H   0  0  0  0  0  0  0  0  0  0  0  0
  1  2  1  0
  1 20  1  0
  1 21  1  0
  1 22  1  0
  2 16  1  0
  2  3  2  0
  3  4  1  0
  4  8  1  0
  4  5  2  0
  5  6  1  0
  6  7  2  0
  6 23  1  0
  7  8  1  0
  8  9  1  0
  9 10  1  0
  9 16  1  0
  9 24  1  1
 10 15  1  0
 10 11  2  0
 11 12  1  0
 11 25  1  0
 12 13  2  0
 12 26  1  0
 13 14  1  0
 13 27  1  0
 14 15  2  0
 15 28  1  0
 16 17  1  0
 16 29  1  1
 17 18  1  0
 17 19  2  0
 18 30  1  0
 18 31  1  0
M  END
>  <i_m_ct_stereo_status>  (284) 
1

>  <s_m_source_file>  (284) 
/var/tmp/pbs.5076255.sched01/tmpycp4azd_/132pnz8hy5b.sdf

>  <i_m_source_file_index>  (284) 
10

>  <i_lp_mmshare_version>  (284) 
48012

>  <i_f3d_flags>  (284) 
0

>  <s_epik_input>  (284) 
bjFbY0hdbm4oYzEyKVtDQEhdKFtDQEhdKEMoPU4yKVtDSDNdKUMoPU8pW05IMl0pYzNbY0hdW2NIXVtjSF1uW2NIXTM=

>  <s_epik_cmdline>  (284) 
J2VwaWtfcHl0aG9uJywgJy1waHQnLCAnMi4wJywgJy1waCcsICc3LjAnLCAnLXRuJywgJzgnLCAnLW1hJywgJzIwMCcsICctaW1hZScsICc8aW5maWxlLm1hZT4nLCAnLW9tYWUnLCAnPG91dGZpbGUubWFlPic=

>  <r_lp_tautomer_probability>  (284) 
0.999601

>  <r_epik_Ionization_Penalty>  (284) 
0.000434212

>  <r_epik_Ionization_Penalty_Charging>  (284) 
0

>  <r_epik_Ionization_Penalty_Neutral>  (284) 
0.000434212

>  <r_epik_State_Penalty>  (284) 
0.000256888

>  <r_epik_Charging_Adjusted_Penalty>  (284) 
0.000256888

>  <i_epik_Tot_Q>  (284) 
0

>  <i_epik_Tot_abs_Q>  (284) 
0

>  <s_epik_Chemistry_Notes>  (284) 
This compound has an imine and may undergo hydrolysis.

>  <s_lp_Force_Field>  (284) 
OPLS3e

>  <r_lp_Energy>  (284) 
26.8794

>  <b_lp_Chiralities_Consistent>  (284) 
1

>  <s_lp_Variant>  (284) 
92:0-1

>  <s_i_glide_gridfile>  (284) 
pfpi4k_grid

>  <i_i_glide_lignum>  (284) 
10

>  <i_i_glide_rotatable_bonds>  (284) 
2

>  <r_i_docking_score>  (284) 
-4.45337

>  <r_i_glide_ligand_efficiency>  (284) 
-0.234388

>  <r_i_glide_ligand_efficiency_sa>  (284) 
-0.625442

>  <r_i_glide_ligand_efficiency_ln>  (284) 
-1.12903

>  <r_i_glide_gscore>  (284) 
-4.45337

>  <r_i_glide_lipo>  (284) 
-0.455565

>  <r_i_glide_hbond>  (284) 
-0.104429

>  <r_i_glide_metal>  (284) 
-0

>  <r_i_glide_rewards>  (284) 
-2.11535

>  <r_i_glide_evdw>  (284) 
-27.697

>  <r_i_glide_ecoul>  (284) 
-3.99046

>  <r_i_glide_erotb>  (284) 
0.268354

>  <r_i_glide_esite>  (284) 
-0.0629672

>  <r_i_glide_emodel>  (284) 
-40.4681

>  <r_i_glide_energy>  (284) 
-31.6874

>  <r_i_glide_einternal>  (284) 
0.829875

>  <r_i_glide_intrahb_reward>  (284) 
-0

>  <i_i_glide_confnum>  (284) 
2

>  <i_i_glide_posenum>  (284) 
36

>  <r_i_glide_eff_state_penalty>  (284) 
0

>  <ligand_id>  (284) 
92

>  <original_smiles>  (284) 
CC1=Nc2ncnn2C(c2cccnc2)C1C(N)=O

>  <smiles>  (284) 
[H]c1nc2n(n1)C([H])(c1c([H])nc([H])c([H])c1[H])C([H])(C(=O)N([H])[H])C(C([H])([H])[H])=N2

$$$$
92:0:1
     RDKit          3D

 31 33  0  0  1  0  0  0  0  0999 V2000
    3.8333   -0.4269   -2.8193 C   0  0  0  0  0  0  0  0  0  0  0  0
    4.7122   -1.3765   -2.0291 C   0  0  0  0  0  0  0  0  0  0  0  0
    5.4101   -0.9964   -1.0115 N   0  0  0  0  0  0  0  0  0  0  0  0
    6.3280   -1.8031   -0.4158 C   0  0  0  0  0  0  0  0  0  0  0  0
    7.3550   -1.4683    0.3628 N   0  0  0  0  0  0  0  0  0  0  0  0
    8.0050   -2.6722    0.4779 C   0  0  0  0  0  0  0  0  0  0  0  0
    7.4274   -3.7024   -0.1231 N   0  0  0  0  0  0  0  0  0  0  0  0
    6.3639   -3.1008   -0.6810 N   0  0  0  0  0  0  0  0  0  0  0  0
    5.3444   -3.8025   -1.4257 C   0  0  1  0  0  0  0  0  0  0  0  0
    4.3226   -4.3148   -0.4187 C   0  0  0  0  0  0  0  0  0  0  0  0
    4.4821   -5.6240    0.0824 C   0  0  0  0  0  0  0  0  0  0  0  0
    3.4761   -6.1425    0.9165 C   0  0  0  0  0  0  0  0  0  0  0  0
    2.3812   -5.3187    1.2153 C   0  0  0  0  0  0  0  0  0  0  0  0
    2.2643   -4.0519    0.8099 N   0  0  0  0  0  0  0  0  0  0  0  0
    3.2142   -3.5464    0.0181 C   0  0  0  0  0  0  0  0  0  0  0  0
    4.8374   -2.8144   -2.5241 C   0  0  1  0  0  0  0  0  0  0  0  0
    3.6839   -3.3430   -3.3885 C   0  0  0  0  0  0  0  0  0  0  0  0
    2.3990   -3.0783   -3.0935 N   0  0  0  0  0  0  0  0  0  0  0  0
    4.0263   -4.0010   -4.3408 O   0  0  0  0  0  0  0  0  0  0  0  0
    3.9267   -0.5041   -3.9239 H   0  0  0  0  0  0  0  0  0  0  0  0
    4.2271    0.5375   -2.5322 H   0  0  0  0  0  0  0  0  0  0  0  0
    2.7891   -0.5437   -2.4995 H   0  0  0  0  0  0  0  0  0  0  0  0
    9.0037   -2.7894    0.9099 H   0  0  0  0  0  0  0  0  0  0  0  0
    5.6908   -4.6559   -1.9773 H   0  0  0  0  0  0  0  0  0  0  0  0
    5.3349   -6.2309   -0.2371 H   0  0  0  0  0  0  0  0  0  0  0  0
    3.5012   -7.1604    1.2844 H   0  0  0  0  0  0  0  0  0  0  0  0
    1.5551   -5.6468    1.8134 H   0  0  0  0  0  0  0  0  0  0  0  0
    3.0249   -2.5364   -0.2993 H   0  0  0  0  0  0  0  0  0  0  0  0
    5.6802   -2.7824   -3.2277 H   0  0  0  0  0  0  0  0  0  0  0  0
    2.1861   -2.5153   -2.2766 H   0  0  0  0  0  0  0  0  0  0  0  0
    1.6193   -3.5604   -3.5494 H   0  0  0  0  0  0  0  0  0  0  0  0
  1  2  1  0
  1 20  1  0
  1 21  1  0
  1 22  1  0
  2 16  1  0
  2  3  2  0
  3  4  1  0
  4  8  1  0
  4  5  2  0
  5  6  1  0
  6  7  2  0
  6 23  1  0
  7  8  1  0
  8  9  1  0
  9 10  1  0
  9 16  1  0
  9 24  1  6
 10 15  1  0
 10 11  2  0
 11 12  1  0
 11 25  1  0
 12 13  2  0
 12 26  1  0
 13 14  1  0
 13 27  1  0
 14 15  2  0
 15 28  1  0
 16 17  1  0
 16 29  1  6
 17 18  1  0
 17 19  2  0
 18 30  1  0
 18 31  1  0
M  END
>  <i_m_ct_stereo_status>  (285) 
1

>  <s_m_source_file>  (285) 
/var/tmp/pbs.5076255.sched01/tmpycp4azd_/132pnz8hy5b.sdf

>  <i_m_source_file_index>  (285) 
10

>  <i_lp_mmshare_version>  (285) 
48012

>  <i_f3d_flags>  (285) 
0

>  <s_epik_input>  (285) 
bjFbY0hdbm4oYzEyKVtDQEhdKFtDQEhdKEMoPU4yKVtDSDNdKUMoPU8pW05IMl0pYzNbY0hdW2NIXVtjSF1uW2NIXTM=

>  <s_epik_cmdline>  (285) 
J2VwaWtfcHl0aG9uJywgJy1waHQnLCAnMi4wJywgJy1waCcsICc3LjAnLCAnLXRuJywgJzgnLCAnLW1hJywgJzIwMCcsICctaW1hZScsICc8aW5maWxlLm1hZT4nLCAnLW9tYWUnLCAnPG91dGZpbGUubWFlPic=

>  <r_lp_tautomer_probability>  (285) 
0.999601

>  <r_epik_Ionization_Penalty>  (285) 
0.000434212

>  <r_epik_Ionization_Penalty_Charging>  (285) 
0

>  <r_epik_Ionization_Penalty_Neutral>  (285) 
0.000434212

>  <r_epik_State_Penalty>  (285) 
0.000256888

>  <r_epik_Charging_Adjusted_Penalty>  (285) 
0.000256888

>  <i_epik_Tot_Q>  (285) 
0

>  <i_epik_Tot_abs_Q>  (285) 
0

>  <s_epik_Chemistry_Notes>  (285) 
This compound has an imine and may undergo hydrolysis.

>  <s_lp_Force_Field>  (285) 
OPLS3e

>  <r_lp_Energy>  (285) 
26.8794

>  <b_lp_Chiralities_Consistent>  (285) 
1

>  <s_lp_Variant>  (285) 
92:0-1

>  <s_i_glide_gridfile>  (285) 
pfpi4k_grid

>  <i_i_glide_lignum>  (285) 
10

>  <i_i_glide_rotatable_bonds>  (285) 
2

>  <r_i_docking_score>  (285) 
-4.40212

>  <r_i_glide_ligand_efficiency>  (285) 
-0.23169

>  <r_i_glide_ligand_efficiency_sa>  (285) 
-0.618243

>  <r_i_glide_ligand_efficiency_ln>  (285) 
-1.11603

>  <r_i_glide_gscore>  (285) 
-4.40212

>  <r_i_glide_lipo>  (285) 
-0.321476

>  <r_i_glide_hbond>  (285) 
-0.304067

>  <r_i_glide_metal>  (285) 
-0

>  <r_i_glide_rewards>  (285) 
-2.22508

>  <r_i_glide_evdw>  (285) 
-22.7693

>  <r_i_glide_ecoul>  (285) 
-3.93979

>  <r_i_glide_erotb>  (285) 
0.268354

>  <r_i_glide_esite>  (285) 
-0.0904156

>  <r_i_glide_emodel>  (285) 
-33.7778

>  <r_i_glide_energy>  (285) 
-26.7091

>  <r_i_glide_einternal>  (285) 
2.15932

>  <r_i_glide_intrahb_reward>  (285) 
-0

>  <i_i_glide_confnum>  (285) 
2

>  <i_i_glide_posenum>  (285) 
38

>  <r_i_glide_eff_state_penalty>  (285) 
0

>  <ligand_id>  (285) 
92

>  <original_smiles>  (285) 
CC1=Nc2ncnn2C(c2cccnc2)C1C(N)=O

>  <smiles>  (285) 
[H]c1nc2n(n1)C([H])(c1c([H])nc([H])c([H])c1[H])C([H])(C(=O)N([H])[H])C(C([H])([H])[H])=N2

$$$$
92:0:2
     RDKit          3D

 31 33  0  0  1  0  0  0  0  0999 V2000
    1.5898   -2.2020    2.8743 C   0  0  0  0  0  0  0  0  0  0  0  0
    2.6085   -3.0554    2.1377 C   0  0  0  0  0  0  0  0  0  0  0  0
    2.3470   -4.2898    1.9339 N   0  0  0  0  0  0  0  0  0  0  0  0
    3.2292   -5.1127    1.2966 C   0  0  0  0  0  0  0  0  0  0  0  0
    3.2143   -6.4346    1.2043 N   0  0  0  0  0  0  0  0  0  0  0  0
    4.3454   -6.6570    0.4726 C   0  0  0  0  0  0  0  0  0  0  0  0
    5.0200   -5.5699    0.1002 N   0  0  0  0  0  0  0  0  0  0  0  0
    4.2752   -4.5835    0.6361 N   0  0  0  0  0  0  0  0  0  0  0  0
    4.5665   -3.1701    0.4611 C   0  0  1  0  0  0  0  0  0  0  0  0
    4.0991   -2.6508   -0.9137 C   0  0  0  0  0  0  0  0  0  0  0  0
    4.6896   -1.5125   -1.5073 C   0  0  0  0  0  0  0  0  0  0  0  0
    4.2137   -1.0523   -2.7518 C   0  0  0  0  0  0  0  0  0  0  0  0
    3.1644   -1.7587   -3.3704 C   0  0  0  0  0  0  0  0  0  0  0  0
    2.6015   -2.8485   -2.8288 N   0  0  0  0  0  0  0  0  0  0  0  0
    3.0450   -3.2700   -1.6281 C   0  0  0  0  0  0  0  0  0  0  0  0
    3.9571   -2.4320    1.6894 C   0  0  1  0  0  0  0  0  0  0  0  0
    4.0043   -0.8888    1.6113 C   0  0  0  0  0  0  0  0  0  0  0  0
    3.0200   -0.2400    0.9834 N   0  0  0  0  0  0  0  0  0  0  0  0
    4.9551   -0.2805    2.0979 O   0  0  0  0  0  0  0  0  0  0  0  0
    2.0322   -1.7369    3.7605 H   0  0  0  0  0  0  0  0  0  0  0  0
    0.7639   -2.8380    3.2013 H   0  0  0  0  0  0  0  0  0  0  0  0
    1.1444   -1.4345    2.2340 H   0  0  0  0  0  0  0  0  0  0  0  0
    4.6802   -7.6425    0.1861 H   0  0  0  0  0  0  0  0  0  0  0  0
    5.6497   -3.0530    0.5044 H   0  0  0  0  0  0  0  0  0  0  0  0
    5.4821   -0.9715   -1.0069 H   0  0  0  0  0  0  0  0  0  0  0  0
    4.6118   -0.1633   -3.2225 H   0  0  0  0  0  0  0  0  0  0  0  0
    2.7534   -1.4394   -4.3187 H   0  0  0  0  0  0  0  0  0  0  0  0
    2.5247   -4.1316   -1.2479 H   0  0  0  0  0  0  0  0  0  0  0  0
    4.6266   -2.6768    2.5134 H   0  0  0  0  0  0  0  0  0  0  0  0
    2.2731   -0.7415    0.5108 H   0  0  0  0  0  0  0  0  0  0  0  0
    3.0507    0.7678    0.9186 H   0  0  0  0  0  0  0  0  0  0  0  0
  1  2  1  0
  1 20  1  0
  1 21  1  0
  1 22  1  0
  2 16  1  0
  2  3  2  0
  3  4  1  0
  4  8  1  0
  4  5  2  0
  5  6  1  0
  6  7  2  0
  6 23  1  0
  7  8  1  0
  8  9  1  0
  9 10  1  0
  9 16  1  0
  9 24  1  6
 10 15  1  0
 10 11  2  0
 11 12  1  0
 11 25  1  0
 12 13  2  0
 12 26  1  0
 13 14  1  0
 13 27  1  0
 14 15  2  0
 15 28  1  0
 16 17  1  0
 16 29  1  1
 17 18  1  0
 17 19  2  0
 18 30  1  0
 18 31  1  0
M  END
>  <i_m_ct_stereo_status>  (286) 
1

>  <s_m_source_file>  (286) 
/var/tmp/pbs.5076255.sched01/tmpycp4azd_/132pnz8hy5b.sdf

>  <i_m_source_file_index>  (286) 
10

>  <i_lp_mmshare_version>  (286) 
48012

>  <i_f3d_flags>  (286) 
0

>  <s_epik_input>  (286) 
bjFbY0hdbm4oYzEyKVtDQEhdKFtDQEhdKEMoPU4yKVtDSDNdKUMoPU8pW05IMl0pYzNbY0hdW2NIXVtjSF1uW2NIXTM=

>  <s_epik_cmdline>  (286) 
J2VwaWtfcHl0aG9uJywgJy1waHQnLCAnMi4wJywgJy1waCcsICc3LjAnLCAnLXRuJywgJzgnLCAnLW1hJywgJzIwMCcsICctaW1hZScsICc8aW5maWxlLm1hZT4nLCAnLW9tYWUnLCAnPG91dGZpbGUubWFlPic=

>  <r_lp_tautomer_probability>  (286) 
0.999601

>  <r_epik_Ionization_Penalty>  (286) 
0.000434212

>  <r_epik_Ionization_Penalty_Charging>  (286) 
0

>  <r_epik_Ionization_Penalty_Neutral>  (286) 
0.000434212

>  <r_epik_State_Penalty>  (286) 
0.000256888

>  <r_epik_Charging_Adjusted_Penalty>  (286) 
0.000256888

>  <i_epik_Tot_Q>  (286) 
0

>  <i_epik_Tot_abs_Q>  (286) 
0

>  <s_epik_Chemistry_Notes>  (286) 
This compound has an imine and may undergo hydrolysis.

>  <s_lp_Force_Field>  (286) 
OPLS3e

>  <r_lp_Energy>  (286) 
26.8794

>  <b_lp_Chiralities_Consistent>  (286) 
1

>  <s_lp_Variant>  (286) 
92:0-1

>  <s_i_glide_gridfile>  (286) 
pfpi4k_grid

>  <i_i_glide_lignum>  (286) 
10

>  <i_i_glide_rotatable_bonds>  (286) 
2

>  <r_i_docking_score>  (286) 
-3.74856

>  <r_i_glide_ligand_efficiency>  (286) 
-0.197292

>  <r_i_glide_ligand_efficiency_sa>  (286) 
-0.526455

>  <r_i_glide_ligand_efficiency_ln>  (286) 
-0.95034

>  <r_i_glide_gscore>  (286) 
-3.74856

>  <r_i_glide_lipo>  (286) 
-0.259054

>  <r_i_glide_hbond>  (286) 
-0.227226

>  <r_i_glide_metal>  (286) 
-0

>  <r_i_glide_rewards>  (286) 
-1.93687

>  <r_i_glide_evdw>  (286) 
-24.9541

>  <r_i_glide_ecoul>  (286) 
-1.93005

>  <r_i_glide_erotb>  (286) 
0.268354

>  <r_i_glide_esite>  (286) 
-0.0565509

>  <r_i_glide_emodel>  (286) 
-33.3782

>  <r_i_glide_energy>  (286) 
-26.8842

>  <r_i_glide_einternal>  (286) 
2.51911

>  <r_i_glide_intrahb_reward>  (286) 
-0

>  <i_i_glide_confnum>  (286) 
2

>  <i_i_glide_posenum>  (286) 
2

>  <r_i_glide_eff_state_penalty>  (286) 
0

>  <ligand_id>  (286) 
92

>  <original_smiles>  (286) 
CC1=Nc2ncnn2C(c2cccnc2)C1C(N)=O

>  <smiles>  (286) 
[H]c1nc2n(n1)C([H])(c1c([H])nc([H])c([H])c1[H])C([H])(C(=O)N([H])[H])C(C([H])([H])[H])=N2

$$$$
94:0:0
     RDKit          3D

 60 64  0  0  1  0  0  0  0  0999 V2000
    1.9274    2.9440    2.9111 C   0  0  0  0  0  0  0  0  0  0  0  0
    0.7890    1.9562    3.2817 C   0  0  1  0  0  0  0  0  0  0  0  0
   -0.3321    2.7354    2.8807 O   0  0  0  0  0  0  0  0  0  0  0  0
    0.7040    0.6362    2.4397 C   0  0  1  0  0  0  0  0  0  0  0  0
    1.5573    0.6613    1.3019 O   0  0  0  0  0  0  0  0  0  0  0  0
    0.9915   -0.7131    3.1669 C   0  0  0  0  0  0  0  0  0  0  0  0
    0.4732   -0.9056    4.6118 C   0  0  2  0  0  0  0  0  0  0  0  0
   -0.8608   -0.1502    4.7985 C   0  0  0  0  0  0  0  0  0  0  0  0
   -1.9176   -0.7777    4.7992 O   0  0  0  0  0  0  0  0  0  0  0  0
   -0.6867    1.1437    5.0214 O   0  0  0  0  0  0  0  0  0  0  0  0
    0.5756    1.7790    4.8400 C   0  0  1  0  0  0  0  0  0  0  0  0
    1.6409    1.0610    5.7825 C   0  0  2  0  0  0  0  0  0  0  0  0
    1.4081    1.6987    7.1877 C   0  0  0  0  0  0  0  0  0  0  0  0
    3.1264    1.4532    5.5114 C   0  0  0  0  0  0  0  0  0  0  0  0
    3.8363    0.5786    4.4727 C   0  0  0  0  0  0  0  0  0  0  0  0
    4.0712   -0.8767    4.9354 C   0  0  1  0  0  0  0  0  0  0  0  0
    5.3615   -0.8644    5.8047 C   0  0  0  0  0  0  0  0  0  0  0  0
    2.8588   -1.3049    5.8611 C   0  0  2  0  0  0  0  0  0  0  0  0
    2.8023   -2.8448    6.0486 C   0  0  0  0  0  0  0  0  0  0  0  0
    2.5804   -3.6066    4.7371 C   0  0  0  0  0  0  0  0  0  0  0  0
    3.5276   -3.1656    3.6659 C   0  0  2  0  0  0  0  0  0  0  0  0
    4.9924   -3.2177    3.9321 C   0  0  0  0  0  0  0  0  0  0  0  0
    4.3263   -1.8559    3.7333 C   0  0  2  0  0  0  0  0  0  0  0  0
    4.7580   -1.1836    2.4310 C   0  0  0  0  0  0  0  0  0  0  0  0
    1.4542   -0.5268    5.7901 C   0  0  2  0  0  0  0  0  0  0  0  0
    0.6972   -0.9925    7.0896 C   0  0  0  0  0  0  0  0  0  0  0  0
    2.9273    2.5340    2.9349 H   0  0  0  0  0  0  0  0  0  0  0  0
    1.9204    3.8052    3.5806 H   0  0  0  0  0  0  0  0  0  0  0  0
    1.8186    3.3319    1.8994 H   0  0  0  0  0  0  0  0  0  0  0  0
   -0.1572    3.1471    2.0289 H   0  0  0  0  0  0  0  0  0  0  0  0
   -0.3075    0.5556    2.0342 H   0  0  0  0  0  0  0  0  0  0  0  0
    1.1966    0.0960    0.6263 H   0  0  0  0  0  0  0  0  0  0  0  0
    0.5434   -1.4979    2.5572 H   0  0  0  0  0  0  0  0  0  0  0  0
    2.0337   -0.9658    3.1244 H   0  0  0  0  0  0  0  0  0  0  0  0
    0.2217   -1.9537    4.7245 H   0  0  0  0  0  0  0  0  0  0  0  0
    0.4624    2.7932    5.2225 H   0  0  0  0  0  0  0  0  0  0  0  0
    2.0204    1.2285    7.9622 H   0  0  0  0  0  0  0  0  0  0  0  0
    0.3658    1.6555    7.5068 H   0  0  0  0  0  0  0  0  0  0  0  0
    1.6713    2.7603    7.1859 H   0  0  0  0  0  0  0  0  0  0  0  0
    3.1737    2.4959    5.1895 H   0  0  0  0  0  0  0  0  0  0  0  0
    3.7081    1.4478    6.4116 H   0  0  0  0  0  0  0  0  0  0  0  0
    3.3034    0.6182    3.5589 H   0  0  0  0  0  0  0  0  0  0  0  0
    4.8007    1.0410    4.2391 H   0  0  0  0  0  0  0  0  0  0  0  0
    5.5522   -1.8135    6.2968 H   0  0  0  0  0  0  0  0  0  0  0  0
    5.3205   -0.1193    6.6010 H   0  0  0  0  0  0  0  0  0  0  0  0
    6.2339   -0.6347    5.2057 H   0  0  0  0  0  0  0  0  0  0  0  0
    3.1988   -0.9820    6.8463 H   0  0  0  0  0  0  0  0  0  0  0  0
    3.7525   -3.1673    6.4757 H   0  0  0  0  0  0  0  0  0  0  0  0
    2.0802   -3.1629    6.7971 H   0  0  0  0  0  0  0  0  0  0  0  0
    2.7154   -4.6713    4.9104 H   0  0  0  0  0  0  0  0  0  0  0  0
    1.5584   -3.4799    4.3908 H   0  0  0  0  0  0  0  0  0  0  0  0
    3.2171   -3.4661    2.6589 H   0  0  0  0  0  0  0  0  0  0  0  0
    5.3142   -3.5273    4.9224 H   0  0  0  0  0  0  0  0  0  0  0  0
    5.6058   -3.6040    3.1255 H   0  0  0  0  0  0  0  0  0  0  0  0
    5.0489   -1.9378    1.6940 H   0  0  0  0  0  0  0  0  0  0  0  0
    5.6108   -0.5229    2.5804 H   0  0  0  0  0  0  0  0  0  0  0  0
    3.9412   -0.6346    1.9674 H   0  0  0  0  0  0  0  0  0  0  0  0
    1.3267   -0.9664    7.9831 H   0  0  0  0  0  0  0  0  0  0  0  0
    0.3282   -2.0142    6.9936 H   0  0  0  0  0  0  0  0  0  0  0  0
   -0.1901   -0.4100    7.3270 H   0  0  0  0  0  0  0  0  0  0  0  0
  1  2  1  0
  1 27  1  0
  1 28  1  0
  1 29  1  0
  2 11  1  0
  2  3  1  6
  2  4  1  0
  3 30  1  0
  4  5  1  0
  4  6  1  0
  4 31  1  6
  5 32  1  0
  6  7  1  0
  6 33  1  0
  6 34  1  0
  7 25  1  0
  7  8  1  0
  7 35  1  1
  8  9  2  0
  8 10  1  0
 10 11  1  0
 11 12  1  0
 11 36  1  1
 12 25  1  0
 12 13  1  1
 12 14  1  0
 13 37  1  0
 13 38  1  0
 13 39  1  0
 14 15  1  0
 14 40  1  0
 14 41  1  0
 15 16  1  0
 15 42  1  0
 15 43  1  0
 16 23  1  0
 16 17  1  1
 16 18  1  0
 17 44  1  0
 17 45  1  0
 17 46  1  0
 18 19  1  0
 18 25  1  0
 18 47  1  1
 19 20  1  0
 19 48  1  0
 19 49  1  0
 20 21  1  0
 20 50  1  0
 20 51  1  0
 21 23  1  0
 21 22  1  0
 21 52  1  6
 22 23  1  0
 22 53  1  0
 22 54  1  0
 23 24  1  6
 24 55  1  0
 24 56  1  0
 24 57  1  0
 25 26  1  1
 26 58  1  0
 26 59  1  0
 26 60  1  0
M  END
>  <i_m_ct_stereo_status>  (287) 
1

>  <s_m_source_file>  (287) 
/var/tmp/pbs.5076255.sched01/tmpycp4azd_/132pnz8hy5b.sdf

>  <i_m_source_file_index>  (287) 
12

>  <i_lp_mmshare_version>  (287) 
48012

>  <i_f3d_flags>  (287) 
0

>  <s_epik_input>  (287) 
W0NIM11bQ0BAXTEyW0NASF0zW0NAXShbQ0gzXSkoW09IXSlbQ0BASF0oW09IXSlbQ0gyXVtDQEhdKEMoPU8pTzMpW0NAQF0yKFtDSDNdKVtDQEBIXTRbQ0BdKFtDSDNdKShbQ0gyXVtDSDJdMSlbQ0BdNShbQ0gzXSlbQ0BASF0oW0NIMl01KVtDSDJdW0NIMl00

>  <s_epik_cmdline>  (287) 
J2VwaWtfcHl0aG9uJywgJy1waHQnLCAnMi4wJywgJy1waCcsICc3LjAnLCAnLXRuJywgJzgnLCAnLW1hJywgJzIwMCcsICctaW1hZScsICc8aW5maWxlLm1hZT4nLCAnLW9tYWUnLCAnPG91dGZpbGUubWFlPic=

>  <r_lp_tautomer_probability>  (287) 
1

>  <r_epik_Ionization_Penalty>  (287) 
8.15009e-08

>  <r_epik_Ionization_Penalty_Charging>  (287) 
0

>  <r_epik_Ionization_Penalty_Neutral>  (287) 
8.15009e-08

>  <r_epik_State_Penalty>  (287) 
-0

>  <r_epik_Charging_Adjusted_Penalty>  (287) 
0

>  <i_epik_Tot_Q>  (287) 
0

>  <i_epik_Tot_abs_Q>  (287) 
0

>  <s_epik_Chemistry_Notes>  (287) 
This compound has an ester and may undergo hydrolysis at high or low pH.

>  <s_lp_Force_Field>  (287) 
OPLS3e

>  <r_lp_Energy>  (287) 
103.062

>  <b_lp_Chiralities_Consistent>  (287) 
1

>  <s_lp_Variant>  (287) 
94:0-1

>  <s_i_glide_gridfile>  (287) 
pfpi4k_grid

>  <i_i_glide_lignum>  (287) 
12

>  <i_i_glide_rotatable_bonds>  (287) 
2

>  <r_i_docking_score>  (287) 
-3.31019

>  <r_i_glide_ligand_efficiency>  (287) 
-0.127315

>  <r_i_glide_ligand_efficiency_sa>  (287) 
-0.37717

>  <r_i_glide_ligand_efficiency_ln>  (287) 
-0.777387

>  <r_i_glide_gscore>  (287) 
-3.31019

>  <r_i_glide_lipo>  (287) 
-0.156439

>  <r_i_glide_hbond>  (287) 
0

>  <r_i_glide_metal>  (287) 
-0

>  <r_i_glide_rewards>  (287) 
-0.93748

>  <r_i_glide_evdw>  (287) 
-20.0245

>  <r_i_glide_ecoul>  (287) 
-7.92036

>  <r_i_glide_erotb>  (287) 
0

>  <r_i_glide_esite>  (287) 
-0.0269906

>  <r_i_glide_emodel>  (287) 
-34.0406

>  <r_i_glide_energy>  (287) 
-27.9449

>  <r_i_glide_einternal>  (287) 
0.828613

>  <r_i_glide_intrahb_reward>  (287) 
-0

>  <i_i_glide_confnum>  (287) 
1

>  <i_i_glide_posenum>  (287) 
21

>  <r_i_glide_eff_state_penalty>  (287) 
0

>  <ligand_id>  (287) 
94

>  <original_smiles>  (287) 
CC1(O)C(O)CC2C(=O)OC1C1(C)CCC3(C)C(CCC4CC43C)C21C

>  <smiles>  (287) 
[H]OC1([H])C([H])([H])C2([H])C(=O)OC([H])(C1(O[H])C([H])([H])[H])C1(C([H])([H])[H])C([H])([H])C([H])([H])C3(C([H])([H])[H])C([H])(C([H])([H])C([H])([H])C4([H])C([H])([H])C43C([H])([H])[H])C21C([H])([H])[H]

$$$$
94:0:1
     RDKit          3D

 60 64  0  0  1  0  0  0  0  0999 V2000
    3.3238    1.0666    3.0782 C   0  0  0  0  0  0  0  0  0  0  0  0
    2.5580   -0.2535    3.2624 C   0  0  1  0  0  0  0  0  0  0  0  0
    1.5107    0.2043    4.0959 O   0  0  0  0  0  0  0  0  0  0  0  0
    1.8669   -0.7910    1.9829 C   0  0  1  0  0  0  0  0  0  0  0  0
    2.0205    0.1527    0.9511 O   0  0  0  0  0  0  0  0  0  0  0  0
    2.3375   -2.1319    1.3726 C   0  0  0  0  0  0  0  0  0  0  0  0
    2.7698   -3.2680    2.3096 C   0  0  2  0  0  0  0  0  0  0  0  0
    1.9264   -3.2198    3.5820 C   0  0  0  0  0  0  0  0  0  0  0  0
    0.9898   -3.9841    3.7564 O   0  0  0  0  0  0  0  0  0  0  0  0
    2.3430   -2.3160    4.4712 O   0  0  0  0  0  0  0  0  0  0  0  0
    3.3131   -1.3250    4.1022 C   0  0  1  0  0  0  0  0  0  0  0  0
    4.6222   -2.0542    3.5734 C   0  0  2  0  0  0  0  0  0  0  0  0
    5.3448   -2.4466    4.8962 C   0  0  0  0  0  0  0  0  0  0  0  0
    5.6010   -1.0994    2.8357 C   0  0  0  0  0  0  0  0  0  0  0  0
    5.4727   -0.9760    1.3218 C   0  0  0  0  0  0  0  0  0  0  0  0
    5.7608   -2.2825    0.5439 C   0  0  1  0  0  0  0  0  0  0  0  0
    7.2984   -2.3616    0.3272 C   0  0  0  0  0  0  0  0  0  0  0  0
    5.3397   -3.5066    1.4533 C   0  0  2  0  0  0  0  0  0  0  0  0
    5.2221   -4.7969    0.6160 C   0  0  0  0  0  0  0  0  0  0  0  0
    4.1597   -4.6948   -0.4558 C   0  0  0  0  0  0  0  0  0  0  0  0
    4.2812   -3.4650   -1.3100 C   0  0  2  0  0  0  0  0  0  0  0  0
    5.5811   -3.1911   -1.9941 C   0  0  0  0  0  0  0  0  0  0  0  0
    5.1017   -2.2734   -0.8793 C   0  0  2  0  0  0  0  0  0  0  0  0
    4.7239   -0.9086   -1.4147 C   0  0  0  0  0  0  0  0  0  0  0  0
    4.2986   -3.3264    2.6675 C   0  0  2  0  0  0  0  0  0  0  0  0
    4.4343   -4.6630    3.4895 C   0  0  0  0  0  0  0  0  0  0  0  0
    4.0329    0.9781    2.2650 H   0  0  0  0  0  0  0  0  0  0  0  0
    3.8768    1.3555    3.9718 H   0  0  0  0  0  0  0  0  0  0  0  0
    2.6806    1.9102    2.7993 H   0  0  0  0  0  0  0  0  0  0  0  0
    0.9707    0.7694    3.5633 H   0  0  0  0  0  0  0  0  0  0  0  0
    0.7955   -0.9009    2.1650 H   0  0  0  0  0  0  0  0  0  0  0  0
    1.4661   -0.1785    0.2251 H   0  0  0  0  0  0  0  0  0  0  0  0
    1.5042   -2.5072    0.7857 H   0  0  0  0  0  0  0  0  0  0  0  0
    3.0761   -1.9909    0.5965 H   0  0  0  0  0  0  0  0  0  0  0  0
    2.4923   -4.2055    1.8276 H   0  0  0  0  0  0  0  0  0  0  0  0
    3.5957   -0.7941    5.0139 H   0  0  0  0  0  0  0  0  0  0  0  0
    6.1891   -3.1066    4.7066 H   0  0  0  0  0  0  0  0  0  0  0  0
    4.6893   -2.9519    5.6110 H   0  0  0  0  0  0  0  0  0  0  0  0
    5.7308   -1.5621    5.4016 H   0  0  0  0  0  0  0  0  0  0  0  0
    5.6353   -0.1272    3.3149 H   0  0  0  0  0  0  0  0  0  0  0  0
    6.6028   -1.4745    2.9440 H   0  0  0  0  0  0  0  0  0  0  0  0
    4.4949   -0.5915    1.1047 H   0  0  0  0  0  0  0  0  0  0  0  0
    6.1587   -0.2035    0.9917 H   0  0  0  0  0  0  0  0  0  0  0  0
    7.6371   -3.3114   -0.0912 H   0  0  0  0  0  0  0  0  0  0  0  0
    7.8196   -2.2723    1.2722 H   0  0  0  0  0  0  0  0  0  0  0  0
    7.6836   -1.5744   -0.3214 H   0  0  0  0  0  0  0  0  0  0  0  0
    6.2467   -3.7087    2.0260 H   0  0  0  0  0  0  0  0  0  0  0  0
    6.1748   -4.9888    0.1253 H   0  0  0  0  0  0  0  0  0  0  0  0
    5.0647   -5.6949    1.2068 H   0  0  0  0  0  0  0  0  0  0  0  0
    4.2914   -5.5477   -1.1059 H   0  0  0  0  0  0  0  0  0  0  0  0
    3.1561   -4.7494   -0.0499 H   0  0  0  0  0  0  0  0  0  0  0  0
    3.3839   -3.2380   -1.8810 H   0  0  0  0  0  0  0  0  0  0  0  0
    6.4183   -3.8546   -1.8068 H   0  0  0  0  0  0  0  0  0  0  0  0
    5.5097   -2.8344   -3.0205 H   0  0  0  0  0  0  0  0  0  0  0  0
    4.3977   -0.9596   -2.4546 H   0  0  0  0  0  0  0  0  0  0  0  0
    5.5980   -0.2635   -1.3627 H   0  0  0  0  0  0  0  0  0  0  0  0
    3.8913   -0.4801   -0.8628 H   0  0  0  0  0  0  0  0  0  0  0  0
    5.4697   -4.9513    3.6581 H   0  0  0  0  0  0  0  0  0  0  0  0
    3.9541   -5.5006    2.9830 H   0  0  0  0  0  0  0  0  0  0  0  0
    3.9551   -4.6390    4.4675 H   0  0  0  0  0  0  0  0  0  0  0  0
  1  2  1  0
  1 27  1  0
  1 28  1  0
  1 29  1  0
  2 11  1  0
  2  3  1  1
  2  4  1  0
  3 30  1  0
  4  5  1  0
  4  6  1  0
  4 31  1  1
  5 32  1  0
  6  7  1  0
  6 33  1  0
  6 34  1  0
  7 25  1  0
  7  8  1  0
  7 35  1  6
  8  9  2  0
  8 10  1  0
 10 11  1  0
 11 12  1  0
 11 36  1  1
 12 25  1  0
 12 13  1  1
 12 14  1  0
 13 37  1  0
 13 38  1  0
 13 39  1  0
 14 15  1  0
 14 40  1  0
 14 41  1  0
 15 16  1  0
 15 42  1  0
 15 43  1  0
 16 23  1  0
 16 17  1  6
 16 18  1  0
 17 44  1  0
 17 45  1  0
 17 46  1  0
 18 19  1  0
 18 25  1  0
 18 47  1  1
 19 20  1  0
 19 48  1  0
 19 49  1  0
 20 21  1  0
 20 50  1  0
 20 51  1  0
 21 23  1  0
 21 22  1  0
 21 52  1  6
 22 23  1  0
 22 53  1  0
 22 54  1  0
 23 24  1  6
 24 55  1  0
 24 56  1  0
 24 57  1  0
 25 26  1  1
 26 58  1  0
 26 59  1  0
 26 60  1  0
M  END
>  <i_m_ct_stereo_status>  (288) 
1

>  <s_m_source_file>  (288) 
/var/tmp/pbs.5076255.sched01/tmpycp4azd_/132pnz8hy5b.sdf

>  <i_m_source_file_index>  (288) 
12

>  <i_lp_mmshare_version>  (288) 
48012

>  <i_f3d_flags>  (288) 
0

>  <s_epik_input>  (288) 
W0NIM11bQ0BAXTEyW0NASF0zW0NAXShbQ0gzXSkoW09IXSlbQ0BASF0oW09IXSlbQ0gyXVtDQEhdKEMoPU8pTzMpW0NAQF0yKFtDSDNdKVtDQEBIXTRbQ0BdKFtDSDNdKShbQ0gyXVtDSDJdMSlbQ0BdNShbQ0gzXSlbQ0BASF0oW0NIMl01KVtDSDJdW0NIMl00

>  <s_epik_cmdline>  (288) 
J2VwaWtfcHl0aG9uJywgJy1waHQnLCAnMi4wJywgJy1waCcsICc3LjAnLCAnLXRuJywgJzgnLCAnLW1hJywgJzIwMCcsICctaW1hZScsICc8aW5maWxlLm1hZT4nLCAnLW9tYWUnLCAnPG91dGZpbGUubWFlPic=

>  <r_lp_tautomer_probability>  (288) 
1

>  <r_epik_Ionization_Penalty>  (288) 
8.15009e-08

>  <r_epik_Ionization_Penalty_Charging>  (288) 
0

>  <r_epik_Ionization_Penalty_Neutral>  (288) 
8.15009e-08

>  <r_epik_State_Penalty>  (288) 
-0

>  <r_epik_Charging_Adjusted_Penalty>  (288) 
0

>  <i_epik_Tot_Q>  (288) 
0

>  <i_epik_Tot_abs_Q>  (288) 
0

>  <s_epik_Chemistry_Notes>  (288) 
This compound has an ester and may undergo hydrolysis at high or low pH.

>  <s_lp_Force_Field>  (288) 
OPLS3e

>  <r_lp_Energy>  (288) 
103.062

>  <b_lp_Chiralities_Consistent>  (288) 
1

>  <s_lp_Variant>  (288) 
94:0-1

>  <s_i_glide_gridfile>  (288) 
pfpi4k_grid

>  <i_i_glide_lignum>  (288) 
12

>  <i_i_glide_rotatable_bonds>  (288) 
2

>  <r_i_docking_score>  (288) 
-3.11637

>  <r_i_glide_ligand_efficiency>  (288) 
-0.11986

>  <r_i_glide_ligand_efficiency_sa>  (288) 
-0.355086

>  <r_i_glide_ligand_efficiency_ln>  (288) 
-0.731869

>  <r_i_glide_gscore>  (288) 
-3.11637

>  <r_i_glide_lipo>  (288) 
-0.752408

>  <r_i_glide_hbond>  (288) 
0

>  <r_i_glide_metal>  (288) 
-0

>  <r_i_glide_rewards>  (288) 
-0.953897

>  <r_i_glide_evdw>  (288) 
-10.0565

>  <r_i_glide_ecoul>  (288) 
-6.04825

>  <r_i_glide_erotb>  (288) 
0

>  <r_i_glide_esite>  (288) 
0

>  <r_i_glide_emodel>  (288) 
-21.4642

>  <r_i_glide_energy>  (288) 
-16.1048

>  <r_i_glide_einternal>  (288) 
0.622616

>  <r_i_glide_intrahb_reward>  (288) 
-0

>  <i_i_glide_confnum>  (288) 
2

>  <i_i_glide_posenum>  (288) 
11

>  <r_i_glide_eff_state_penalty>  (288) 
0

>  <ligand_id>  (288) 
94

>  <original_smiles>  (288) 
CC1(O)C(O)CC2C(=O)OC1C1(C)CCC3(C)C(CCC4CC43C)C21C

>  <smiles>  (288) 
[H]OC1([H])C([H])([H])C2([H])C(=O)OC([H])(C1(O[H])C([H])([H])[H])C1(C([H])([H])[H])C([H])([H])C([H])([H])C3(C([H])([H])[H])C([H])(C([H])([H])C([H])([H])C4([H])C([H])([H])C43C([H])([H])[H])C21C([H])([H])[H]

$$$$
95:0:0
     RDKit          3D

 77 85  0  0  1  0  0  0  0  0999 V2000
    5.6069   -2.8659    6.0782 C   0  0  0  0  0  0  0  0  0  0  0  0
    4.7581   -3.6329    5.3592 C   0  0  0  0  0  0  0  0  0  0  0  0
    3.3732   -3.2549    5.0050 C   0  0  0  0  0  0  0  0  0  0  0  0
    2.8123   -2.1955    5.2755 O   0  0  0  0  0  0  0  0  0  0  0  0
    2.8251   -4.3146    4.3202 O   0  0  0  0  0  0  0  0  0  0  0  0
    3.5997   -5.4972    4.5025 C   0  0  2  0  0  0  0  0  0  0  0  0
    4.9068   -4.9432    4.8424 C   0  0  0  0  0  0  0  0  0  0  0  0
    5.9287   -5.5721    4.2576 C   0  0  0  0  0  0  0  0  0  0  0  0
    5.4427   -6.7000    3.3690 C   0  0  2  0  0  0  0  0  0  0  0  0
    5.7122   -6.3989    1.8489 C   0  0  2  0  0  0  0  0  0  0  0  0
    7.0777   -5.8221    1.4010 C   0  0  0  0  0  0  0  0  0  0  0  0
    6.8889   -4.4566    0.7341 C   0  0  2  0  0  0  0  0  0  0  0  0
    8.0751   -3.5270    0.6818 C   0  0  1  0  0  0  0  0  0  0  0  0
    8.9256   -3.7006   -0.5585 C   0  0  0  0  0  0  0  0  0  0  0  0
    7.3686   -2.1715    0.7225 C   0  0  0  0  0  0  0  0  0  0  0  0
    7.9584   -1.1297    0.4585 O   0  0  0  0  0  0  0  0  0  0  0  0
    6.1439   -2.3207    1.1749 O   0  0  0  0  0  0  0  0  0  0  0  0
    5.8809   -3.6442    1.5393 C   0  0  1  0  0  0  0  0  0  0  0  0
    4.4502   -4.1665    1.3174 C   0  0  1  0  0  0  0  0  0  0  0  0
    3.8976   -3.5643    0.1571 O   0  0  0  0  0  0  0  0  0  0  0  0
    4.4377   -5.7381    1.2357 C   0  0  1  0  0  0  0  0  0  0  0  0
    4.2892   -6.1985   -0.2176 C   0  0  0  0  0  0  0  0  0  0  0  0
    3.3362   -6.4433    2.0760 C   0  0  2  0  0  0  0  0  0  0  0  0
    1.8536   -6.0458    2.0153 C   0  0  0  0  0  0  0  0  0  0  0  0
    1.0504   -6.7355    3.1640 C   0  0  1  0  0  0  0  0  0  0  0  0
   -0.3586   -7.1944    2.7050 C   0  0  0  0  0  0  0  0  0  0  0  0
   -0.7287   -8.5276    3.3846 C   0  0  2  0  0  0  0  0  0  0  0  0
   -2.1724   -8.8368    3.1134 C   0  0  0  0  0  0  0  0  0  0  0  0
   -0.3835   -8.4534    4.8807 C   0  0  0  0  0  0  0  0  0  0  0  0
    1.0172   -8.2160    5.0279 O   0  0  0  0  0  0  0  0  0  0  0  0
    1.7148   -8.0091    3.7959 C   0  0  1  0  0  0  0  0  0  0  0  0
    1.4483   -9.2123    2.8645 C   0  0  1  0  0  0  0  0  0  0  0  0
    2.4489  -10.2575    3.3172 C   0  0  0  0  0  0  0  0  0  0  0  0
    3.7171   -9.4120    3.4501 C   0  0  1  0  0  0  0  0  0  0  0  0
    4.3504   -9.4085    2.1848 O   0  0  0  0  0  0  0  0  0  0  0  0
    3.2603   -8.0211    4.0659 C   0  0  2  0  0  0  0  0  0  0  0  0
    3.5878   -8.1947    5.5887 C   0  0  0  0  0  0  0  0  0  0  0  0
    3.8761   -6.6833    3.5017 C   0  0  2  0  0  0  0  0  0  0  0  0
    0.0760   -9.5966    2.8993 O   0  0  0  0  0  0  0  0  0  0  0  0
    6.6046   -3.1802    6.3286 H   0  0  0  0  0  0  0  0  0  0  0  0
    5.2833   -1.8961    6.4330 H   0  0  0  0  0  0  0  0  0  0  0  0
    3.2033   -5.8464    5.4471 H   0  0  0  0  0  0  0  0  0  0  0  0
    6.9584   -5.2438    4.2815 H   0  0  0  0  0  0  0  0  0  0  0  0
    5.9001   -7.6372    3.6629 H   0  0  0  0  0  0  0  0  0  0  0  0
    5.7261   -7.3987    1.4047 H   0  0  0  0  0  0  0  0  0  0  0  0
    7.7885   -5.7659    2.2307 H   0  0  0  0  0  0  0  0  0  0  0  0
    7.5377   -6.4968    0.6734 H   0  0  0  0  0  0  0  0  0  0  0  0
    6.5553   -4.5631   -0.2919 H   0  0  0  0  0  0  0  0  0  0  0  0
    8.6987   -3.6294    1.5674 H   0  0  0  0  0  0  0  0  0  0  0  0
    9.7073   -2.9619   -0.4761 H   0  0  0  0  0  0  0  0  0  0  0  0
    8.3686   -3.5020   -1.4869 H   0  0  0  0  0  0  0  0  0  0  0  0
    9.3503   -4.6977   -0.6225 H   0  0  0  0  0  0  0  0  0  0  0  0
    6.1398   -3.7313    2.5882 H   0  0  0  0  0  0  0  0  0  0  0  0
    3.8469   -3.8121    2.1519 H   0  0  0  0  0  0  0  0  0  0  0  0
    4.3425   -3.8935   -0.6136 H   0  0  0  0  0  0  0  0  0  0  0  0
    3.2953   -5.8690   -0.5456 H   0  0  0  0  0  0  0  0  0  0  0  0
    4.2967   -7.2822   -0.3314 H   0  0  0  0  0  0  0  0  0  0  0  0
    5.0048   -5.8077   -0.9314 H   0  0  0  0  0  0  0  0  0  0  0  0
    3.2814   -7.4091    1.5945 H   0  0  0  0  0  0  0  0  0  0  0  0
    1.7303   -4.9659    2.0964 H   0  0  0  0  0  0  0  0  0  0  0  0
    1.4324   -6.2996    1.0451 H   0  0  0  0  0  0  0  0  0  0  0  0
    0.9186   -6.0166    3.9648 H   0  0  0  0  0  0  0  0  0  0  0  0
   -1.0805   -6.4485    3.0331 H   0  0  0  0  0  0  0  0  0  0  0  0
   -0.4560   -7.2772    1.6238 H   0  0  0  0  0  0  0  0  0  0  0  0
   -2.8265   -8.0816    3.5726 H   0  0  0  0  0  0  0  0  0  0  0  0
   -2.4426   -9.7880    3.5604 H   0  0  0  0  0  0  0  0  0  0  0  0
   -2.3937   -8.9315    2.0467 H   0  0  0  0  0  0  0  0  0  0  0  0
   -0.9345   -7.6485    5.3662 H   0  0  0  0  0  0  0  0  0  0  0  0
   -0.6277   -9.3809    5.4022 H   0  0  0  0  0  0  0  0  0  0  0  0
    1.6703   -8.9621    1.8301 H   0  0  0  0  0  0  0  0  0  0  0  0
    2.1520  -10.6615    4.2868 H   0  0  0  0  0  0  0  0  0  0  0  0
    2.5431  -11.0916    2.6157 H   0  0  0  0  0  0  0  0  0  0  0  0
    4.4268   -9.9134    4.1058 H   0  0  0  0  0  0  0  0  0  0  0  0
    4.3599  -10.2992    1.8470 H   0  0  0  0  0  0  0  0  0  0  0  0
    4.6397   -7.9962    5.7801 H   0  0  0  0  0  0  0  0  0  0  0  0
    3.3800   -9.2052    5.9380 H   0  0  0  0  0  0  0  0  0  0  0  0
    3.0055   -7.5656    6.2612 H   0  0  0  0  0  0  0  0  0  0  0  0
  1  2  2  0
  1 40  1  0
  1 41  1  0
  2  7  1  0
  2  3  1  0
  3  4  2  0
  3  5  1  0
  5  6  1  0
  6 38  1  0
  6  7  1  0
  6 42  1  1
  7  8  2  0
  8  9  1  0
  8 43  1  0
  9 38  1  0
  9 10  1  0
  9 44  1  1
 10 21  1  0
 10 11  1  0
 10 45  1  6
 11 12  1  0
 11 46  1  0
 11 47  1  0
 12 18  1  0
 12 13  1  0
 12 48  1  6
 13 14  1  0
 13 15  1  0
 13 49  1  1
 14 50  1  0
 14 51  1  0
 14 52  1  0
 15 16  2  0
 15 17  1  0
 17 18  1  0
 18 19  1  0
 18 53  1  1
 19 20  1  0
 19 21  1  0
 19 54  1  1
 20 55  1  0
 21 22  1  6
 21 23  1  0
 22 56  1  0
 22 57  1  0
 22 58  1  0
 23 38  1  0
 23 24  1  0
 23 59  1  6
 24 25  1  0
 24 60  1  0
 24 61  1  0
 25 31  1  0
 25 26  1  0
 25 62  1  1
 26 27  1  0
 26 63  1  0
 26 64  1  0
 27 39  1  0
 27 28  1  1
 27 29  1  0
 28 65  1  0
 28 66  1  0
 28 67  1  0
 29 30  1  0
 29 68  1  0
 29 69  1  0
 31 30  1  1
 31 36  1  0
 31 32  1  0
 32 33  1  0
 32 39  1  0
 32 70  1  6
 33 34  1  0
 33 71  1  0
 33 72  1  0
 34 35  1  0
 34 36  1  0
 34 73  1  1
 35 74  1  0
 36 37  1  1
 38 36  1  1
 37 75  1  0
 37 76  1  0
 37 77  1  0
M  END
>  <i_m_ct_stereo_status>  (289) 
1

>  <s_m_source_file>  (289) 
/var/tmp/pbs.5076255.sched01/tmpycp4azd_/132pnz8hy5b.sdf

>  <i_m_source_file_index>  (289) 
13

>  <i_lp_mmshare_version>  (289) 
48012

>  <i_f3d_flags>  (289) 
0

>  <s_epik_input>  (289) 
TzFbQ0gyXVtDQF0oW0NIMl0yKShbQ0gzXSlPW0NAQEhdM1tDSDJdW0NAQEhdKFtPSF0pW0NAQF00KFtDSDNdKVtDQEBdNShbQ0BIXTZbQ0gyXVtDQEBIXTJbQ0BAXTEzNClbQ0BIXTdDKEMoPVtDSDJdKUMoPU8pTzcpPVtDSF1bQ0BASF01W0NASF04W0NAXTYoW0NIM10pW0NASF0oW09IXSlbQ0BIXTlbQ0BIXShbQ0gyXTgpW0NAQEhdKFtDSDNdKUMoPU8pTzk=

>  <s_epik_cmdline>  (289) 
J2VwaWtfcHl0aG9uJywgJy1waHQnLCAnMi4wJywgJy1waCcsICc3LjAnLCAnLXRuJywgJzgnLCAnLW1hJywgJzIwMCcsICctaW1hZScsICc8aW5maWxlLm1hZT4nLCAnLW9tYWUnLCAnPG91dGZpbGUubWFlPic=

>  <r_lp_tautomer_probability>  (289) 
1

>  <r_epik_Ionization_Penalty>  (289) 
1.09975e-07

>  <r_epik_Ionization_Penalty_Charging>  (289) 
0

>  <r_epik_Ionization_Penalty_Neutral>  (289) 
1.09975e-07

>  <r_epik_State_Penalty>  (289) 
-0

>  <r_epik_Charging_Adjusted_Penalty>  (289) 
0

>  <i_epik_Tot_Q>  (289) 
0

>  <i_epik_Tot_abs_Q>  (289) 
0

>  <s_epik_Chemistry_Notes>  (289) 
This compound has an ester and may undergo hydrolysis at high or low pH.

>  <s_lp_Force_Field>  (289) 
OPLS3e

>  <r_lp_Energy>  (289) 
110.267

>  <b_lp_Chiralities_Consistent>  (289) 
1

>  <s_lp_Variant>  (289) 
95:0-1

>  <s_i_glide_gridfile>  (289) 
pfpi4k_grid

>  <i_i_glide_lignum>  (289) 
13

>  <i_i_glide_rotatable_bonds>  (289) 
2

>  <r_i_docking_score>  (289) 
-2.00689

>  <r_i_glide_ligand_efficiency>  (289) 
-0.0514588

>  <r_i_glide_ligand_efficiency_sa>  (289) 
-0.174508

>  <r_i_glide_ligand_efficiency_ln>  (289) 
-0.430335

>  <r_i_glide_gscore>  (289) 
-2.00689

>  <r_i_glide_lipo>  (289) 
-0.649936

>  <r_i_glide_hbond>  (289) 
-0.0456564

>  <r_i_glide_metal>  (289) 
-0

>  <r_i_glide_rewards>  (289) 
-0.0862591

>  <r_i_glide_evdw>  (289) 
-24.5823

>  <r_i_glide_ecoul>  (289) 
0.027139

>  <r_i_glide_erotb>  (289) 
0

>  <r_i_glide_esite>  (289) 
0

>  <r_i_glide_emodel>  (289) 
-25.3278

>  <r_i_glide_energy>  (289) 
-24.5551

>  <r_i_glide_einternal>  (289) 
0.585968

>  <r_i_glide_intrahb_reward>  (289) 
-0

>  <i_i_glide_confnum>  (289) 
1

>  <i_i_glide_posenum>  (289) 
13

>  <r_i_glide_eff_state_penalty>  (289) 
0

>  <ligand_id>  (289) 
95

>  <original_smiles>  (289) 
C=C1C(=O)OC2C1=CC1C3CC4C(C)C(=O)OC4C(O)C3(C)C3CC4CC5(C)COC46C(CC(O)C6(C)C213)O5

>  <smiles>  (289) 
[H]OC1([H])C2([H])OC(=O)C([H])(C([H])([H])[H])C2([H])C([H])([H])C2([H])C3([H])C([H])=C4C(=C([H])[H])C(=O)OC4([H])C34C([H])(C([H])([H])C3([H])C([H])([H])C5(C([H])([H])[H])OC6([H])C([H])([H])C([H])(O[H])C4(C([H])([H])[H])C63OC5([H])[H])C12C([H])([H])[H]

$$$$
95:0:1
     RDKit          3D

 77 85  0  0  1  0  0  0  0  0999 V2000
    5.5663   -2.8277    6.0537 C   0  0  0  0  0  0  0  0  0  0  0  0
    4.7217   -3.5987    5.3443 C   0  0  0  0  0  0  0  0  0  0  0  0
    3.3431   -3.2379    4.9819 C   0  0  0  0  0  0  0  0  0  0  0  0
    2.7775   -2.1733    5.2317 O   0  0  0  0  0  0  0  0  0  0  0  0
    2.8026   -4.2956    4.2842 O   0  0  0  0  0  0  0  0  0  0  0  0
    3.5742   -5.4754    4.4892 C   0  0  2  0  0  0  0  0  0  0  0  0
    4.8878   -4.9068    4.8077 C   0  0  0  0  0  0  0  0  0  0  0  0
    5.9125   -5.5631    4.2731 C   0  0  0  0  0  0  0  0  0  0  0  0
    5.4398   -6.6721    3.3575 C   0  0  2  0  0  0  0  0  0  0  0  0
    5.7013   -6.4109    1.8379 C   0  0  2  0  0  0  0  0  0  0  0  0
    7.0695   -5.8130    1.3976 C   0  0  0  0  0  0  0  0  0  0  0  0
    6.8890   -4.4449    0.7241 C   0  0  2  0  0  0  0  0  0  0  0  0
    8.0768   -3.5241    0.6752 C   0  0  1  0  0  0  0  0  0  0  0  0
    8.9447   -3.6998   -0.5575 C   0  0  0  0  0  0  0  0  0  0  0  0
    7.3887   -2.1688    0.7288 C   0  0  0  0  0  0  0  0  0  0  0  0
    7.9381   -1.1057    0.4572 O   0  0  0  0  0  0  0  0  0  0  0  0
    6.1296   -2.3095    1.1462 O   0  0  0  0  0  0  0  0  0  0  0  0
    5.8711   -3.6460    1.5168 C   0  0  1  0  0  0  0  0  0  0  0  0
    4.4423   -4.1697    1.3092 C   0  0  1  0  0  0  0  0  0  0  0  0
    3.9218   -3.5619    0.1378 O   0  0  0  0  0  0  0  0  0  0  0  0
    4.4305   -5.7454    1.2233 C   0  0  1  0  0  0  0  0  0  0  0  0
    4.2705   -6.2101   -0.2350 C   0  0  0  0  0  0  0  0  0  0  0  0
    3.3292   -6.4392    2.0630 C   0  0  2  0  0  0  0  0  0  0  0  0
    1.8403   -6.0460    1.9972 C   0  0  0  0  0  0  0  0  0  0  0  0
    1.0351   -6.7413    3.1366 C   0  0  1  0  0  0  0  0  0  0  0  0
   -0.3728   -7.1928    2.6855 C   0  0  0  0  0  0  0  0  0  0  0  0
   -0.7356   -8.5267    3.3698 C   0  0  2  0  0  0  0  0  0  0  0  0
   -2.1705   -8.8491    3.1036 C   0  0  0  0  0  0  0  0  0  0  0  0
   -0.4003   -8.4414    4.8731 C   0  0  0  0  0  0  0  0  0  0  0  0
    0.9991   -8.2046    5.0188 O   0  0  0  0  0  0  0  0  0  0  0  0
    1.7131   -7.9940    3.7891 C   0  0  1  0  0  0  0  0  0  0  0  0
    1.4469   -9.2118    2.8680 C   0  0  1  0  0  0  0  0  0  0  0  0
    2.4427  -10.2519    3.3294 C   0  0  0  0  0  0  0  0  0  0  0  0
    3.7123   -9.3990    3.4643 C   0  0  1  0  0  0  0  0  0  0  0  0
    4.3496   -9.4016    2.2019 O   0  0  0  0  0  0  0  0  0  0  0  0
    3.2541   -8.0060    4.0705 C   0  0  2  0  0  0  0  0  0  0  0  0
    3.5674   -8.1658    5.5933 C   0  0  0  0  0  0  0  0  0  0  0  0
    3.8693   -6.6646    3.4977 C   0  0  2  0  0  0  0  0  0  0  0  0
    0.0769   -9.6000    2.8861 O   0  0  0  0  0  0  0  0  0  0  0  0
    6.5706   -3.1378    6.3067 H   0  0  0  0  0  0  0  0  0  0  0  0
    5.2436   -1.8572    6.4025 H   0  0  0  0  0  0  0  0  0  0  0  0
    3.1774   -5.8209    5.4290 H   0  0  0  0  0  0  0  0  0  0  0  0
    6.9328   -5.2201    4.2709 H   0  0  0  0  0  0  0  0  0  0  0  0
    5.8855   -7.6157    3.6681 H   0  0  0  0  0  0  0  0  0  0  0  0
    5.7214   -7.4026    1.4036 H   0  0  0  0  0  0  0  0  0  0  0  0
    7.7731   -5.7606    2.2343 H   0  0  0  0  0  0  0  0  0  0  0  0
    7.5378   -6.4950    0.6774 H   0  0  0  0  0  0  0  0  0  0  0  0
    6.5481   -4.5687   -0.3009 H   0  0  0  0  0  0  0  0  0  0  0  0
    8.6890   -3.6236    1.5578 H   0  0  0  0  0  0  0  0  0  0  0  0
    9.7748   -2.9903   -0.4874 H   0  0  0  0  0  0  0  0  0  0  0  0
    8.3974   -3.4985   -1.4890 H   0  0  0  0  0  0  0  0  0  0  0  0
    9.3638   -4.7050   -0.6264 H   0  0  0  0  0  0  0  0  0  0  0  0
    6.1217   -3.7250    2.5751 H   0  0  0  0  0  0  0  0  0  0  0  0
    3.8257   -3.8161    2.1287 H   0  0  0  0  0  0  0  0  0  0  0  0
    3.8596   -2.6251    0.2880 H   0  0  0  0  0  0  0  0  0  0  0  0
    3.2987   -5.8654   -0.5675 H   0  0  0  0  0  0  0  0  0  0  0  0
    4.2742   -7.2956   -0.3396 H   0  0  0  0  0  0  0  0  0  0  0  0
    5.0109   -5.8263   -0.9421 H   0  0  0  0  0  0  0  0  0  0  0  0
    3.2754   -7.4140    1.5904 H   0  0  0  0  0  0  0  0  0  0  0  0
    1.7147   -4.9661    2.0692 H   0  0  0  0  0  0  0  0  0  0  0  0
    1.4302   -6.3122    1.0214 H   0  0  0  0  0  0  0  0  0  0  0  0
    0.9031   -6.0090    3.9413 H   0  0  0  0  0  0  0  0  0  0  0  0
   -1.0962   -6.4479    2.9991 H   0  0  0  0  0  0  0  0  0  0  0  0
   -0.4567   -7.2942    1.6007 H   0  0  0  0  0  0  0  0  0  0  0  0
   -2.8199   -8.0862    3.5364 H   0  0  0  0  0  0  0  0  0  0  0  0
   -2.4460   -9.7910    3.5633 H   0  0  0  0  0  0  0  0  0  0  0  0
   -2.3922   -8.9500    2.0417 H   0  0  0  0  0  0  0  0  0  0  0  0
   -0.9569   -7.6346    5.3469 H   0  0  0  0  0  0  0  0  0  0  0  0
   -0.6474   -9.3664    5.3917 H   0  0  0  0  0  0  0  0  0  0  0  0
    1.6703   -8.9678    1.8268 H   0  0  0  0  0  0  0  0  0  0  0  0
    2.1453  -10.6482    4.3037 H   0  0  0  0  0  0  0  0  0  0  0  0
    2.5459  -11.0929    2.6370 H   0  0  0  0  0  0  0  0  0  0  0  0
    4.4172   -9.8976    4.1259 H   0  0  0  0  0  0  0  0  0  0  0  0
    4.3610  -10.2949    1.8681 H   0  0  0  0  0  0  0  0  0  0  0  0
    4.6205   -7.9617    5.7861 H   0  0  0  0  0  0  0  0  0  0  0  0
    3.3627   -9.1739    5.9506 H   0  0  0  0  0  0  0  0  0  0  0  0
    2.9794   -7.5338    6.2575 H   0  0  0  0  0  0  0  0  0  0  0  0
  1  2  2  0
  1 40  1  0
  1 41  1  0
  2  7  1  0
  2  3  1  0
  3  4  2  0
  3  5  1  0
  5  6  1  0
  6 38  1  0
  6  7  1  0
  6 42  1  1
  7  8  2  0
  8  9  1  0
  8 43  1  0
  9 38  1  0
  9 10  1  0
  9 44  1  1
 10 21  1  0
 10 11  1  0
 10 45  1  6
 11 12  1  0
 11 46  1  0
 11 47  1  0
 12 18  1  0
 12 13  1  0
 12 48  1  6
 13 14  1  0
 13 15  1  0
 13 49  1  1
 14 50  1  0
 14 51  1  0
 14 52  1  0
 15 16  2  0
 15 17  1  0
 17 18  1  0
 18 19  1  0
 18 53  1  1
 19 20  1  0
 19 21  1  0
 19 54  1  1
 20 55  1  0
 21 22  1  6
 21 23  1  0
 22 56  1  0
 22 57  1  0
 22 58  1  0
 23 38  1  0
 23 24  1  0
 23 59  1  6
 24 25  1  0
 24 60  1  0
 24 61  1  0
 25 31  1  0
 25 26  1  0
 25 62  1  1
 26 27  1  0
 26 63  1  0
 26 64  1  0
 27 39  1  0
 27 28  1  1
 27 29  1  0
 28 65  1  0
 28 66  1  0
 28 67  1  0
 29 30  1  0
 29 68  1  0
 29 69  1  0
 31 30  1  1
 31 36  1  0
 31 32  1  0
 32 33  1  0
 32 39  1  0
 32 70  1  6
 33 34  1  0
 33 71  1  0
 33 72  1  0
 34 35  1  0
 34 36  1  0
 34 73  1  1
 35 74  1  0
 36 37  1  1
 38 36  1  1
 37 75  1  0
 37 76  1  0
 37 77  1  0
M  END
>  <i_m_ct_stereo_status>  (290) 
1

>  <s_m_source_file>  (290) 
/var/tmp/pbs.5076255.sched01/tmpycp4azd_/132pnz8hy5b.sdf

>  <i_m_source_file_index>  (290) 
13

>  <i_lp_mmshare_version>  (290) 
48012

>  <i_f3d_flags>  (290) 
0

>  <s_epik_input>  (290) 
TzFbQ0gyXVtDQF0oW0NIMl0yKShbQ0gzXSlPW0NAQEhdM1tDSDJdW0NAQEhdKFtPSF0pW0NAQF00KFtDSDNdKVtDQEBdNShbQ0BIXTZbQ0gyXVtDQEBIXTJbQ0BAXTEzNClbQ0BIXTdDKEMoPVtDSDJdKUMoPU8pTzcpPVtDSF1bQ0BASF01W0NASF04W0NAXTYoW0NIM10pW0NASF0oW09IXSlbQ0BIXTlbQ0BIXShbQ0gyXTgpW0NAQEhdKFtDSDNdKUMoPU8pTzk=

>  <s_epik_cmdline>  (290) 
J2VwaWtfcHl0aG9uJywgJy1waHQnLCAnMi4wJywgJy1waCcsICc3LjAnLCAnLXRuJywgJzgnLCAnLW1hJywgJzIwMCcsICctaW1hZScsICc8aW5maWxlLm1hZT4nLCAnLW9tYWUnLCAnPG91dGZpbGUubWFlPic=

>  <r_lp_tautomer_probability>  (290) 
1

>  <r_epik_Ionization_Penalty>  (290) 
1.09975e-07

>  <r_epik_Ionization_Penalty_Charging>  (290) 
0

>  <r_epik_Ionization_Penalty_Neutral>  (290) 
1.09975e-07

>  <r_epik_State_Penalty>  (290) 
-0

>  <r_epik_Charging_Adjusted_Penalty>  (290) 
0

>  <i_epik_Tot_Q>  (290) 
0

>  <i_epik_Tot_abs_Q>  (290) 
0

>  <s_epik_Chemistry_Notes>  (290) 
This compound has an ester and may undergo hydrolysis at high or low pH.

>  <s_lp_Force_Field>  (290) 
OPLS3e

>  <r_lp_Energy>  (290) 
110.267

>  <b_lp_Chiralities_Consistent>  (290) 
1

>  <s_lp_Variant>  (290) 
95:0-1

>  <s_i_glide_gridfile>  (290) 
pfpi4k_grid

>  <i_i_glide_lignum>  (290) 
13

>  <i_i_glide_rotatable_bonds>  (290) 
2

>  <r_i_docking_score>  (290) 
-1.91946

>  <r_i_glide_ligand_efficiency>  (290) 
-0.0492168

>  <r_i_glide_ligand_efficiency_sa>  (290) 
-0.166905

>  <r_i_glide_ligand_efficiency_ln>  (290) 
-0.411586

>  <r_i_glide_gscore>  (290) 
-1.91946

>  <r_i_glide_lipo>  (290) 
-0.655077

>  <r_i_glide_hbond>  (290) 
-0.039033

>  <r_i_glide_metal>  (290) 
-0

>  <r_i_glide_rewards>  (290) 
-0.0862934

>  <r_i_glide_evdw>  (290) 
-23.7037

>  <r_i_glide_ecoul>  (290) 
0.307536

>  <r_i_glide_erotb>  (290) 
0

>  <r_i_glide_esite>  (290) 
0

>  <r_i_glide_emodel>  (290) 
-24.0336

>  <r_i_glide_energy>  (290) 
-23.3961

>  <r_i_glide_einternal>  (290) 
0.839243

>  <r_i_glide_intrahb_reward>  (290) 
-0

>  <i_i_glide_confnum>  (290) 
2

>  <i_i_glide_posenum>  (290) 
1

>  <r_i_glide_eff_state_penalty>  (290) 
0

>  <ligand_id>  (290) 
95

>  <original_smiles>  (290) 
C=C1C(=O)OC2C1=CC1C3CC4C(C)C(=O)OC4C(O)C3(C)C3CC4CC5(C)COC46C(CC(O)C6(C)C213)O5

>  <smiles>  (290) 
[H]OC1([H])C2([H])OC(=O)C([H])(C([H])([H])[H])C2([H])C([H])([H])C2([H])C3([H])C([H])=C4C(=C([H])[H])C(=O)OC4([H])C34C([H])(C([H])([H])C3([H])C([H])([H])C5(C([H])([H])[H])OC6([H])C([H])([H])C([H])(O[H])C4(C([H])([H])[H])C63OC5([H])[H])C12C([H])([H])[H]

$$$$
95:0:2
     RDKit          3D

 77 85  0  0  1  0  0  0  0  0999 V2000
    5.0503   -2.1696    5.7016 C   0  0  0  0  0  0  0  0  0  0  0  0
    4.3174   -3.0696    5.0035 C   0  0  0  0  0  0  0  0  0  0  0  0
    2.9702   -2.8172    4.4572 C   0  0  0  0  0  0  0  0  0  0  0  0
    2.3798   -1.7504    4.4675 O   0  0  0  0  0  0  0  0  0  0  0  0
    2.5384   -4.0030    3.8976 O   0  0  0  0  0  0  0  0  0  0  0  0
    3.3100   -5.1001    4.3616 C   0  0  2  0  0  0  0  0  0  0  0  0
    4.5551   -4.4401    4.7596 C   0  0  0  0  0  0  0  0  0  0  0  0
    5.6516   -5.0783    4.3975 C   0  0  0  0  0  0  0  0  0  0  0  0
    5.3267   -6.3583    3.6619 C   0  0  2  0  0  0  0  0  0  0  0  0
    5.7757   -6.2815    2.1528 C   0  0  2  0  0  0  0  0  0  0  0  0
    7.1549   -5.7008    1.7650 C   0  0  0  0  0  0  0  0  0  0  0  0
    6.9904   -4.4874    0.8414 C   0  0  2  0  0  0  0  0  0  0  0  0
    8.1367   -3.5112    0.7571 C   0  0  1  0  0  0  0  0  0  0  0  0
    9.0905   -3.8182   -0.3618 C   0  0  0  0  0  0  0  0  0  0  0  0
    7.4084   -2.1913    0.5562 C   0  0  0  0  0  0  0  0  0  0  0  0
    8.0050   -1.1868    0.2777 O   0  0  0  0  0  0  0  0  0  0  0  0
    6.1452   -2.3552    0.8521 O   0  0  0  0  0  0  0  0  0  0  0  0
    5.8760   -3.6081    1.3933 C   0  0  1  0  0  0  0  0  0  0  0  0
    4.4941   -4.2313    1.1234 C   0  0  1  0  0  0  0  0  0  0  0  0
    4.0722   -3.8595   -0.1844 O   0  0  0  0  0  0  0  0  0  0  0  0
    4.5609   -5.7981    1.2968 C   0  0  1  0  0  0  0  0  0  0  0  0
    4.5948   -6.4841   -0.0696 C   0  0  0  0  0  0  0  0  0  0  0  0
    3.3951   -6.4307    2.0993 C   0  0  2  0  0  0  0  0  0  0  0  0
    1.9223   -6.1168    1.8041 C   0  0  0  0  0  0  0  0  0  0  0  0
    0.9993   -6.6641    2.9368 C   0  0  1  0  0  0  0  0  0  0  0  0
   -0.3173   -7.2739    2.3809 C   0  0  0  0  0  0  0  0  0  0  0  0
   -0.7363   -8.5079    3.2184 C   0  0  2  0  0  0  0  0  0  0  0  0
   -2.1249   -8.9245    2.8404 C   0  0  0  0  0  0  0  0  0  0  0  0
   -0.5849   -8.1739    4.7167 C   0  0  0  0  0  0  0  0  0  0  0  0
    0.7766   -7.8433    4.9875 O   0  0  0  0  0  0  0  0  0  0  0  0
    1.6216   -7.7857    3.8402 C   0  0  1  0  0  0  0  0  0  0  0  0
    1.5288   -9.1248    3.0833 C   0  0  1  0  0  0  0  0  0  0  0  0
    2.5010  -10.0290    3.8035 C   0  0  0  0  0  0  0  0  0  0  0  0
    3.7078   -9.0994    3.9584 C   0  0  1  0  0  0  0  0  0  0  0  0
    4.5016   -9.2472    2.8058 O   0  0  0  0  0  0  0  0  0  0  0  0
    3.1272   -7.6649    4.2883 C   0  0  2  0  0  0  0  0  0  0  0  0
    3.2676   -7.5957    5.8446 C   0  0  0  0  0  0  0  0  0  0  0  0
    3.7573   -6.4046    3.5991 C   0  0  2  0  0  0  0  0  0  0  0  0
    0.1802   -9.5908    3.0111 O   0  0  0  0  0  0  0  0  0  0  0  0
    6.0110   -2.3961    6.1299 H   0  0  0  0  0  0  0  0  0  0  0  0
    4.6628   -1.1686    5.8348 H   0  0  0  0  0  0  0  0  0  0  0  0
    2.8220   -5.3168    5.3029 H   0  0  0  0  0  0  0  0  0  0  0  0
    6.6489   -4.6665    4.4347 H   0  0  0  0  0  0  0  0  0  0  0  0
    5.7890   -7.1979    4.1532 H   0  0  0  0  0  0  0  0  0  0  0  0
    5.8869   -7.3372    1.8614 H   0  0  0  0  0  0  0  0  0  0  0  0
    7.7932   -5.4451    2.6252 H   0  0  0  0  0  0  0  0  0  0  0  0
    7.7152   -6.4712    1.2262 H   0  0  0  0  0  0  0  0  0  0  0  0
    6.7846   -4.7833   -0.1765 H   0  0  0  0  0  0  0  0  0  0  0  0
    8.7127   -3.4693    1.6828 H   0  0  0  0  0  0  0  0  0  0  0  0
    9.9111   -3.0825   -0.2713 H   0  0  0  0  0  0  0  0  0  0  0  0
    8.6708   -3.7488   -1.3782 H   0  0  0  0  0  0  0  0  0  0  0  0
    9.4543   -4.8325   -0.1802 H   0  0  0  0  0  0  0  0  0  0  0  0
    6.0331   -3.5141    2.4616 H   0  0  0  0  0  0  0  0  0  0  0  0
    3.7913   -3.7686    1.8238 H   0  0  0  0  0  0  0  0  0  0  0  0
    4.5891   -4.3289   -0.8219 H   0  0  0  0  0  0  0  0  0  0  0  0
    3.6668   -6.2540   -0.5903 H   0  0  0  0  0  0  0  0  0  0  0  0
    4.6508   -7.5730   -0.0156 H   0  0  0  0  0  0  0  0  0  0  0  0
    5.4094   -6.1393   -0.6963 H   0  0  0  0  0  0  0  0  0  0  0  0
    3.4359   -7.4588    1.7629 H   0  0  0  0  0  0  0  0  0  0  0  0
    1.7841   -5.0389    1.6947 H   0  0  0  0  0  0  0  0  0  0  0  0
    1.6170   -6.5399    0.8541 H   0  0  0  0  0  0  0  0  0  0  0  0
    0.7388   -5.8433    3.5803 H   0  0  0  0  0  0  0  0  0  0  0  0
   -1.1194   -6.5437    2.4679 H   0  0  0  0  0  0  0  0  0  0  0  0
   -0.2313   -7.5218    1.3275 H   0  0  0  0  0  0  0  0  0  0  0  0
   -2.8446   -8.1219    3.1039 H   0  0  0  0  0  0  0  0  0  0  0  0
   -2.4218   -9.8263    3.3728 H   0  0  0  0  0  0  0  0  0  0  0  0
   -2.2108   -9.1515    1.7812 H   0  0  0  0  0  0  0  0  0  0  0  0
   -1.2077   -7.3302    5.0114 H   0  0  0  0  0  0  0  0  0  0  0  0
   -0.8592   -9.0191    5.3473 H   0  0  0  0  0  0  0  0  0  0  0  0
    1.8597   -9.0306    2.0580 H   0  0  0  0  0  0  0  0  0  0  0  0
    2.0861  -10.2979    4.7778 H   0  0  0  0  0  0  0  0  0  0  0  0
    2.7161  -10.9508    3.2527 H   0  0  0  0  0  0  0  0  0  0  0  0
    4.3372   -9.4604    4.7711 H   0  0  0  0  0  0  0  0  0  0  0  0
    5.3208   -8.8140    2.9672 H   0  0  0  0  0  0  0  0  0  0  0  0
    4.2871   -7.3143    6.1048 H   0  0  0  0  0  0  0  0  0  0  0  0
    3.0492   -8.5554    6.3162 H   0  0  0  0  0  0  0  0  0  0  0  0
    2.5837   -6.9017    6.3370 H   0  0  0  0  0  0  0  0  0  0  0  0
  1  2  2  0
  1 40  1  0
  1 41  1  0
  2  7  1  0
  2  3  1  0
  3  4  2  0
  3  5  1  0
  5  6  1  0
  6 38  1  0
  6  7  1  0
  6 42  1  1
  7  8  2  0
  8  9  1  0
  8 43  1  0
  9 38  1  0
  9 10  1  0
  9 44  1  1
 10 21  1  0
 10 11  1  0
 10 45  1  6
 11 12  1  0
 11 46  1  0
 11 47  1  0
 12 18  1  0
 12 13  1  0
 12 48  1  6
 13 14  1  0
 13 15  1  0
 13 49  1  1
 14 50  1  0
 14 51  1  0
 14 52  1  0
 15 16  2  0
 15 17  1  0
 17 18  1  0
 18 19  1  0
 18 53  1  1
 19 20  1  0
 19 21  1  0
 19 54  1  1
 20 55  1  0
 21 22  1  6
 21 23  1  0
 22 56  1  0
 22 57  1  0
 22 58  1  0
 23 38  1  0
 23 24  1  0
 23 59  1  6
 24 25  1  0
 24 60  1  0
 24 61  1  0
 25 31  1  0
 25 26  1  0
 25 62  1  1
 26 27  1  0
 26 63  1  0
 26 64  1  0
 27 39  1  0
 27 28  1  1
 27 29  1  0
 28 65  1  0
 28 66  1  0
 28 67  1  0
 29 30  1  0
 29 68  1  0
 29 69  1  0
 31 30  1  1
 31 36  1  0
 31 32  1  0
 32 33  1  0
 32 39  1  0
 32 70  1  6
 33 34  1  0
 33 71  1  0
 33 72  1  0
 34 35  1  0
 34 36  1  0
 34 73  1  1
 35 74  1  0
 36 37  1  1
 38 36  1  1
 37 75  1  0
 37 76  1  0
 37 77  1  0
M  END
>  <i_m_ct_stereo_status>  (291) 
1

>  <s_m_source_file>  (291) 
/var/tmp/pbs.5076255.sched01/tmpycp4azd_/132pnz8hy5b.sdf

>  <i_m_source_file_index>  (291) 
13

>  <i_lp_mmshare_version>  (291) 
48012

>  <i_f3d_flags>  (291) 
0

>  <s_epik_input>  (291) 
TzFbQ0gyXVtDQF0oW0NIMl0yKShbQ0gzXSlPW0NAQEhdM1tDSDJdW0NAQEhdKFtPSF0pW0NAQF00KFtDSDNdKVtDQEBdNShbQ0BIXTZbQ0gyXVtDQEBIXTJbQ0BAXTEzNClbQ0BIXTdDKEMoPVtDSDJdKUMoPU8pTzcpPVtDSF1bQ0BASF01W0NASF04W0NAXTYoW0NIM10pW0NASF0oW09IXSlbQ0BIXTlbQ0BIXShbQ0gyXTgpW0NAQEhdKFtDSDNdKUMoPU8pTzk=

>  <s_epik_cmdline>  (291) 
J2VwaWtfcHl0aG9uJywgJy1waHQnLCAnMi4wJywgJy1waCcsICc3LjAnLCAnLXRuJywgJzgnLCAnLW1hJywgJzIwMCcsICctaW1hZScsICc8aW5maWxlLm1hZT4nLCAnLW9tYWUnLCAnPG91dGZpbGUubWFlPic=

>  <r_lp_tautomer_probability>  (291) 
1

>  <r_epik_Ionization_Penalty>  (291) 
1.09975e-07

>  <r_epik_Ionization_Penalty_Charging>  (291) 
0

>  <r_epik_Ionization_Penalty_Neutral>  (291) 
1.09975e-07

>  <r_epik_State_Penalty>  (291) 
-0

>  <r_epik_Charging_Adjusted_Penalty>  (291) 
0

>  <i_epik_Tot_Q>  (291) 
0

>  <i_epik_Tot_abs_Q>  (291) 
0

>  <s_epik_Chemistry_Notes>  (291) 
This compound has an ester and may undergo hydrolysis at high or low pH.

>  <s_lp_Force_Field>  (291) 
OPLS3e

>  <r_lp_Energy>  (291) 
110.267

>  <b_lp_Chiralities_Consistent>  (291) 
1

>  <s_lp_Variant>  (291) 
95:0-1

>  <s_i_glide_gridfile>  (291) 
pfpi4k_grid

>  <i_i_glide_lignum>  (291) 
13

>  <i_i_glide_rotatable_bonds>  (291) 
2

>  <r_i_docking_score>  (291) 
-1.82797

>  <r_i_glide_ligand_efficiency>  (291) 
-0.0468711

>  <r_i_glide_ligand_efficiency_sa>  (291) 
-0.15895

>  <r_i_glide_ligand_efficiency_ln>  (291) 
-0.39197

>  <r_i_glide_gscore>  (291) 
-1.82797

>  <r_i_glide_lipo>  (291) 
-0.6303

>  <r_i_glide_hbond>  (291) 
-0.0553384

>  <r_i_glide_metal>  (291) 
-0

>  <r_i_glide_rewards>  (291) 
-0.122124

>  <r_i_glide_evdw>  (291) 
-25.7357

>  <r_i_glide_ecoul>  (291) 
1.77714

>  <r_i_glide_erotb>  (291) 
0

>  <r_i_glide_esite>  (291) 
0

>  <r_i_glide_emodel>  (291) 
-24.6298

>  <r_i_glide_energy>  (291) 
-23.9585

>  <r_i_glide_einternal>  (291) 
0.616923

>  <r_i_glide_intrahb_reward>  (291) 
-0

>  <i_i_glide_confnum>  (291) 
1

>  <i_i_glide_posenum>  (291) 
16

>  <r_i_glide_eff_state_penalty>  (291) 
0

>  <ligand_id>  (291) 
95

>  <original_smiles>  (291) 
C=C1C(=O)OC2C1=CC1C3CC4C(C)C(=O)OC4C(O)C3(C)C3CC4CC5(C)COC46C(CC(O)C6(C)C213)O5

>  <smiles>  (291) 
[H]OC1([H])C2([H])OC(=O)C([H])(C([H])([H])[H])C2([H])C([H])([H])C2([H])C3([H])C([H])=C4C(=C([H])[H])C(=O)OC4([H])C34C([H])(C([H])([H])C3([H])C([H])([H])C5(C([H])([H])[H])OC6([H])C([H])([H])C([H])(O[H])C4(C([H])([H])[H])C63OC5([H])[H])C12C([H])([H])[H]

$$$$
96:0:0
     RDKit          3D

 70 73  0  0  1  0  0  0  0  0999 V2000
    1.7057  -10.2241    6.1214 C   0  0  0  0  0  0  0  0  0  0  0  0
    0.4460   -9.9674    5.4949 O   0  0  0  0  0  0  0  0  0  0  0  0
   -0.1890   -8.7913    5.7204 C   0  0  0  0  0  0  0  0  0  0  0  0
    0.1973   -7.8900    6.5034 O   0  0  0  0  0  0  0  0  0  0  0  0
   -1.3711   -8.5514    4.7667 C   0  0  0  0  0  0  0  0  0  0  0  0
   -1.0971   -8.9633    3.2991 C   0  0  0  0  0  0  0  0  0  0  0  0
    0.3260   -8.7693    2.6708 C   0  0  2  0  0  0  0  0  0  0  0  0
    1.0773  -10.1368    2.6277 C   0  0  0  0  0  0  0  0  0  0  0  0
    1.1286   -7.5919    3.3666 C   0  0  2  0  0  0  0  0  0  0  0  0
    0.3526   -6.2401    3.2873 C   0  0  0  0  0  0  0  0  0  0  0  0
    1.3850   -5.1381    3.4859 C   0  0  0  0  0  0  0  0  0  0  0  0
    2.7529   -5.8468    3.4945 C   0  0  2  0  0  0  0  0  0  0  0  0
    3.9843   -5.0659    2.9766 C   0  0  2  0  0  0  0  0  0  0  0  0
    4.0422   -3.6236    3.5502 C   0  0  1  0  0  0  0  0  0  0  0  0
    5.3475   -3.3693    4.0306 O   0  0  0  0  0  0  0  0  0  0  0  0
    3.6648   -2.5368    2.5353 C   0  0  0  0  0  0  0  0  0  0  0  0
    4.4482   -2.7342    1.2556 C   0  0  0  0  0  0  0  0  0  0  0  0
    5.4340   -1.8771    0.9034 C   0  0  0  0  0  0  0  0  0  0  0  0
    6.3794   -2.0970   -0.2536 C   0  0  1  0  0  0  0  0  0  0  0  0
    7.6758   -1.6562    0.0836 O   0  0  0  0  0  0  0  0  0  0  0  0
    6.4254   -3.5754   -0.6499 C   0  0  0  0  0  0  0  0  0  0  0  0
    5.0038   -4.1257   -0.8038 C   0  0  0  0  0  0  0  0  0  0  0  0
    4.1195   -4.0240    0.4848 C   0  0  2  0  0  0  0  0  0  0  0  0
    2.6560   -3.9745   -0.0159 C   0  0  0  0  0  0  0  0  0  0  0  0
    4.3751   -5.2370    1.4504 C   0  0  2  0  0  0  0  0  0  0  0  0
    3.9924   -6.6239    0.8417 C   0  0  1  0  0  0  0  0  0  0  0  0
    5.0244   -7.5745    1.0423 O   0  0  0  0  0  0  0  0  0  0  0  0
    2.6549   -7.1785    1.3439 C   0  0  0  0  0  0  0  0  0  0  0  0
    2.5682   -7.2535    2.8871 C   0  0  2  0  0  0  0  0  0  0  0  0
    3.5923   -8.2467    3.5249 C   0  0  0  0  0  0  0  0  0  0  0  0
    2.0563  -11.1724    5.7131 H   0  0  0  0  0  0  0  0  0  0  0  0
    1.6442  -10.2849    7.2259 H   0  0  0  0  0  0  0  0  0  0  0  0
    2.4221   -9.4531    5.8409 H   0  0  0  0  0  0  0  0  0  0  0  0
   -2.2569   -9.0450    5.1799 H   0  0  0  0  0  0  0  0  0  0  0  0
   -1.6622   -7.5031    4.8204 H   0  0  0  0  0  0  0  0  0  0  0  0
   -1.4009  -10.0009    3.1872 H   0  0  0  0  0  0  0  0  0  0  0  0
   -1.8240   -8.4436    2.6852 H   0  0  0  0  0  0  0  0  0  0  0  0
    0.1270   -8.5072    1.6261 H   0  0  0  0  0  0  0  0  0  0  0  0
    1.3865  -10.4364    3.6256 H   0  0  0  0  0  0  0  0  0  0  0  0
    1.9319  -10.0885    1.9290 H   0  0  0  0  0  0  0  0  0  0  0  0
    0.4172  -10.9110    2.2008 H   0  0  0  0  0  0  0  0  0  0  0  0
    1.3100   -7.7979    4.3582 H   0  0  0  0  0  0  0  0  0  0  0  0
   -0.1849   -6.1110    2.3350 H   0  0  0  0  0  0  0  0  0  0  0  0
   -0.3781   -6.1695    4.0899 H   0  0  0  0  0  0  0  0  0  0  0  0
    1.2870   -4.4051    2.6988 H   0  0  0  0  0  0  0  0  0  0  0  0
    1.2008   -4.6246    4.4380 H   0  0  0  0  0  0  0  0  0  0  0  0
    2.9346   -6.0174    4.5586 H   0  0  0  0  0  0  0  0  0  0  0  0
    4.7837   -5.6050    3.4899 H   0  0  0  0  0  0  0  0  0  0  0  0
    3.3853   -3.5303    4.4216 H   0  0  0  0  0  0  0  0  0  0  0  0
    5.5310   -3.9846    4.7248 H   0  0  0  0  0  0  0  0  0  0  0  0
    2.6005   -2.5637    2.3203 H   0  0  0  0  0  0  0  0  0  0  0  0
    3.8627   -1.5497    2.9508 H   0  0  0  0  0  0  0  0  0  0  0  0
    5.6152   -1.0024    1.5106 H   0  0  0  0  0  0  0  0  0  0  0  0
    6.0316   -1.4901   -1.0897 H   0  0  0  0  0  0  0  0  0  0  0  0
    7.9668   -2.1149    0.8687 H   0  0  0  0  0  0  0  0  0  0  0  0
    6.9753   -3.6778   -1.5854 H   0  0  0  0  0  0  0  0  0  0  0  0
    6.9703   -4.1566    0.0955 H   0  0  0  0  0  0  0  0  0  0  0  0
    4.5346   -3.5573   -1.6071 H   0  0  0  0  0  0  0  0  0  0  0  0
    5.0596   -5.1407   -1.1871 H   0  0  0  0  0  0  0  0  0  0  0  0
    2.4294   -4.7861   -0.7073 H   0  0  0  0  0  0  0  0  0  0  0  0
    2.4579   -3.0439   -0.5488 H   0  0  0  0  0  0  0  0  0  0  0  0
    1.9378   -4.0351    0.7877 H   0  0  0  0  0  0  0  0  0  0  0  0
    5.4640   -5.2601    1.5014 H   0  0  0  0  0  0  0  0  0  0  0  0
    3.8633   -6.5637   -0.2366 H   0  0  0  0  0  0  0  0  0  0  0  0
    4.7130   -8.4163    0.7436 H   0  0  0  0  0  0  0  0  0  0  0  0
    1.8442   -6.5389    0.9902 H   0  0  0  0  0  0  0  0  0  0  0  0
    2.4667   -8.1730    0.9326 H   0  0  0  0  0  0  0  0  0  0  0  0
    4.6067   -7.8324    3.5304 H   0  0  0  0  0  0  0  0  0  0  0  0
    3.6417   -9.2003    2.9872 H   0  0  0  0  0  0  0  0  0  0  0  0
    3.3485   -8.4522    4.5695 H   0  0  0  0  0  0  0  0  0  0  0  0
  1  2  1  0
  1 31  1  0
  1 32  1  0
  1 33  1  0
  2  3  1  0
  3  4  2  0
  3  5  1  0
  5  6  1  0
  5 34  1  0
  5 35  1  0
  6  7  1  0
  6 36  1  0
  6 37  1  0
  7  8  1  0
  7  9  1  0
  7 38  1  6
  8 39  1  0
  8 40  1  0
  8 41  1  0
  9 29  1  0
  9 10  1  0
  9 42  1  1
 10 11  1  0
 10 43  1  0
 10 44  1  0
 11 12  1  0
 11 45  1  0
 11 46  1  0
 12 29  1  0
 12 13  1  0
 12 47  1  1
 13 25  1  0
 13 14  1  0
 13 48  1  1
 14 15  1  0
 14 16  1  0
 14 49  1  1
 15 50  1  0
 16 17  1  0
 16 51  1  0
 16 52  1  0
 17 23  1  0
 17 18  2  0
 18 19  1  0
 18 53  1  0
 19 20  1  0
 19 21  1  0
 19 54  1  6
 20 55  1  0
 21 22  1  0
 21 56  1  0
 21 57  1  0
 22 23  1  0
 22 58  1  0
 22 59  1  0
 23 24  1  6
 23 25  1  0
 24 60  1  0
 24 61  1  0
 24 62  1  0
 25 26  1  0
 25 63  1  1
 26 27  1  0
 26 28  1  0
 26 64  1  6
 27 65  1  0
 28 29  1  0
 28 66  1  0
 28 67  1  0
 29 30  1  1
 30 68  1  0
 30 69  1  0
 30 70  1  0
M  END
>  <i_m_ct_stereo_status>  (292) 
1

>  <s_m_source_file>  (292) 
/var/tmp/pbs.5076255.sched01/tmpycp4azd_/132pnz8hy5b.sdf

>  <i_m_source_file_index>  (292) 
14

>  <i_lp_mmshare_version>  (292) 
48012

>  <i_f3d_flags>  (292) 
0

>  <s_epik_input>  (292) 
W0NIM11PQyg9TylbQ0gyXVtDSDJdW0NASF0oW0NIM10pW0NASF0oW0NIMl1bQ0gyXTEpW0NAQF0oW0NIM10pKFtDSDJdW0NAQEhdKFtDQEhdMjMpW09IXSlbQ0BIXTFbQ0BASF0yW0NAQEhdKFtPSF0pW0NIMl1DKFtDQF0zNFtDSDNdKT1bQ0hdW0NAQEhdKFtPSF0pW0NIMl1bQ0gyXTQ=

>  <s_epik_cmdline>  (292) 
J2VwaWtfcHl0aG9uJywgJy1waHQnLCAnMi4wJywgJy1waCcsICc3LjAnLCAnLXRuJywgJzgnLCAnLW1hJywgJzIwMCcsICctaW1hZScsICc8aW5maWxlLm1hZT4nLCAnLW9tYWUnLCAnPG91dGZpbGUubWFlPic=

>  <r_lp_tautomer_probability>  (292) 
1

>  <r_epik_Ionization_Penalty>  (292) 
2.15681e-06

>  <r_epik_Ionization_Penalty_Charging>  (292) 
0

>  <r_epik_Ionization_Penalty_Neutral>  (292) 
2.15681e-06

>  <r_epik_State_Penalty>  (292) 
-0

>  <r_epik_Charging_Adjusted_Penalty>  (292) 
0

>  <i_epik_Tot_Q>  (292) 
0

>  <i_epik_Tot_abs_Q>  (292) 
0

>  <s_epik_Chemistry_Notes>  (292) 
This compound has an ester and may undergo hydrolysis at high or low pH.

>  <s_lp_Force_Field>  (292) 
OPLS3e

>  <r_lp_Energy>  (292) 
50.384

>  <b_lp_Chiralities_Consistent>  (292) 
1

>  <s_lp_Variant>  (292) 
96:0-1

>  <s_i_glide_gridfile>  (292) 
pfpi4k_grid

>  <i_i_glide_lignum>  (292) 
14

>  <i_i_glide_rotatable_bonds>  (292) 
8

>  <r_i_docking_score>  (292) 
-2.30339

>  <r_i_glide_ligand_efficiency>  (292) 
-0.0767797

>  <r_i_glide_ligand_efficiency_sa>  (292) 
-0.238572

>  <r_i_glide_ligand_efficiency_ln>  (292) 
-0.523355

>  <r_i_glide_gscore>  (292) 
-2.30339

>  <r_i_glide_lipo>  (292) 
-0.536826

>  <r_i_glide_hbond>  (292) 
-0.105368

>  <r_i_glide_metal>  (292) 
-0

>  <r_i_glide_rewards>  (292) 
-0.541486

>  <r_i_glide_evdw>  (292) 
-22.1428

>  <r_i_glide_ecoul>  (292) 
-3.19646

>  <r_i_glide_erotb>  (292) 
0.447596

>  <r_i_glide_esite>  (292) 
-0.0648113

>  <r_i_glide_emodel>  (292) 
-21.9254

>  <r_i_glide_energy>  (292) 
-25.3392

>  <r_i_glide_einternal>  (292) 
6.72463

>  <r_i_glide_intrahb_reward>  (292) 
-0

>  <i_i_glide_confnum>  (292) 
2

>  <i_i_glide_posenum>  (292) 
26

>  <r_i_glide_eff_state_penalty>  (292) 
0

>  <ligand_id>  (292) 
96

>  <original_smiles>  (292) 
COC(=O)CCC(C)C1CCC2C3C(O)CC4=CC(O)CCC4(C)C3C(O)CC12C

>  <smiles>  (292) 
[H]OC1([H])C([H])=C2C([H])([H])C([H])(O[H])C3([H])C([H])(C([H])(O[H])C([H])([H])C4(C([H])([H])[H])C([H])(C([H])(C([H])([H])[H])C([H])([H])C([H])([H])C(=O)OC([H])([H])[H])C([H])([H])C([H])([H])C34[H])C2(C([H])([H])[H])C([H])([H])C1([H])[H]

$$$$
96:0:1
     RDKit          3D

 70 73  0  0  1  0  0  0  0  0999 V2000
   -0.5714   -9.2271    2.9502 C   0  0  0  0  0  0  0  0  0  0  0  0
    0.1781   -9.3536    4.1421 O   0  0  0  0  0  0  0  0  0  0  0  0
    0.9987  -10.4041    4.2978 C   0  0  0  0  0  0  0  0  0  0  0  0
    1.1895  -11.2910    3.4641 O   0  0  0  0  0  0  0  0  0  0  0  0
    1.7299  -10.3881    5.6413 C   0  0  0  0  0  0  0  0  0  0  0  0
    2.3839   -9.0287    5.9784 C   0  0  0  0  0  0  0  0  0  0  0  0
    3.3869   -8.4861    4.9177 C   0  0  2  0  0  0  0  0  0  0  0  0
    4.7074   -9.2693    5.0324 C   0  0  0  0  0  0  0  0  0  0  0  0
    3.5479   -6.9376    5.0085 C   0  0  2  0  0  0  0  0  0  0  0  0
    2.2087   -6.1938    4.8375 C   0  0  0  0  0  0  0  0  0  0  0  0
    2.5261   -4.7921    4.3138 C   0  0  0  0  0  0  0  0  0  0  0  0
    4.0379   -4.7657    4.0465 C   0  0  2  0  0  0  0  0  0  0  0  0
    4.5727   -3.8271    2.9188 C   0  0  2  0  0  0  0  0  0  0  0  0
    3.9681   -2.3950    3.0059 C   0  0  1  0  0  0  0  0  0  0  0  0
    5.0006   -1.4287    2.9109 O   0  0  0  0  0  0  0  0  0  0  0  0
    2.9140   -2.0925    1.9308 C   0  0  0  0  0  0  0  0  0  0  0  0
    3.4674   -2.4490    0.5659 C   0  0  0  0  0  0  0  0  0  0  0  0
    3.7884   -1.4792   -0.3152 C   0  0  0  0  0  0  0  0  0  0  0  0
    4.4903   -1.7131   -1.6324 C   0  0  1  0  0  0  0  0  0  0  0  0
    5.4003   -0.6666   -1.8714 O   0  0  0  0  0  0  0  0  0  0  0  0
    5.2458   -3.0464   -1.6003 C   0  0  0  0  0  0  0  0  0  0  0  0
    4.3336   -4.1654   -1.0883 C   0  0  0  0  0  0  0  0  0  0  0  0
    3.7473   -3.9426    0.3488 C   0  0  2  0  0  0  0  0  0  0  0  0
    2.4212   -4.7343    0.3739 C   0  0  0  0  0  0  0  0  0  0  0  0
    4.7460   -4.4172    1.4648 C   0  0  2  0  0  0  0  0  0  0  0  0
    5.0371   -5.9462    1.4544 C   0  0  1  0  0  0  0  0  0  0  0  0
    6.4298   -6.1761    1.5153 O   0  0  0  0  0  0  0  0  0  0  0  0
    4.3129   -6.7537    2.5461 C   0  0  0  0  0  0  0  0  0  0  0  0
    4.5092   -6.2361    3.9946 C   0  0  2  0  0  0  0  0  0  0  0  0
    5.9820   -6.3402    4.4712 C   0  0  0  0  0  0  0  0  0  0  0  0
   -1.1645   -8.3155    2.9923 H   0  0  0  0  0  0  0  0  0  0  0  0
   -1.2457  -10.0734    2.8218 H   0  0  0  0  0  0  0  0  0  0  0  0
    0.0896   -9.1662    2.0853 H   0  0  0  0  0  0  0  0  0  0  0  0
    0.9965  -10.6344    6.4073 H   0  0  0  0  0  0  0  0  0  0  0  0
    2.4647  -11.1925    5.6622 H   0  0  0  0  0  0  0  0  0  0  0  0
    1.5670   -8.3324    6.1573 H   0  0  0  0  0  0  0  0  0  0  0  0
    2.8830   -9.1112    6.9453 H   0  0  0  0  0  0  0  0  0  0  0  0
    2.9947   -8.6854    3.9214 H   0  0  0  0  0  0  0  0  0  0  0  0
    5.2789   -8.9753    5.9120 H   0  0  0  0  0  0  0  0  0  0  0  0
    5.3320   -9.1356    4.1541 H   0  0  0  0  0  0  0  0  0  0  0  0
    4.5243  -10.3407    5.1015 H   0  0  0  0  0  0  0  0  0  0  0  0
    3.9024   -6.7035    6.0127 H   0  0  0  0  0  0  0  0  0  0  0  0
    1.5736   -6.7080    4.1151 H   0  0  0  0  0  0  0  0  0  0  0  0
    1.6533   -6.1409    5.7743 H   0  0  0  0  0  0  0  0  0  0  0  0
    1.9300   -4.5851    3.4314 H   0  0  0  0  0  0  0  0  0  0  0  0
    2.2597   -4.0371    5.0563 H   0  0  0  0  0  0  0  0  0  0  0  0
    4.4514   -4.3644    4.9714 H   0  0  0  0  0  0  0  0  0  0  0  0
    5.6065   -3.7011    3.2441 H   0  0  0  0  0  0  0  0  0  0  0  0
    3.5183   -2.2421    3.9881 H   0  0  0  0  0  0  0  0  0  0  0  0
    5.3575   -1.4621    2.0337 H   0  0  0  0  0  0  0  0  0  0  0  0
    2.0015   -2.6527    2.1106 H   0  0  0  0  0  0  0  0  0  0  0  0
    2.6338   -1.0414    1.9553 H   0  0  0  0  0  0  0  0  0  0  0  0
    3.5718   -0.4540   -0.0712 H   0  0  0  0  0  0  0  0  0  0  0  0
    3.7323   -1.7213   -2.4166 H   0  0  0  0  0  0  0  0  0  0  0  0
    4.9932    0.1720   -1.6707 H   0  0  0  0  0  0  0  0  0  0  0  0
    5.6078   -3.2960   -2.5998 H   0  0  0  0  0  0  0  0  0  0  0  0
    6.1307   -2.9772   -0.9636 H   0  0  0  0  0  0  0  0  0  0  0  0
    3.5050   -4.2133   -1.7948 H   0  0  0  0  0  0  0  0  0  0  0  0
    4.8414   -5.1221   -1.1841 H   0  0  0  0  0  0  0  0  0  0  0  0
    2.5528   -5.7699    0.0645 H   0  0  0  0  0  0  0  0  0  0  0  0
    1.7141   -4.2911   -0.3272 H   0  0  0  0  0  0  0  0  0  0  0  0
    1.9544   -4.7514    1.3507 H   0  0  0  0  0  0  0  0  0  0  0  0
    5.6682   -3.9429    1.1222 H   0  0  0  0  0  0  0  0  0  0  0  0
    4.7280   -6.3848    0.5069 H   0  0  0  0  0  0  0  0  0  0  0  0
    6.8350   -5.7467    0.7760 H   0  0  0  0  0  0  0  0  0  0  0  0
    3.2501   -6.7402    2.3156 H   0  0  0  0  0  0  0  0  0  0  0  0
    4.6133   -7.7983    2.4613 H   0  0  0  0  0  0  0  0  0  0  0  0
    6.6061   -5.5606    4.0369 H   0  0  0  0  0  0  0  0  0  0  0  0
    6.4394   -7.2850    4.1880 H   0  0  0  0  0  0  0  0  0  0  0  0
    6.0682   -6.2415    5.5533 H   0  0  0  0  0  0  0  0  0  0  0  0
  1  2  1  0
  1 31  1  0
  1 32  1  0
  1 33  1  0
  2  3  1  0
  3  4  2  0
  3  5  1  0
  5  6  1  0
  5 34  1  0
  5 35  1  0
  6  7  1  0
  6 36  1  0
  6 37  1  0
  7  8  1  0
  7  9  1  0
  7 38  1  6
  8 39  1  0
  8 40  1  0
  8 41  1  0
  9 29  1  0
  9 10  1  0
  9 42  1  1
 10 11  1  0
 10 43  1  0
 10 44  1  0
 11 12  1  0
 11 45  1  0
 11 46  1  0
 12 29  1  0
 12 13  1  0
 12 47  1  1
 13 25  1  0
 13 14  1  0
 13 48  1  1
 14 15  1  0
 14 16  1  0
 14 49  1  1
 15 50  1  0
 16 17  1  0
 16 51  1  0
 16 52  1  0
 17 23  1  0
 17 18  2  0
 18 19  1  0
 18 53  1  0
 19 20  1  0
 19 21  1  0
 19 54  1  6
 20 55  1  0
 21 22  1  0
 21 56  1  0
 21 57  1  0
 22 23  1  0
 22 58  1  0
 22 59  1  0
 23 24  1  6
 23 25  1  0
 24 60  1  0
 24 61  1  0
 24 62  1  0
 25 26  1  0
 25 63  1  6
 26 27  1  0
 26 28  1  0
 26 64  1  6
 27 65  1  0
 28 29  1  0
 28 66  1  0
 28 67  1  0
 29 30  1  1
 30 68  1  0
 30 69  1  0
 30 70  1  0
M  END
>  <i_m_ct_stereo_status>  (293) 
1

>  <s_m_source_file>  (293) 
/var/tmp/pbs.5076255.sched01/tmpycp4azd_/132pnz8hy5b.sdf

>  <i_m_source_file_index>  (293) 
14

>  <i_lp_mmshare_version>  (293) 
48012

>  <i_f3d_flags>  (293) 
0

>  <s_epik_input>  (293) 
W0NIM11PQyg9TylbQ0gyXVtDSDJdW0NASF0oW0NIM10pW0NASF0oW0NIMl1bQ0gyXTEpW0NAQF0oW0NIM10pKFtDSDJdW0NAQEhdKFtDQEhdMjMpW09IXSlbQ0BIXTFbQ0BASF0yW0NAQEhdKFtPSF0pW0NIMl1DKFtDQF0zNFtDSDNdKT1bQ0hdW0NAQEhdKFtPSF0pW0NIMl1bQ0gyXTQ=

>  <s_epik_cmdline>  (293) 
J2VwaWtfcHl0aG9uJywgJy1waHQnLCAnMi4wJywgJy1waCcsICc3LjAnLCAnLXRuJywgJzgnLCAnLW1hJywgJzIwMCcsICctaW1hZScsICc8aW5maWxlLm1hZT4nLCAnLW9tYWUnLCAnPG91dGZpbGUubWFlPic=

>  <r_lp_tautomer_probability>  (293) 
1

>  <r_epik_Ionization_Penalty>  (293) 
2.15681e-06

>  <r_epik_Ionization_Penalty_Charging>  (293) 
0

>  <r_epik_Ionization_Penalty_Neutral>  (293) 
2.15681e-06

>  <r_epik_State_Penalty>  (293) 
-0

>  <r_epik_Charging_Adjusted_Penalty>  (293) 
0

>  <i_epik_Tot_Q>  (293) 
0

>  <i_epik_Tot_abs_Q>  (293) 
0

>  <s_epik_Chemistry_Notes>  (293) 
This compound has an ester and may undergo hydrolysis at high or low pH.

>  <s_lp_Force_Field>  (293) 
OPLS3e

>  <r_lp_Energy>  (293) 
50.384

>  <b_lp_Chiralities_Consistent>  (293) 
1

>  <s_lp_Variant>  (293) 
96:0-1

>  <s_i_glide_gridfile>  (293) 
pfpi4k_grid

>  <i_i_glide_lignum>  (293) 
14

>  <i_i_glide_rotatable_bonds>  (293) 
8

>  <r_i_docking_score>  (293) 
-2.20725

>  <r_i_glide_ligand_efficiency>  (293) 
-0.073575

>  <r_i_glide_ligand_efficiency_sa>  (293) 
-0.228615

>  <r_i_glide_ligand_efficiency_ln>  (293) 
-0.501512

>  <r_i_glide_gscore>  (293) 
-2.20725

>  <r_i_glide_lipo>  (293) 
-0.151098

>  <r_i_glide_hbond>  (293) 
-0.253595

>  <r_i_glide_metal>  (293) 
-0

>  <r_i_glide_rewards>  (293) 
-0.541486

>  <r_i_glide_evdw>  (293) 
-21.1949

>  <r_i_glide_ecoul>  (293) 
-4.12346

>  <r_i_glide_erotb>  (293) 
0.447596

>  <r_i_glide_esite>  (293) 
-0.0304068

>  <r_i_glide_emodel>  (293) 
-28.1314

>  <r_i_glide_energy>  (293) 
-25.3183

>  <r_i_glide_einternal>  (293) 
1.86553

>  <r_i_glide_intrahb_reward>  (293) 
-0

>  <i_i_glide_confnum>  (293) 
2

>  <i_i_glide_posenum>  (293) 
2

>  <r_i_glide_eff_state_penalty>  (293) 
0

>  <ligand_id>  (293) 
96

>  <original_smiles>  (293) 
COC(=O)CCC(C)C1CCC2C3C(O)CC4=CC(O)CCC4(C)C3C(O)CC12C

>  <smiles>  (293) 
[H]OC1([H])C([H])=C2C([H])([H])C([H])(O[H])C3([H])C([H])(C([H])(O[H])C([H])([H])C4(C([H])([H])[H])C([H])(C([H])(C([H])([H])[H])C([H])([H])C([H])([H])C(=O)OC([H])([H])[H])C([H])([H])C([H])([H])C34[H])C2(C([H])([H])[H])C([H])([H])C1([H])[H]

$$$$
96:0:2
     RDKit          3D

 70 73  0  0  1  0  0  0  0  0999 V2000
    0.5964  -10.6571    2.6233 C   0  0  0  0  0  0  0  0  0  0  0  0
    0.8882  -10.3335    3.9708 O   0  0  0  0  0  0  0  0  0  0  0  0
    2.0701  -10.7001    4.4887 C   0  0  0  0  0  0  0  0  0  0  0  0
    2.9740  -11.2684    3.8820 O   0  0  0  0  0  0  0  0  0  0  0  0
    2.2307  -10.2862    5.9548 C   0  0  0  0  0  0  0  0  0  0  0  0
    2.3871   -8.7686    6.1623 C   0  0  0  0  0  0  0  0  0  0  0  0
    3.5623   -8.1049    5.3872 C   0  0  2  0  0  0  0  0  0  0  0  0
    4.9014   -8.5703    5.9960 C   0  0  0  0  0  0  0  0  0  0  0  0
    3.4217   -6.5531    5.3104 C   0  0  2  0  0  0  0  0  0  0  0  0
    2.0328   -6.1049    4.8183 C   0  0  0  0  0  0  0  0  0  0  0  0
    2.1847   -4.7203    4.1928 C   0  0  0  0  0  0  0  0  0  0  0  0
    3.6915   -4.4196    4.1874 C   0  0  2  0  0  0  0  0  0  0  0  0
    4.2530   -3.4949    3.0613 C   0  0  2  0  0  0  0  0  0  0  0  0
    3.3894   -2.2118    2.8611 C   0  0  1  0  0  0  0  0  0  0  0  0
    4.2300   -1.0733    2.8036 O   0  0  0  0  0  0  0  0  0  0  0  0
    2.5363   -2.2266    1.5891 C   0  0  0  0  0  0  0  0  0  0  0  0
    3.3931   -2.5858    0.3974 C   0  0  0  0  0  0  0  0  0  0  0  0
    3.6913   -1.6578   -0.5351 C   0  0  0  0  0  0  0  0  0  0  0  0
    4.6685   -1.8580   -1.6676 C   0  0  1  0  0  0  0  0  0  0  0  0
    5.4065   -0.6771   -1.8761 O   0  0  0  0  0  0  0  0  0  0  0  0
    5.6347   -3.0057   -1.3396 C   0  0  0  0  0  0  0  0  0  0  0  0
    4.8545   -4.2367   -0.8560 C   0  0  0  0  0  0  0  0  0  0  0  0
    3.9709   -4.0004    0.4177 C   0  0  2  0  0  0  0  0  0  0  0  0
    2.8204   -5.0354    0.3190 C   0  0  0  0  0  0  0  0  0  0  0  0
    4.8068   -4.1661    1.7432 C   0  0  2  0  0  0  0  0  0  0  0  0
    5.3688   -5.5981    1.9735 C   0  0  1  0  0  0  0  0  0  0  0  0
    6.7474   -5.5374    2.2880 O   0  0  0  0  0  0  0  0  0  0  0  0
    4.6136   -6.4373    3.0209 C   0  0  0  0  0  0  0  0  0  0  0  0
    4.4197   -5.7621    4.4036 C   0  0  2  0  0  0  0  0  0  0  0  0
    5.7668   -5.5256    5.1342 C   0  0  0  0  0  0  0  0  0  0  0  0
   -0.3934  -10.2798    2.3612 H   0  0  0  0  0  0  0  0  0  0  0  0
    0.5997  -11.7383    2.4829 H   0  0  0  0  0  0  0  0  0  0  0  0
    1.3222  -10.2147    1.9409 H   0  0  0  0  0  0  0  0  0  0  0  0
    1.3334  -10.6174    6.4787 H   0  0  0  0  0  0  0  0  0  0  0  0
    3.0609  -10.8393    6.3938 H   0  0  0  0  0  0  0  0  0  0  0  0
    1.4250   -8.3400    5.8888 H   0  0  0  0  0  0  0  0  0  0  0  0
    2.4951   -8.5666    7.2288 H   0  0  0  0  0  0  0  0  0  0  0  0
    3.5328   -8.4674    4.3628 H   0  0  0  0  0  0  0  0  0  0  0  0
    5.0981   -8.1003    6.9594 H   0  0  0  0  0  0  0  0  0  0  0  0
    5.7387   -8.3669    5.3344 H   0  0  0  0  0  0  0  0  0  0  0  0
    4.9153   -9.6487    6.1543 H   0  0  0  0  0  0  0  0  0  0  0  0
    3.5196   -6.1641    6.3260 H   0  0  0  0  0  0  0  0  0  0  0  0
    1.6566   -6.7943    4.0599 H   0  0  0  0  0  0  0  0  0  0  0  0
    1.3090   -6.0871    5.6338 H   0  0  0  0  0  0  0  0  0  0  0  0
    1.7461   -4.7175    3.2010 H   0  0  0  0  0  0  0  0  0  0  0  0
    1.6462   -3.9740    4.7771 H   0  0  0  0  0  0  0  0  0  0  0  0
    3.8377   -3.8580    5.1143 H   0  0  0  0  0  0  0  0  0  0  0  0
    5.1624   -3.1273    3.5370 H   0  0  0  0  0  0  0  0  0  0  0  0
    2.7381   -2.0628    3.7216 H   0  0  0  0  0  0  0  0  0  0  0  0
    3.6816   -0.3111    2.7246 H   0  0  0  0  0  0  0  0  0  0  0  0
    1.7338   -2.9512    1.6919 H   0  0  0  0  0  0  0  0  0  0  0  0
    2.0531   -1.2585    1.4319 H   0  0  0  0  0  0  0  0  0  0  0  0
    3.2448   -0.6788   -0.4655 H   0  0  0  0  0  0  0  0  0  0  0  0
    4.0894   -2.0908   -2.5686 H   0  0  0  0  0  0  0  0  0  0  0  0
    4.8241    0.0643   -1.8072 H   0  0  0  0  0  0  0  0  0  0  0  0
    6.2220   -3.2582   -2.2216 H   0  0  0  0  0  0  0  0  0  0  0  0
    6.3430   -2.6972   -0.5707 H   0  0  0  0  0  0  0  0  0  0  0  0
    4.2164   -4.5237   -1.6883 H   0  0  0  0  0  0  0  0  0  0  0  0
    5.5430   -5.0689   -0.7307 H   0  0  0  0  0  0  0  0  0  0  0  0
    3.1940   -6.0454    0.1521 H   0  0  0  0  0  0  0  0  0  0  0  0
    2.1632   -4.8022   -0.5206 H   0  0  0  0  0  0  0  0  0  0  0  0
    2.2024   -5.0704    1.2067 H   0  0  0  0  0  0  0  0  0  0  0  0
    5.6782   -3.5536    1.5099 H   0  0  0  0  0  0  0  0  0  0  0  0
    5.3291   -6.1737    1.0508 H   0  0  0  0  0  0  0  0  0  0  0  0
    7.0774   -6.4187    2.3383 H   0  0  0  0  0  0  0  0  0  0  0  0
    3.6272   -6.6577    2.6085 H   0  0  0  0  0  0  0  0  0  0  0  0
    5.1041   -7.4031    3.1307 H   0  0  0  0  0  0  0  0  0  0  0  0
    6.3056   -4.6746    4.7200 H   0  0  0  0  0  0  0  0  0  0  0  0
    6.4382   -6.3774    5.0481 H   0  0  0  0  0  0  0  0  0  0  0  0
    5.6262   -5.3177    6.1949 H   0  0  0  0  0  0  0  0  0  0  0  0
  1  2  1  0
  1 31  1  0
  1 32  1  0
  1 33  1  0
  2  3  1  0
  3  4  2  0
  3  5  1  0
  5  6  1  0
  5 34  1  0
  5 35  1  0
  6  7  1  0
  6 36  1  0
  6 37  1  0
  7  8  1  0
  7  9  1  0
  7 38  1  6
  8 39  1  0
  8 40  1  0
  8 41  1  0
  9 29  1  0
  9 10  1  0
  9 42  1  1
 10 11  1  0
 10 43  1  0
 10 44  1  0
 11 12  1  0
 11 45  1  0
 11 46  1  0
 12 29  1  0
 12 13  1  0
 12 47  1  1
 13 25  1  0
 13 14  1  0
 13 48  1  1
 14 15  1  0
 14 16  1  0
 14 49  1  1
 15 50  1  0
 16 17  1  0
 16 51  1  0
 16 52  1  0
 17 23  1  0
 17 18  2  0
 18 19  1  0
 18 53  1  0
 19 20  1  0
 19 21  1  0
 19 54  1  6
 20 55  1  0
 21 22  1  0
 21 56  1  0
 21 57  1  0
 22 23  1  0
 22 58  1  0
 22 59  1  0
 23 24  1  1
 23 25  1  0
 24 60  1  0
 24 61  1  0
 24 62  1  0
 25 26  1  0
 25 63  1  6
 26 27  1  0
 26 28  1  0
 26 64  1  6
 27 65  1  0
 28 29  1  0
 28 66  1  0
 28 67  1  0
 29 30  1  1
 30 68  1  0
 30 69  1  0
 30 70  1  0
M  END
>  <i_m_ct_stereo_status>  (294) 
1

>  <s_m_source_file>  (294) 
/var/tmp/pbs.5076255.sched01/tmpycp4azd_/132pnz8hy5b.sdf

>  <i_m_source_file_index>  (294) 
14

>  <i_lp_mmshare_version>  (294) 
48012

>  <i_f3d_flags>  (294) 
0

>  <s_epik_input>  (294) 
W0NIM11PQyg9TylbQ0gyXVtDSDJdW0NASF0oW0NIM10pW0NASF0oW0NIMl1bQ0gyXTEpW0NAQF0oW0NIM10pKFtDSDJdW0NAQEhdKFtDQEhdMjMpW09IXSlbQ0BIXTFbQ0BASF0yW0NAQEhdKFtPSF0pW0NIMl1DKFtDQF0zNFtDSDNdKT1bQ0hdW0NAQEhdKFtPSF0pW0NIMl1bQ0gyXTQ=

>  <s_epik_cmdline>  (294) 
J2VwaWtfcHl0aG9uJywgJy1waHQnLCAnMi4wJywgJy1waCcsICc3LjAnLCAnLXRuJywgJzgnLCAnLW1hJywgJzIwMCcsICctaW1hZScsICc8aW5maWxlLm1hZT4nLCAnLW9tYWUnLCAnPG91dGZpbGUubWFlPic=

>  <r_lp_tautomer_probability>  (294) 
1

>  <r_epik_Ionization_Penalty>  (294) 
2.15681e-06

>  <r_epik_Ionization_Penalty_Charging>  (294) 
0

>  <r_epik_Ionization_Penalty_Neutral>  (294) 
2.15681e-06

>  <r_epik_State_Penalty>  (294) 
-0

>  <r_epik_Charging_Adjusted_Penalty>  (294) 
0

>  <i_epik_Tot_Q>  (294) 
0

>  <i_epik_Tot_abs_Q>  (294) 
0

>  <s_epik_Chemistry_Notes>  (294) 
This compound has an ester and may undergo hydrolysis at high or low pH.

>  <s_lp_Force_Field>  (294) 
OPLS3e

>  <r_lp_Energy>  (294) 
50.384

>  <b_lp_Chiralities_Consistent>  (294) 
1

>  <s_lp_Variant>  (294) 
96:0-1

>  <s_i_glide_gridfile>  (294) 
pfpi4k_grid

>  <i_i_glide_lignum>  (294) 
14

>  <i_i_glide_rotatable_bonds>  (294) 
8

>  <r_i_docking_score>  (294) 
-2.08625

>  <r_i_glide_ligand_efficiency>  (294) 
-0.0695416

>  <r_i_glide_ligand_efficiency_sa>  (294) 
-0.216082

>  <r_i_glide_ligand_efficiency_ln>  (294) 
-0.474018

>  <r_i_glide_gscore>  (294) 
-2.08625

>  <r_i_glide_lipo>  (294) 
-0.2573

>  <r_i_glide_hbond>  (294) 
-0.10292

>  <r_i_glide_metal>  (294) 
-0

>  <r_i_glide_rewards>  (294) 
-0.541486

>  <r_i_glide_evdw>  (294) 
-19.7294

>  <r_i_glide_ecoul>  (294) 
-4.10401

>  <r_i_glide_erotb>  (294) 
0.447596

>  <r_i_glide_esite>  (294) 
-0.0300671

>  <r_i_glide_emodel>  (294) 
-26.1956

>  <r_i_glide_energy>  (294) 
-23.8334

>  <r_i_glide_einternal>  (294) 
2.1751

>  <r_i_glide_intrahb_reward>  (294) 
-0

>  <i_i_glide_confnum>  (294) 
2

>  <i_i_glide_posenum>  (294) 
1

>  <r_i_glide_eff_state_penalty>  (294) 
0

>  <ligand_id>  (294) 
96

>  <original_smiles>  (294) 
COC(=O)CCC(C)C1CCC2C3C(O)CC4=CC(O)CCC4(C)C3C(O)CC12C

>  <smiles>  (294) 
[H]OC1([H])C([H])=C2C([H])([H])C([H])(O[H])C3([H])C([H])(C([H])(O[H])C([H])([H])C4(C([H])([H])[H])C([H])(C([H])(C([H])([H])[H])C([H])([H])C([H])([H])C(=O)OC([H])([H])[H])C([H])([H])C([H])([H])C34[H])C2(C([H])([H])[H])C([H])([H])C1([H])[H]

$$$$
97:0:0
     RDKit          3D

 27 29  0  0  1  0  0  0  0  0999 V2000
    4.5275   -4.2032   -3.4200 C   0  0  0  0  0  0  0  0  0  0  0  0
    3.3213   -3.4840   -2.7740 C   0  0  2  0  0  0  0  0  0  0  0  0
    2.6668   -2.4594   -3.7084 C   0  0  0  0  0  0  0  0  0  0  0  0
    3.4121   -1.2324   -3.7952 N   0  0  0  0  0  0  0  0  0  0  0  0
    3.3132   -0.4361   -5.0283 C   0  0  0  0  0  0  0  0  0  0  0  0
    4.0619   -0.7843   -2.7174 C   0  0  0  0  0  0  0  0  0  0  0  0
    4.6193    0.2781   -2.7383 O   0  0  0  0  0  0  0  0  0  0  0  0
    4.0840   -1.5454   -1.4354 C   0  0  0  0  0  0  0  0  0  0  0  0
    4.4689   -0.9288   -0.2069 C   0  0  0  0  0  0  0  0  0  0  0  0
    4.5185   -1.6460    0.9588 C   0  0  0  0  0  0  0  0  0  0  0  0
    4.1614   -2.9514    0.9100 N   0  0  0  0  0  0  0  0  0  0  0  0
    4.1403   -3.8081    1.9515 N   0  0  0  0  0  0  0  0  0  0  0  0
    3.7438   -4.9336    1.4435 N   0  0  0  0  0  0  0  0  0  0  0  0
    3.4777   -4.8635    0.0927 N   0  0  0  0  0  0  0  0  0  0  0  0
    3.7587   -3.6120   -0.2561 C   0  0  0  0  0  0  0  0  0  0  0  0
    3.7395   -2.8691   -1.4578 C   0  0  0  0  0  0  0  0  0  0  0  0
    4.9272   -4.9662   -2.7519 H   0  0  0  0  0  0  0  0  0  0  0  0
    5.3595   -3.5427   -3.6521 H   0  0  0  0  0  0  0  0  0  0  0  0
    4.2170   -4.7212   -4.3257 H   0  0  0  0  0  0  0  0  0  0  0  0
    2.5067   -4.1611   -2.5379 H   0  0  0  0  0  0  0  0  0  0  0  0
    2.5124   -2.8992   -4.6887 H   0  0  0  0  0  0  0  0  0  0  0  0
    1.6997   -2.2073   -3.2799 H   0  0  0  0  0  0  0  0  0  0  0  0
    3.9559    0.4485   -5.0651 H   0  0  0  0  0  0  0  0  0  0  0  0
    2.2852   -0.0909   -5.1329 H   0  0  0  0  0  0  0  0  0  0  0  0
    3.5793   -1.0348   -5.8953 H   0  0  0  0  0  0  0  0  0  0  0  0
    4.7160    0.1220   -0.1394 H   0  0  0  0  0  0  0  0  0  0  0  0
    4.8195   -1.2409    1.9209 H   0  0  0  0  0  0  0  0  0  0  0  0
  1  2  1  0
  1 17  1  0
  1 18  1  0
  1 19  1  0
  2 16  1  0
  2  3  1  0
  2 20  1  1
  3  4  1  0
  3 21  1  0
  3 22  1  0
  4  5  1  0
  4  6  1  0
  5 23  1  0
  5 24  1  0
  5 25  1  0
  6  7  2  0
  6  8  1  0
  8 16  2  0
  8  9  1  0
  9 10  2  0
  9 26  1  0
 10 11  1  0
 10 27  1  0
 11 15  1  0
 11 12  1  0
 12 13  2  0
 13 14  1  0
 14 15  2  0
 15 16  1  0
M  END
>  <i_m_ct_stereo_status>  (295) 
1

>  <s_m_source_file>  (295) 
/var/tmp/pbs.5076255.sched01/tmpycp4azd_/132pnz8hy5b.sdf

>  <i_m_source_file_index>  (295) 
15

>  <i_lp_mmshare_version>  (295) 
48012

>  <i_f3d_flags>  (295) 
0

>  <s_epik_input>  (295) 
Tz1DMU4oW0NIM10pW0NIMl1bQ0BASF0oW0NIM10pYyhjMTIpYzNuKFtjSF1bY0hdMilubm4z

>  <s_epik_cmdline>  (295) 
J2VwaWtfcHl0aG9uJywgJy1waHQnLCAnMi4wJywgJy1waCcsICc3LjAnLCAnLXRuJywgJzgnLCAnLW1hJywgJzIwMCcsICctaW1hZScsICc8aW5maWxlLm1hZT4nLCAnLW9tYWUnLCAnPG91dGZpbGUubWFlPic=

>  <r_lp_tautomer_probability>  (295) 
1

>  <r_epik_Ionization_Penalty>  (295) 
1.09119e-08

>  <r_epik_Ionization_Penalty_Charging>  (295) 
0

>  <r_epik_Ionization_Penalty_Neutral>  (295) 
1.09119e-08

>  <r_epik_State_Penalty>  (295) 
-0

>  <r_epik_Charging_Adjusted_Penalty>  (295) 
0

>  <i_epik_Tot_Q>  (295) 
0

>  <i_epik_Tot_abs_Q>  (295) 
0

>  <s_lp_Force_Field>  (295) 
OPLS3e

>  <r_lp_Energy>  (295) 
32.9582

>  <b_lp_Chiralities_Consistent>  (295) 
1

>  <s_lp_Variant>  (295) 
97:0-1

>  <s_i_glide_gridfile>  (295) 
pfpi4k_grid

>  <i_i_glide_lignum>  (295) 
15

>  <i_i_glide_rotatable_bonds>  (295) 
0

>  <r_i_docking_score>  (295) 
-3.41626

>  <r_i_glide_ligand_efficiency>  (295) 
-0.213516

>  <r_i_glide_ligand_efficiency_sa>  (295) 
-0.538027

>  <r_i_glide_ligand_efficiency_ln>  (295) 
-0.905548

>  <r_i_glide_gscore>  (295) 
-3.41626

>  <r_i_glide_lipo>  (295) 
-0.389784

>  <r_i_glide_hbond>  (295) 
0

>  <r_i_glide_metal>  (295) 
-0

>  <r_i_glide_rewards>  (295) 
-2.28504

>  <r_i_glide_evdw>  (295) 
-13.2237

>  <r_i_glide_ecoul>  (295) 
-0.385047

>  <r_i_glide_erotb>  (295) 
0

>  <r_i_glide_esite>  (295) 
-0.0224917

>  <r_i_glide_emodel>  (295) 
-16.7619

>  <r_i_glide_energy>  (295) 
-13.6087

>  <r_i_glide_einternal>  (295) 
0

>  <r_i_glide_intrahb_reward>  (295) 
-0

>  <i_i_glide_confnum>  (295) 
2

>  <i_i_glide_posenum>  (295) 
38

>  <r_i_glide_eff_state_penalty>  (295) 
0

>  <ligand_id>  (295) 
97

>  <original_smiles>  (295) 
CC1CN(C)C(=O)c2ccn3nnnc3c21

>  <smiles>  (295) 
[H]c1c2c(c3nnnn3c1[H])C([H])(C([H])([H])[H])C([H])([H])N(C([H])([H])[H])C2=O

$$$$
97:0:1
     RDKit          3D

 27 29  0  0  1  0  0  0  0  0999 V2000
    4.2435   -0.2665    0.8058 C   0  0  0  0  0  0  0  0  0  0  0  0
    4.9394   -1.4969    0.2030 C   0  0  2  0  0  0  0  0  0  0  0  0
    5.2484   -1.3644   -1.3051 C   0  0  0  0  0  0  0  0  0  0  0  0
    4.0759   -1.5849   -2.1638 N   0  0  0  0  0  0  0  0  0  0  0  0
    4.0894   -0.8802   -3.4489 C   0  0  0  0  0  0  0  0  0  0  0  0
    3.1470   -2.5278   -1.8823 C   0  0  0  0  0  0  0  0  0  0  0  0
    2.2492   -2.8460   -2.6664 O   0  0  0  0  0  0  0  0  0  0  0  0
    3.2643   -3.2125   -0.5440 C   0  0  0  0  0  0  0  0  0  0  0  0
    2.4758   -4.3662   -0.2946 C   0  0  0  0  0  0  0  0  0  0  0  0
    2.5657   -5.0508    0.8972 C   0  0  0  0  0  0  0  0  0  0  0  0
    3.4014   -4.5699    1.8517 N   0  0  0  0  0  0  0  0  0  0  0  0
    3.5961   -5.0778    3.0870 N   0  0  0  0  0  0  0  0  0  0  0  0
    4.4681   -4.3006    3.6468 N   0  0  0  0  0  0  0  0  0  0  0  0
    4.8778   -3.2662    2.8234 N   0  0  0  0  0  0  0  0  0  0  0  0
    4.1955   -3.4279    1.6948 C   0  0  0  0  0  0  0  0  0  0  0  0
    4.1072   -2.7434    0.4503 C   0  0  0  0  0  0  0  0  0  0  0  0
    4.1054   -0.3804    1.8815 H   0  0  0  0  0  0  0  0  0  0  0  0
    3.2568   -0.1060    0.3733 H   0  0  0  0  0  0  0  0  0  0  0  0
    4.8399    0.6299    0.6544 H   0  0  0  0  0  0  0  0  0  0  0  0
    5.8908   -1.6149    0.7229 H   0  0  0  0  0  0  0  0  0  0  0  0
    5.7100   -0.4008   -1.5117 H   0  0  0  0  0  0  0  0  0  0  0  0
    5.9768   -2.1338   -1.5858 H   0  0  0  0  0  0  0  0  0  0  0  0
    3.1695   -1.0073   -4.0214 H   0  0  0  0  0  0  0  0  0  0  0  0
    4.9020   -1.2643   -4.0644 H   0  0  0  0  0  0  0  0  0  0  0  0
    4.2236    0.1944   -3.3137 H   0  0  0  0  0  0  0  0  0  0  0  0
    1.8017   -4.7170   -1.0709 H   0  0  0  0  0  0  0  0  0  0  0  0
    2.0051   -5.9482    1.1362 H   0  0  0  0  0  0  0  0  0  0  0  0
  1  2  1  0
  1 17  1  0
  1 18  1  0
  1 19  1  0
  2 16  1  0
  2  3  1  0
  2 20  1  1
  3  4  1  0
  3 21  1  0
  3 22  1  0
  4  5  1  0
  4  6  1  0
  5 23  1  0
  5 24  1  0
  5 25  1  0
  6  7  2  0
  6  8  1  0
  8 16  2  0
  8  9  1  0
  9 10  2  0
  9 26  1  0
 10 11  1  0
 10 27  1  0
 11 15  1  0
 11 12  1  0
 12 13  2  0
 13 14  1  0
 14 15  2  0
 15 16  1  0
M  END
>  <i_m_ct_stereo_status>  (296) 
1

>  <s_m_source_file>  (296) 
/var/tmp/pbs.5076255.sched01/tmpycp4azd_/132pnz8hy5b.sdf

>  <i_m_source_file_index>  (296) 
15

>  <i_lp_mmshare_version>  (296) 
48012

>  <i_f3d_flags>  (296) 
0

>  <s_epik_input>  (296) 
Tz1DMU4oW0NIM10pW0NIMl1bQ0BASF0oW0NIM10pYyhjMTIpYzNuKFtjSF1bY0hdMilubm4z

>  <s_epik_cmdline>  (296) 
J2VwaWtfcHl0aG9uJywgJy1waHQnLCAnMi4wJywgJy1waCcsICc3LjAnLCAnLXRuJywgJzgnLCAnLW1hJywgJzIwMCcsICctaW1hZScsICc8aW5maWxlLm1hZT4nLCAnLW9tYWUnLCAnPG91dGZpbGUubWFlPic=

>  <r_lp_tautomer_probability>  (296) 
1

>  <r_epik_Ionization_Penalty>  (296) 
1.09119e-08

>  <r_epik_Ionization_Penalty_Charging>  (296) 
0

>  <r_epik_Ionization_Penalty_Neutral>  (296) 
1.09119e-08

>  <r_epik_State_Penalty>  (296) 
-0

>  <r_epik_Charging_Adjusted_Penalty>  (296) 
0

>  <i_epik_Tot_Q>  (296) 
0

>  <i_epik_Tot_abs_Q>  (296) 
0

>  <s_lp_Force_Field>  (296) 
OPLS3e

>  <r_lp_Energy>  (296) 
32.9582

>  <b_lp_Chiralities_Consistent>  (296) 
1

>  <s_lp_Variant>  (296) 
97:0-1

>  <s_i_glide_gridfile>  (296) 
pfpi4k_grid

>  <i_i_glide_lignum>  (296) 
15

>  <i_i_glide_rotatable_bonds>  (296) 
0

>  <r_i_docking_score>  (296) 
-3.23562

>  <r_i_glide_ligand_efficiency>  (296) 
-0.202226

>  <r_i_glide_ligand_efficiency_sa>  (296) 
-0.509578

>  <r_i_glide_ligand_efficiency_ln>  (296) 
-0.857665

>  <r_i_glide_gscore>  (296) 
-3.23562

>  <r_i_glide_lipo>  (296) 
-0.371986

>  <r_i_glide_hbond>  (296) 
0

>  <r_i_glide_metal>  (296) 
-0

>  <r_i_glide_rewards>  (296) 
-1.94573

>  <r_i_glide_evdw>  (296) 
-18.4918

>  <r_i_glide_ecoul>  (296) 
0.583678

>  <r_i_glide_erotb>  (296) 
0

>  <r_i_glide_esite>  (296) 
-0.0808688

>  <r_i_glide_emodel>  (296) 
-21.0551

>  <r_i_glide_energy>  (296) 
-17.9081

>  <r_i_glide_einternal>  (296) 
0

>  <r_i_glide_intrahb_reward>  (296) 
-0

>  <i_i_glide_confnum>  (296) 
1

>  <i_i_glide_posenum>  (296) 
1

>  <r_i_glide_eff_state_penalty>  (296) 
0

>  <ligand_id>  (296) 
97

>  <original_smiles>  (296) 
CC1CN(C)C(=O)c2ccn3nnnc3c21

>  <smiles>  (296) 
[H]c1c2c(c3nnnn3c1[H])C([H])(C([H])([H])[H])C([H])([H])N(C([H])([H])[H])C2=O

$$$$
97:0:2
     RDKit          3D

 27 29  0  0  1  0  0  0  0  0999 V2000
    3.8960   -1.8121    2.3259 C   0  0  0  0  0  0  0  0  0  0  0  0
    4.5774   -2.9623    1.5647 C   0  0  2  0  0  0  0  0  0  0  0  0
    5.0675   -2.5637    0.1534 C   0  0  0  0  0  0  0  0  0  0  0  0
    3.9858   -2.5191   -0.8433 N   0  0  0  0  0  0  0  0  0  0  0  0
    4.1825   -1.5822   -1.9532 C   0  0  0  0  0  0  0  0  0  0  0  0
    2.9543   -3.3996   -0.8265 C   0  0  0  0  0  0  0  0  0  0  0  0
    2.0911   -3.4544   -1.7040 O   0  0  0  0  0  0  0  0  0  0  0  0
    2.8970   -4.3610    0.3287 C   0  0  0  0  0  0  0  0  0  0  0  0
    2.0231   -5.4811    0.2540 C   0  0  0  0  0  0  0  0  0  0  0  0
    1.9263   -6.3814    1.2914 C   0  0  0  0  0  0  0  0  0  0  0  0
    2.6813   -6.1686    2.3975 N   0  0  0  0  0  0  0  0  0  0  0  0
    2.7102   -6.9246    3.5148 N   0  0  0  0  0  0  0  0  0  0  0  0
    3.5616   -6.3422    4.3022 N   0  0  0  0  0  0  0  0  0  0  0  0
    4.1177   -5.2042    3.7509 N   0  0  0  0  0  0  0  0  0  0  0  0
    3.5590   -5.0880    2.5522 C   0  0  0  0  0  0  0  0  0  0  0  0
    3.6504   -4.1639    1.4739 C   0  0  0  0  0  0  0  0  0  0  0  0
    3.6241   -2.1245    3.3348 H   0  0  0  0  0  0  0  0  0  0  0  0
    2.9840   -1.4786    1.8305 H   0  0  0  0  0  0  0  0  0  0  0  0
    4.5597   -0.9520    2.4267 H   0  0  0  0  0  0  0  0  0  0  0  0
    5.4565   -3.2554    2.1393 H   0  0  0  0  0  0  0  0  0  0  0  0
    5.6113   -1.6193    0.1930 H   0  0  0  0  0  0  0  0  0  0  0  0
    5.7741   -3.3214   -0.2038 H   0  0  0  0  0  0  0  0  0  0  0  0
    3.3238   -1.5234   -2.6257 H   0  0  0  0  0  0  0  0  0  0  0  0
    5.0383   -1.8995   -2.5512 H   0  0  0  0  0  0  0  0  0  0  0  0
    4.3640   -0.5661   -1.5937 H   0  0  0  0  0  0  0  0  0  0  0  0
    1.4322   -5.6465   -0.6454 H   0  0  0  0  0  0  0  0  0  0  0  0
    1.2904   -7.2624    1.2884 H   0  0  0  0  0  0  0  0  0  0  0  0
  1  2  1  0
  1 17  1  0
  1 18  1  0
  1 19  1  0
  2 16  1  0
  2  3  1  0
  2 20  1  1
  3  4  1  0
  3 21  1  0
  3 22  1  0
  4  5  1  0
  4  6  1  0
  5 23  1  0
  5 24  1  0
  5 25  1  0
  6  7  2  0
  6  8  1  0
  8 16  2  0
  8  9  1  0
  9 10  2  0
  9 26  1  0
 10 11  1  0
 10 27  1  0
 11 15  1  0
 11 12  1  0
 12 13  2  0
 13 14  1  0
 14 15  2  0
 15 16  1  0
M  END
>  <i_m_ct_stereo_status>  (297) 
1

>  <s_m_source_file>  (297) 
/var/tmp/pbs.5076255.sched01/tmpycp4azd_/132pnz8hy5b.sdf

>  <i_m_source_file_index>  (297) 
15

>  <i_lp_mmshare_version>  (297) 
48012

>  <i_f3d_flags>  (297) 
0

>  <s_epik_input>  (297) 
Tz1DMU4oW0NIM10pW0NIMl1bQ0BASF0oW0NIM10pYyhjMTIpYzNuKFtjSF1bY0hdMilubm4z

>  <s_epik_cmdline>  (297) 
J2VwaWtfcHl0aG9uJywgJy1waHQnLCAnMi4wJywgJy1waCcsICc3LjAnLCAnLXRuJywgJzgnLCAnLW1hJywgJzIwMCcsICctaW1hZScsICc8aW5maWxlLm1hZT4nLCAnLW9tYWUnLCAnPG91dGZpbGUubWFlPic=

>  <r_lp_tautomer_probability>  (297) 
1

>  <r_epik_Ionization_Penalty>  (297) 
1.09119e-08

>  <r_epik_Ionization_Penalty_Charging>  (297) 
0

>  <r_epik_Ionization_Penalty_Neutral>  (297) 
1.09119e-08

>  <r_epik_State_Penalty>  (297) 
-0

>  <r_epik_Charging_Adjusted_Penalty>  (297) 
0

>  <i_epik_Tot_Q>  (297) 
0

>  <i_epik_Tot_abs_Q>  (297) 
0

>  <s_lp_Force_Field>  (297) 
OPLS3e

>  <r_lp_Energy>  (297) 
32.9582

>  <b_lp_Chiralities_Consistent>  (297) 
1

>  <s_lp_Variant>  (297) 
97:0-1

>  <s_i_glide_gridfile>  (297) 
pfpi4k_grid

>  <i_i_glide_lignum>  (297) 
15

>  <i_i_glide_rotatable_bonds>  (297) 
0

>  <r_i_docking_score>  (297) 
-2.66662

>  <r_i_glide_ligand_efficiency>  (297) 
-0.166664

>  <r_i_glide_ligand_efficiency_sa>  (297) 
-0.419967

>  <r_i_glide_ligand_efficiency_ln>  (297) 
-0.706842

>  <r_i_glide_gscore>  (297) 
-2.66662

>  <r_i_glide_lipo>  (297) 
-0.0423619

>  <r_i_glide_hbond>  (297) 
0

>  <r_i_glide_metal>  (297) 
-0

>  <r_i_glide_rewards>  (297) 
-1.98771

>  <r_i_glide_evdw>  (297) 
-15.02

>  <r_i_glide_ecoul>  (297) 
0.958615

>  <r_i_glide_erotb>  (297) 
0

>  <r_i_glide_esite>  (297) 
-0.0293435

>  <r_i_glide_emodel>  (297) 
-16.6815

>  <r_i_glide_energy>  (297) 
-14.0614

>  <r_i_glide_einternal>  (297) 
0

>  <r_i_glide_intrahb_reward>  (297) 
-0

>  <i_i_glide_confnum>  (297) 
2

>  <i_i_glide_posenum>  (297) 
20

>  <r_i_glide_eff_state_penalty>  (297) 
0

>  <ligand_id>  (297) 
97

>  <original_smiles>  (297) 
CC1CN(C)C(=O)c2ccn3nnnc3c21

>  <smiles>  (297) 
[H]c1c2c(c3nnnn3c1[H])C([H])(C([H])([H])[H])C([H])([H])N(C([H])([H])[H])C2=O

$$$$
98:0:0
     RDKit          3D

 68 73  0  0  1  0  0  0  0  0999 V2000
    5.7272   -8.0482    1.8770 C   0  0  0  0  0  0  0  0  0  0  0  0
    4.7596   -6.8830    2.0937 C   0  0  0  0  0  0  0  0  0  0  0  0
    3.4608   -6.9542    2.5281 C   0  0  0  0  0  0  0  0  0  0  0  0
    2.8382   -8.2405    2.8468 C   0  0  0  0  0  0  0  0  0  0  0  0
    3.3019   -9.0492    3.6540 O   0  0  0  0  0  0  0  0  0  0  0  0
    1.5353   -8.5125    2.0914 C   0  0  1  0  0  0  0  0  0  0  0  0
    0.8307   -9.8276    2.4913 C   0  0  0  0  0  0  0  0  0  0  0  0
    0.1043   -9.7573    3.8317 C   0  0  0  0  0  0  0  0  0  0  0  0
   -0.8765   -8.5741    3.8627 C   0  0  0  0  0  0  0  0  0  0  0  0
   -0.1423   -7.2508    3.5861 C   0  0  0  0  0  0  0  0  0  0  0  0
    0.5845   -7.2958    2.2181 C   0  0  1  0  0  0  0  0  0  0  0  0
    1.2416   -6.0654    1.8846 O   0  0  0  0  0  0  0  0  0  0  0  0
    2.4049   -5.7626    2.6112 C   0  0  2  0  0  0  0  0  0  0  0  0
    2.8044   -4.3848    2.4089 O   0  0  0  0  0  0  0  0  0  0  0  0
    3.5323   -3.8784    1.2456 C   0  0  1  0  0  0  0  0  0  0  0  0
    4.1952   -5.0676    0.7218 C   0  0  0  0  0  0  0  0  0  0  0  0
    5.2614   -5.5001    1.7707 C   0  0  1  0  0  0  0  0  0  0  0  0
    5.4965   -4.9047    3.2026 C   0  0  0  0  0  0  0  0  0  0  0  0
    6.5479   -5.1108    1.0666 C   0  0  0  0  0  0  0  0  0  0  0  0
    6.6998   -3.8687    0.5100 C   0  0  0  0  0  0  0  0  0  0  0  0
    5.6996   -2.6443    0.4399 C   0  0  1  0  0  0  0  0  0  0  0  0
    6.5735   -1.4003    0.7311 C   0  0  0  0  0  0  0  0  0  0  0  0
    5.0844   -2.4866   -1.0205 C   0  0  1  0  0  0  0  0  0  0  0  0
    5.8590   -3.1676   -2.1621 C   0  0  0  0  0  0  0  0  0  0  0  0
    3.5452   -2.7997   -1.1097 C   0  0  0  0  0  0  0  0  0  0  0  0
    2.8754   -2.8833    0.2693 C   0  0  2  0  0  0  0  0  0  0  0  0
    3.2341   -1.7577    1.2701 C   0  0  0  0  0  0  0  0  0  0  0  0
    3.3751   -0.3257    0.7133 C   0  0  0  0  0  0  0  0  0  0  0  0
    2.2993   -1.5163    2.4804 C   0  0  0  0  0  0  0  0  0  0  0  0
    4.4937   -2.6712    1.4686 C   0  0  1  0  0  0  0  0  0  0  0  0
    6.1565   -7.9912    0.8842 H   0  0  0  0  0  0  0  0  0  0  0  0
    5.2418   -9.0185    1.9551 H   0  0  0  0  0  0  0  0  0  0  0  0
    6.5359   -8.0133    2.6091 H   0  0  0  0  0  0  0  0  0  0  0  0
    1.8357   -8.6026    1.0474 H   0  0  0  0  0  0  0  0  0  0  0  0
    0.0570  -10.0836    1.7846 H   0  0  0  0  0  0  0  0  0  0  0  0
    1.5325  -10.6622    2.4928 H   0  0  0  0  0  0  0  0  0  0  0  0
   -0.4435  -10.6883    3.9350 H   0  0  0  0  0  0  0  0  0  0  0  0
    0.8038   -9.7105    4.6678 H   0  0  0  0  0  0  0  0  0  0  0  0
   -1.6655   -8.7263    3.1228 H   0  0  0  0  0  0  0  0  0  0  0  0
   -1.3765   -8.5439    4.8305 H   0  0  0  0  0  0  0  0  0  0  0  0
   -0.8571   -6.4272    3.6048 H   0  0  0  0  0  0  0  0  0  0  0  0
    0.5530   -7.0774    4.4071 H   0  0  0  0  0  0  0  0  0  0  0  0
   -0.1804   -7.4256    1.4528 H   0  0  0  0  0  0  0  0  0  0  0  0
    2.1303   -5.7399    3.6735 H   0  0  0  0  0  0  0  0  0  0  0  0
    3.4647   -5.8115    0.3994 H   0  0  0  0  0  0  0  0  0  0  0  0
    4.6168   -4.9382   -0.2682 H   0  0  0  0  0  0  0  0  0  0  0  0
    6.1134   -5.5946    3.7815 H   0  0  0  0  0  0  0  0  0  0  0  0
    4.6114   -4.7439    3.8152 H   0  0  0  0  0  0  0  0  0  0  0  0
    6.0662   -3.9792    3.2037 H   0  0  0  0  0  0  0  0  0  0  0  0
    7.3455   -5.8337    1.0371 H   0  0  0  0  0  0  0  0  0  0  0  0
    7.6610   -3.6704    0.0615 H   0  0  0  0  0  0  0  0  0  0  0  0
    6.0234   -0.4613    0.6735 H   0  0  0  0  0  0  0  0  0  0  0  0
    7.4039   -1.3294    0.0284 H   0  0  0  0  0  0  0  0  0  0  0  0
    6.9882   -1.4582    1.7354 H   0  0  0  0  0  0  0  0  0  0  0  0
    5.1872   -1.4402   -1.2897 H   0  0  0  0  0  0  0  0  0  0  0  0
    5.8135   -4.2519   -2.0864 H   0  0  0  0  0  0  0  0  0  0  0  0
    6.9082   -2.8588   -2.1790 H   0  0  0  0  0  0  0  0  0  0  0  0
    5.4216   -2.9005   -3.1279 H   0  0  0  0  0  0  0  0  0  0  0  0
    3.0550   -2.0333   -1.7086 H   0  0  0  0  0  0  0  0  0  0  0  0
    3.3732   -3.7231   -1.6627 H   0  0  0  0  0  0  0  0  0  0  0  0
    1.8099   -3.0417    0.2113 H   0  0  0  0  0  0  0  0  0  0  0  0
    3.9226    0.3305    1.3918 H   0  0  0  0  0  0  0  0  0  0  0  0
    2.3978    0.1299    0.5402 H   0  0  0  0  0  0  0  0  0  0  0  0
    3.8772   -0.2723   -0.2456 H   0  0  0  0  0  0  0  0  0  0  0  0
    2.6199   -0.6550    3.0732 H   0  0  0  0  0  0  0  0  0  0  0  0
    2.2445   -2.3351    3.1946 H   0  0  0  0  0  0  0  0  0  0  0  0
    1.2773   -1.3072    2.1541 H   0  0  0  0  0  0  0  0  0  0  0  0
    4.8015   -2.5299    2.5075 H   0  0  0  0  0  0  0  0  0  0  0  0
  1  2  1  0
  1 31  1  0
  1 32  1  0
  1 33  1  0
  2 17  1  0
  2  3  2  0
  3 13  1  0
  3  4  1  0
  4  5  2  0
  4  6  1  0
  6 11  1  0
  6  7  1  0
  6 34  1  6
  7  8  1  0
  7 35  1  0
  7 36  1  0
  8  9  1  0
  8 37  1  0
  8 38  1  0
  9 10  1  0
  9 39  1  0
  9 40  1  0
 10 11  1  0
 10 41  1  0
 10 42  1  0
 11 12  1  0
 11 43  1  6
 12 13  1  0
 13 14  1  0
 13 44  1  1
 15 14  1  1
 15 26  1  0
 15 30  1  0
 15 16  1  0
 16 17  1  0
 16 45  1  0
 16 46  1  0
 17 18  1  1
 17 19  1  0
 18 47  1  0
 18 48  1  0
 18 49  1  0
 19 20  2  0
 19 50  1  0
 20 21  1  0
 20 51  1  0
 21 30  1  0
 21 22  1  1
 21 23  1  0
 22 52  1  0
 22 53  1  0
 22 54  1  0
 23 24  1  0
 23 25  1  0
 23 55  1  6
 24 56  1  0
 24 57  1  0
 24 58  1  0
 25 26  1  0
 25 59  1  0
 25 60  1  0
 26 27  1  0
 26 61  1  6
 27 28  1  0
 27 29  1  0
 27 30  1  0
 28 62  1  0
 28 63  1  0
 28 64  1  0
 29 65  1  0
 29 66  1  0
 29 67  1  0
 30 68  1  1
M  END
>  <i_m_ct_stereo_status>  (298) 
1

>  <s_m_source_file>  (298) 
/var/tmp/pbs.5076255.sched01/tmpycp4azd_/132pnz8hy5b.sdf

>  <i_m_source_file_index>  (298) 
16

>  <i_lp_mmshare_version>  (298) 
48012

>  <i_f3d_flags>  (298) 
0

>  <s_epik_input>  (298) 
W0NAXTEyM1tDQEBIXTRbQ0gyXVtDQEhdKFtDSDNdKVtDQEBdKFtDSDNdKShbQ0BIXTNDNChbQ0gzXSlbQ0gzXSlbQ0hdPVtDSF1bQ0BdKFtDSDJdMikoW0NIM10pQyhbQ0gzXSk9QzVbQ0BASF0oTzEpT1tDQEhdNltDQEBIXShDNT1PKVtDSDJdW0NIMl1bQ0gyXVtDSDJdNg==

>  <s_epik_cmdline>  (298) 
J2VwaWtfcHl0aG9uJywgJy1waHQnLCAnMi4wJywgJy1waCcsICc3LjAnLCAnLXRuJywgJzgnLCAnLW1hJywgJzIwMCcsICctaW1hZScsICc8aW5maWxlLm1hZT4nLCAnLW9tYWUnLCAnPG91dGZpbGUubWFlPic=

>  <r_lp_tautomer_probability>  (298) 
1

>  <r_epik_Ionization_Penalty>  (298) 
3.43367e-14

>  <r_epik_Ionization_Penalty_Charging>  (298) 
0

>  <r_epik_Ionization_Penalty_Neutral>  (298) 
3.43367e-14

>  <r_epik_State_Penalty>  (298) 
-0

>  <r_epik_Charging_Adjusted_Penalty>  (298) 
0

>  <i_epik_Tot_Q>  (298) 
0

>  <i_epik_Tot_abs_Q>  (298) 
0

>  <s_epik_Chemistry_Notes>  (298) 
This compound contains an acetal/aminal-like group ( X-CH(R)-Y where X, Y are N, S, or O) that may be acid/base labile, releasing an aldehyde.

>  <s_lp_Force_Field>  (298) 
OPLS3e

>  <r_lp_Energy>  (298) 
141.578

>  <b_lp_Chiralities_Consistent>  (298) 
1

>  <s_lp_Variant>  (298) 
98:0-1

>  <s_i_glide_gridfile>  (298) 
pfpi4k_grid

>  <i_i_glide_lignum>  (298) 
16

>  <i_i_glide_rotatable_bonds>  (298) 
0

>  <r_i_docking_score>  (298) 
-2.81925

>  <r_i_glide_ligand_efficiency>  (298) 
-0.0939751

>  <r_i_glide_ligand_efficiency_sa>  (298) 
-0.292002

>  <r_i_glide_ligand_efficiency_ln>  (298) 
-0.640565

>  <r_i_glide_gscore>  (298) 
-2.81925

>  <r_i_glide_lipo>  (298) 
-0.769723

>  <r_i_glide_hbond>  (298) 
-0.0597003

>  <r_i_glide_metal>  (298) 
-0

>  <r_i_glide_rewards>  (298) 
-0.609622

>  <r_i_glide_evdw>  (298) 
-25.5748

>  <r_i_glide_ecoul>  (298) 
-0.586146

>  <r_i_glide_erotb>  (298) 
0

>  <r_i_glide_esite>  (298) 
-0.0135432

>  <r_i_glide_emodel>  (298) 
-30.8923

>  <r_i_glide_energy>  (298) 
-26.161

>  <r_i_glide_einternal>  (298) 
0

>  <r_i_glide_intrahb_reward>  (298) 
-0

>  <i_i_glide_confnum>  (298) 
2

>  <i_i_glide_posenum>  (298) 
23

>  <r_i_glide_eff_state_penalty>  (298) 
0

>  <ligand_id>  (298) 
98

>  <original_smiles>  (298) 
CC1=C2C(=O)C3CCCCC3OC2OC23CC1(C)C=CC1(C)C(C)CC2C(C)(C)C13

>  <smiles>  (298) 
[H]C1=C([H])C2(C([H])([H])[H])C([H])(C([H])([H])[H])C([H])([H])C3([H])C4(OC5([H])OC6([H])C([H])([H])C([H])([H])C([H])([H])C([H])([H])C6([H])C(=O)C5=C(C([H])([H])[H])C1(C([H])([H])[H])C4([H])[H])C2([H])C3(C([H])([H])[H])C([H])([H])[H]

$$$$
98:0:1
     RDKit          3D

 68 73  0  0  1  0  0  0  0  0999 V2000
    6.7617   -7.5810    2.6230 C   0  0  0  0  0  0  0  0  0  0  0  0
    5.3132   -7.2735    2.2566 C   0  0  0  0  0  0  0  0  0  0  0  0
    4.8392   -6.1570    1.6093 C   0  0  0  0  0  0  0  0  0  0  0  0
    5.7520   -5.0825    1.1868 C   0  0  0  0  0  0  0  0  0  0  0  0
    6.7449   -5.2454    0.4764 O   0  0  0  0  0  0  0  0  0  0  0  0
    5.3718   -3.7019    1.7290 C   0  0  1  0  0  0  0  0  0  0  0  0
    6.2684   -2.5390    1.2377 C   0  0  0  0  0  0  0  0  0  0  0  0
    5.9771   -2.1037   -0.2086 C   0  0  0  0  0  0  0  0  0  0  0  0
    4.4871   -1.7889   -0.4067 C   0  0  0  0  0  0  0  0  0  0  0  0
    3.6059   -2.9851   -0.0057 C   0  0  0  0  0  0  0  0  0  0  0  0
    3.8776   -3.4117    1.4568 C   0  0  1  0  0  0  0  0  0  0  0  0
    3.0418   -4.4918    1.9003 O   0  0  0  0  0  0  0  0  0  0  0  0
    3.3224   -5.7574    1.3628 C   0  0  2  0  0  0  0  0  0  0  0  0
    2.2380   -6.6793    1.6559 O   0  0  0  0  0  0  0  0  0  0  0  0
    2.0186   -7.3586    2.9288 C   0  0  1  0  0  0  0  0  0  0  0  0
    3.3460   -7.3558    3.5406 C   0  0  0  0  0  0  0  0  0  0  0  0
    4.2625   -8.2733    2.6753 C   0  0  1  0  0  0  0  0  0  0  0  0
    3.9175   -8.9663    1.3100 C   0  0  0  0  0  0  0  0  0  0  0  0
    4.4284   -9.4744    3.5848 C   0  0  0  0  0  0  0  0  0  0  0  0
    3.3430  -10.0692    4.1710 C   0  0  0  0  0  0  0  0  0  0  0  0
    1.8022   -9.7083    4.0932 C   0  0  1  0  0  0  0  0  0  0  0  0
    1.0914  -11.0794    3.9626 C   0  0  0  0  0  0  0  0  0  0  0  0
    1.3160   -9.0026    5.4343 C   0  0  1  0  0  0  0  0  0  0  0  0
    2.1987   -9.2198    6.6793 C   0  0  0  0  0  0  0  0  0  0  0  0
    0.9138   -7.4876    5.2728 C   0  0  0  0  0  0  0  0  0  0  0  0
    0.7769   -7.0449    3.7962 C   0  0  2  0  0  0  0  0  0  0  0  0
   -0.0152   -8.0245    2.8951 C   0  0  0  0  0  0  0  0  0  0  0  0
   -1.2740   -8.6936    3.4901 C   0  0  0  0  0  0  0  0  0  0  0  0
   -0.5568   -7.4993    1.5476 C   0  0  0  0  0  0  0  0  0  0  0  0
    1.3631   -8.7737    2.8826 C   0  0  1  0  0  0  0  0  0  0  0  0
    6.8333   -7.8296    3.6823 H   0  0  0  0  0  0  0  0  0  0  0  0
    7.4331   -6.7409    2.4569 H   0  0  0  0  0  0  0  0  0  0  0  0
    7.1295   -8.4282    2.0445 H   0  0  0  0  0  0  0  0  0  0  0  0
    5.5095   -3.7827    2.8064 H   0  0  0  0  0  0  0  0  0  0  0  0
    6.1201   -1.6845    1.9001 H   0  0  0  0  0  0  0  0  0  0  0  0
    7.3227   -2.8022    1.3181 H   0  0  0  0  0  0  0  0  0  0  0  0
    6.5778   -1.2243   -0.4445 H   0  0  0  0  0  0  0  0  0  0  0  0
    6.2880   -2.8854   -0.9025 H   0  0  0  0  0  0  0  0  0  0  0  0
    4.2195   -0.9119    0.1866 H   0  0  0  0  0  0  0  0  0  0  0  0
    4.3027   -1.5179   -1.4472 H   0  0  0  0  0  0  0  0  0  0  0  0
    2.5577   -2.7099   -0.1210 H   0  0  0  0  0  0  0  0  0  0  0  0
    3.7957   -3.7988   -0.7080 H   0  0  0  0  0  0  0  0  0  0  0  0
    3.6041   -2.5653    2.0872 H   0  0  0  0  0  0  0  0  0  0  0  0
    3.2379   -5.6774    0.2770 H   0  0  0  0  0  0  0  0  0  0  0  0
    3.6830   -6.3347    3.7297 H   0  0  0  0  0  0  0  0  0  0  0  0
    3.3526   -7.6377    4.5871 H   0  0  0  0  0  0  0  0  0  0  0  0
    4.8404   -9.2945    0.8312 H   0  0  0  0  0  0  0  0  0  0  0  0
    3.4297   -8.3422    0.5706 H   0  0  0  0  0  0  0  0  0  0  0  0
    3.3360   -9.8813    1.4042 H   0  0  0  0  0  0  0  0  0  0  0  0
    5.4205   -9.8664    3.7374 H   0  0  0  0  0  0  0  0  0  0  0  0
    3.5497  -10.9421    4.7729 H   0  0  0  0  0  0  0  0  0  0  0  0
    0.0080  -10.9939    3.9293 H   0  0  0  0  0  0  0  0  0  0  0  0
    1.3257  -11.7258    4.8108 H   0  0  0  0  0  0  0  0  0  0  0  0
    1.4028  -11.6032    3.0589 H   0  0  0  0  0  0  0  0  0  0  0  0
    0.4064   -9.5202    5.7317 H   0  0  0  0  0  0  0  0  0  0  0  0
    3.1753   -8.7429    6.5899 H   0  0  0  0  0  0  0  0  0  0  0  0
    2.3560  -10.2823    6.8674 H   0  0  0  0  0  0  0  0  0  0  0  0
    1.7119   -8.8068    7.5632 H   0  0  0  0  0  0  0  0  0  0  0  0
   -0.0191   -7.3056    5.8043 H   0  0  0  0  0  0  0  0  0  0  0  0
    1.6431   -6.8502    5.7768 H   0  0  0  0  0  0  0  0  0  0  0  0
    0.4434   -6.0149    3.6757 H   0  0  0  0  0  0  0  0  0  0  0  0
   -1.5744   -9.5745    2.9173 H   0  0  0  0  0  0  0  0  0  0  0  0
   -2.1287   -8.0140    3.5083 H   0  0  0  0  0  0  0  0  0  0  0  0
   -1.1640   -9.0270    4.5150 H   0  0  0  0  0  0  0  0  0  0  0  0
   -1.1423   -8.2624    1.0353 H   0  0  0  0  0  0  0  0  0  0  0  0
    0.1975   -7.2042    0.8250 H   0  0  0  0  0  0  0  0  0  0  0  0
   -1.2094   -6.6431    1.7027 H   0  0  0  0  0  0  0  0  0  0  0  0
    1.4324   -9.2675    1.9154 H   0  0  0  0  0  0  0  0  0  0  0  0
  1  2  1  0
  1 31  1  0
  1 32  1  0
  1 33  1  0
  2 17  1  0
  2  3  2  0
  3 13  1  0
  3  4  1  0
  4  5  2  0
  4  6  1  0
  6 11  1  0
  6  7  1  0
  6 34  1  1
  7  8  1  0
  7 35  1  0
  7 36  1  0
  8  9  1  0
  8 37  1  0
  8 38  1  0
  9 10  1  0
  9 39  1  0
  9 40  1  0
 10 11  1  0
 10 41  1  0
 10 42  1  0
 11 12  1  0
 11 43  1  1
 12 13  1  0
 13 14  1  0
 13 44  1  6
 15 14  1  6
 15 26  1  0
 15 30  1  0
 15 16  1  0
 16 17  1  0
 16 45  1  0
 16 46  1  0
 17 18  1  6
 17 19  1  0
 18 47  1  0
 18 48  1  0
 18 49  1  0
 19 20  2  0
 19 50  1  0
 20 21  1  0
 20 51  1  0
 21 30  1  0
 21 22  1  6
 21 23  1  0
 22 52  1  0
 22 53  1  0
 22 54  1  0
 23 24  1  0
 23 25  1  0
 23 55  1  1
 24 56  1  0
 24 57  1  0
 24 58  1  0
 25 26  1  0
 25 59  1  0
 25 60  1  0
 26 27  1  0
 26 61  1  1
 27 28  1  0
 27 29  1  0
 27 30  1  0
 28 62  1  0
 28 63  1  0
 28 64  1  0
 29 65  1  0
 29 66  1  0
 29 67  1  0
 30 68  1  6
M  END
>  <i_m_ct_stereo_status>  (299) 
1

>  <s_m_source_file>  (299) 
/var/tmp/pbs.5076255.sched01/tmpycp4azd_/132pnz8hy5b.sdf

>  <i_m_source_file_index>  (299) 
16

>  <i_lp_mmshare_version>  (299) 
48012

>  <i_f3d_flags>  (299) 
0

>  <s_epik_input>  (299) 
W0NAXTEyM1tDQEBIXTRbQ0gyXVtDQEhdKFtDSDNdKVtDQEBdKFtDSDNdKShbQ0BIXTNDNChbQ0gzXSlbQ0gzXSlbQ0hdPVtDSF1bQ0BdKFtDSDJdMikoW0NIM10pQyhbQ0gzXSk9QzVbQ0BASF0oTzEpT1tDQEhdNltDQEBIXShDNT1PKVtDSDJdW0NIMl1bQ0gyXVtDSDJdNg==

>  <s_epik_cmdline>  (299) 
J2VwaWtfcHl0aG9uJywgJy1waHQnLCAnMi4wJywgJy1waCcsICc3LjAnLCAnLXRuJywgJzgnLCAnLW1hJywgJzIwMCcsICctaW1hZScsICc8aW5maWxlLm1hZT4nLCAnLW9tYWUnLCAnPG91dGZpbGUubWFlPic=

>  <r_lp_tautomer_probability>  (299) 
1

>  <r_epik_Ionization_Penalty>  (299) 
3.43367e-14

>  <r_epik_Ionization_Penalty_Charging>  (299) 
0

>  <r_epik_Ionization_Penalty_Neutral>  (299) 
3.43367e-14

>  <r_epik_State_Penalty>  (299) 
-0

>  <r_epik_Charging_Adjusted_Penalty>  (299) 
0

>  <i_epik_Tot_Q>  (299) 
0

>  <i_epik_Tot_abs_Q>  (299) 
0

>  <s_epik_Chemistry_Notes>  (299) 
This compound contains an acetal/aminal-like group ( X-CH(R)-Y where X, Y are N, S, or O) that may be acid/base labile, releasing an aldehyde.

>  <s_lp_Force_Field>  (299) 
OPLS3e

>  <r_lp_Energy>  (299) 
141.578

>  <b_lp_Chiralities_Consistent>  (299) 
1

>  <s_lp_Variant>  (299) 
98:0-1

>  <s_i_glide_gridfile>  (299) 
pfpi4k_grid

>  <i_i_glide_lignum>  (299) 
16

>  <i_i_glide_rotatable_bonds>  (299) 
0

>  <r_i_docking_score>  (299) 
-2.53839

>  <r_i_glide_ligand_efficiency>  (299) 
-0.084613

>  <r_i_glide_ligand_efficiency_sa>  (299) 
-0.262912

>  <r_i_glide_ligand_efficiency_ln>  (299) 
-0.57675

>  <r_i_glide_gscore>  (299) 
-2.53839

>  <r_i_glide_lipo>  (299) 
-0.387781

>  <r_i_glide_hbond>  (299) 
0

>  <r_i_glide_metal>  (299) 
-0

>  <r_i_glide_rewards>  (299) 
-0.747766

>  <r_i_glide_evdw>  (299) 
-25.1857

>  <r_i_glide_ecoul>  (299) 
-0.957037

>  <r_i_glide_erotb>  (299) 
0

>  <r_i_glide_esite>  (299) 
0

>  <r_i_glide_emodel>  (299) 
-30.4428

>  <r_i_glide_energy>  (299) 
-26.1428

>  <r_i_glide_einternal>  (299) 
0

>  <r_i_glide_intrahb_reward>  (299) 
-0

>  <i_i_glide_confnum>  (299) 
1

>  <i_i_glide_posenum>  (299) 
5

>  <r_i_glide_eff_state_penalty>  (299) 
0

>  <ligand_id>  (299) 
98

>  <original_smiles>  (299) 
CC1=C2C(=O)C3CCCCC3OC2OC23CC1(C)C=CC1(C)C(C)CC2C(C)(C)C13

>  <smiles>  (299) 
[H]C1=C([H])C2(C([H])([H])[H])C([H])(C([H])([H])[H])C([H])([H])C3([H])C4(OC5([H])OC6([H])C([H])([H])C([H])([H])C([H])([H])C([H])([H])C6([H])C(=O)C5=C(C([H])([H])[H])C1(C([H])([H])[H])C4([H])[H])C2([H])C3(C([H])([H])[H])C([H])([H])[H]

$$$$
98:0:2
     RDKit          3D

 68 73  0  0  1  0  0  0  0  0999 V2000
    6.9836   -5.2278    1.7325 C   0  0  0  0  0  0  0  0  0  0  0  0
    5.4997   -5.4235    1.4663 C   0  0  0  0  0  0  0  0  0  0  0  0
    4.7163   -4.7302    0.5522 C   0  0  0  0  0  0  0  0  0  0  0  0
    5.3009   -3.6640   -0.2761 C   0  0  0  0  0  0  0  0  0  0  0  0
    6.2763   -3.7875   -1.0013 O   0  0  0  0  0  0  0  0  0  0  0  0
    4.5872   -2.3175   -0.1429 C   0  0  1  0  0  0  0  0  0  0  0  0
    5.1223   -1.1987   -1.0667 C   0  0  0  0  0  0  0  0  0  0  0  0
    4.6871   -1.3484   -2.5362 C   0  0  0  0  0  0  0  0  0  0  0  0
    3.1665   -1.4948   -2.6576 C   0  0  0  0  0  0  0  0  0  0  0  0
    2.6578   -2.6717   -1.8132 C   0  0  0  0  0  0  0  0  0  0  0  0
    3.0782   -2.5035   -0.3267 C   0  0  1  0  0  0  0  0  0  0  0  0
    2.5815   -3.5300    0.5424 O   0  0  0  0  0  0  0  0  0  0  0  0
    3.1518   -4.8051    0.3889 C   0  0  2  0  0  0  0  0  0  0  0  0
    2.3531   -5.8274    1.0632 O   0  0  0  0  0  0  0  0  0  0  0  0
    2.3670   -6.0745    2.5052 C   0  0  1  0  0  0  0  0  0  0  0  0
    3.6630   -5.5466    2.9191 C   0  0  0  0  0  0  0  0  0  0  0  0
    4.7608   -6.4466    2.2796 C   0  0  1  0  0  0  0  0  0  0  0  0
    4.5698   -7.6095    1.2480 C   0  0  0  0  0  0  0  0  0  0  0  0
    5.2727   -7.2031    3.4886 C   0  0  0  0  0  0  0  0  0  0  0  0
    4.4079   -7.8093    4.3581 C   0  0  0  0  0  0  0  0  0  0  0  0
    2.8246   -7.8835    4.3568 C   0  0  1  0  0  0  0  0  0  0  0  0
    2.4989   -9.3512    4.7260 C   0  0  0  0  0  0  0  0  0  0  0  0
    2.2036   -6.9247    5.4527 C   0  0  1  0  0  0  0  0  0  0  0  0
    3.1523   -6.5038    6.5949 C   0  0  0  0  0  0  0  0  0  0  0  0
    1.4148   -5.6904    4.8858 C   0  0  0  0  0  0  0  0  0  0  0  0
    1.1183   -5.8064    3.3692 C   0  0  2  0  0  0  0  0  0  0  0  0
    0.5848   -7.1848    2.9084 C   0  0  0  0  0  0  0  0  0  0  0  0
   -0.4312   -7.9079    3.8096 C   0  0  0  0  0  0  0  0  0  0  0  0
   -0.1260   -7.2697    1.5276 C   0  0  0  0  0  0  0  0  0  0  0  0
    2.1155   -7.5370    2.9719 C   0  0  1  0  0  0  0  0  0  0  0  0
    7.1467   -5.0928    2.8023 H   0  0  0  0  0  0  0  0  0  0  0  0
    7.4006   -4.3498    1.2433 H   0  0  0  0  0  0  0  0  0  0  0  0
    7.5505   -6.1014    1.4074 H   0  0  0  0  0  0  0  0  0  0  0  0
    4.7699   -2.0009    0.8821 H   0  0  0  0  0  0  0  0  0  0  0  0
    4.7476   -0.2498   -0.6842 H   0  0  0  0  0  0  0  0  0  0  0  0
    6.2053   -1.1429   -1.0081 H   0  0  0  0  0  0  0  0  0  0  0  0
    5.0167   -0.4767   -3.1045 H   0  0  0  0  0  0  0  0  0  0  0  0
    5.1747   -2.2126   -2.9900 H   0  0  0  0  0  0  0  0  0  0  0  0
    2.6778   -0.5778   -2.3263 H   0  0  0  0  0  0  0  0  0  0  0  0
    2.8788   -1.6268   -3.7009 H   0  0  0  0  0  0  0  0  0  0  0  0
    1.5774   -2.7349   -1.9177 H   0  0  0  0  0  0  0  0  0  0  0  0
    3.0403   -3.5964   -2.2437 H   0  0  0  0  0  0  0  0  0  0  0  0
    2.6466   -1.5827    0.0637 H   0  0  0  0  0  0  0  0  0  0  0  0
    3.0147   -5.0820   -0.6528 H   0  0  0  0  0  0  0  0  0  0  0  0
    3.7259   -4.4705    2.7459 H   0  0  0  0  0  0  0  0  0  0  0  0
    3.7803   -5.4611    3.9913 H   0  0  0  0  0  0  0  0  0  0  0  0
    5.5346   -7.8372    0.7971 H   0  0  0  0  0  0  0  0  0  0  0  0
    3.9116   -7.4025    0.4120 H   0  0  0  0  0  0  0  0  0  0  0  0
    4.2623   -8.5538    1.6901 H   0  0  0  0  0  0  0  0  0  0  0  0
    6.3389   -7.2648    3.6417 H   0  0  0  0  0  0  0  0  0  0  0  0
    4.8546   -8.3641    5.1671 H   0  0  0  0  0  0  0  0  0  0  0  0
    1.4294   -9.5532    4.7943 H   0  0  0  0  0  0  0  0  0  0  0  0
    2.9227   -9.6117    5.6986 H   0  0  0  0  0  0  0  0  0  0  0  0
    2.9114  -10.0498    3.9987 H   0  0  0  0  0  0  0  0  0  0  0  0
    1.4715   -7.5214    5.9987 H   0  0  0  0  0  0  0  0  0  0  0  0
    3.9630   -5.8575    6.2510 H   0  0  0  0  0  0  0  0  0  0  0  0
    3.5950   -7.3748    7.0828 H   0  0  0  0  0  0  0  0  0  0  0  0
    2.6012   -5.9526    7.3566 H   0  0  0  0  0  0  0  0  0  0  0  0
    0.4826   -5.5794    5.4259 H   0  0  0  0  0  0  0  0  0  0  0  0
    1.9569   -4.7634    5.0857 H   0  0  0  0  0  0  0  0  0  0  0  0
    0.5402   -4.9874    2.9690 H   0  0  0  0  0  0  0  0  0  0  0  0
   -0.5050   -8.9760    3.5814 H   0  0  0  0  0  0  0  0  0  0  0  0
   -1.4388   -7.4932    3.7216 H   0  0  0  0  0  0  0  0  0  0  0  0
   -0.2097   -7.8498    4.8723 H   0  0  0  0  0  0  0  0  0  0  0  0
   -0.5176   -8.2717    1.3436 H   0  0  0  0  0  0  0  0  0  0  0  0
    0.5027   -7.0664    0.6741 H   0  0  0  0  0  0  0  0  0  0  0  0
   -0.9823   -6.5991    1.4822 H   0  0  0  0  0  0  0  0  0  0  0  0
    2.2734   -8.2789    2.2009 H   0  0  0  0  0  0  0  0  0  0  0  0
  1  2  1  0
  1 31  1  0
  1 32  1  0
  1 33  1  0
  2 17  1  0
  2  3  2  0
  3 13  1  0
  3  4  1  0
  4  5  2  0
  4  6  1  0
  6 11  1  0
  6  7  1  0
  6 34  1  1
  7  8  1  0
  7 35  1  0
  7 36  1  0
  8  9  1  0
  8 37  1  0
  8 38  1  0
  9 10  1  0
  9 39  1  0
  9 40  1  0
 10 11  1  0
 10 41  1  0
 10 42  1  0
 11 12  1  0
 11 43  1  1
 12 13  1  0
 13 14  1  0
 13 44  1  6
 15 14  1  6
 15 26  1  0
 15 30  1  0
 15 16  1  0
 16 17  1  0
 16 45  1  0
 16 46  1  0
 17 18  1  6
 17 19  1  0
 18 47  1  0
 18 48  1  0
 18 49  1  0
 19 20  2  0
 19 50  1  0
 20 21  1  0
 20 51  1  0
 21 30  1  0
 21 22  1  1
 21 23  1  0
 22 52  1  0
 22 53  1  0
 22 54  1  0
 23 24  1  0
 23 25  1  0
 23 55  1  1
 24 56  1  0
 24 57  1  0
 24 58  1  0
 25 26  1  0
 25 59  1  0
 25 60  1  0
 26 27  1  0
 26 61  1  6
 27 28  1  0
 27 29  1  0
 27 30  1  0
 28 62  1  0
 28 63  1  0
 28 64  1  0
 29 65  1  0
 29 66  1  0
 29 67  1  0
 30 68  1  6
M  END
>  <i_m_ct_stereo_status>  (300) 
1

>  <s_m_source_file>  (300) 
/var/tmp/pbs.5076255.sched01/tmpycp4azd_/132pnz8hy5b.sdf

>  <i_m_source_file_index>  (300) 
16

>  <i_lp_mmshare_version>  (300) 
48012

>  <i_f3d_flags>  (300) 
0

>  <s_epik_input>  (300) 
W0NAXTEyM1tDQEBIXTRbQ0gyXVtDQEhdKFtDSDNdKVtDQEBdKFtDSDNdKShbQ0BIXTNDNChbQ0gzXSlbQ0gzXSlbQ0hdPVtDSF1bQ0BdKFtDSDJdMikoW0NIM10pQyhbQ0gzXSk9QzVbQ0BASF0oTzEpT1tDQEhdNltDQEBIXShDNT1PKVtDSDJdW0NIMl1bQ0gyXVtDSDJdNg==

>  <s_epik_cmdline>  (300) 
J2VwaWtfcHl0aG9uJywgJy1waHQnLCAnMi4wJywgJy1waCcsICc3LjAnLCAnLXRuJywgJzgnLCAnLW1hJywgJzIwMCcsICctaW1hZScsICc8aW5maWxlLm1hZT4nLCAnLW9tYWUnLCAnPG91dGZpbGUubWFlPic=

>  <r_lp_tautomer_probability>  (300) 
1

>  <r_epik_Ionization_Penalty>  (300) 
3.43367e-14

>  <r_epik_Ionization_Penalty_Charging>  (300) 
0

>  <r_epik_Ionization_Penalty_Neutral>  (300) 
3.43367e-14

>  <r_epik_State_Penalty>  (300) 
-0

>  <r_epik_Charging_Adjusted_Penalty>  (300) 
0

>  <i_epik_Tot_Q>  (300) 
0

>  <i_epik_Tot_abs_Q>  (300) 
0

>  <s_epik_Chemistry_Notes>  (300) 
This compound contains an acetal/aminal-like group ( X-CH(R)-Y where X, Y are N, S, or O) that may be acid/base labile, releasing an aldehyde.

>  <s_lp_Force_Field>  (300) 
OPLS3e

>  <r_lp_Energy>  (300) 
141.578

>  <b_lp_Chiralities_Consistent>  (300) 
1

>  <s_lp_Variant>  (300) 
98:0-1

>  <s_i_glide_gridfile>  (300) 
pfpi4k_grid

>  <i_i_glide_lignum>  (300) 
16

>  <i_i_glide_rotatable_bonds>  (300) 
0

>  <r_i_docking_score>  (300) 
-2.46379

>  <r_i_glide_ligand_efficiency>  (300) 
-0.0821262

>  <r_i_glide_ligand_efficiency_sa>  (300) 
-0.255185

>  <r_i_glide_ligand_efficiency_ln>  (300) 
-0.559799

>  <r_i_glide_gscore>  (300) 
-2.46379

>  <r_i_glide_lipo>  (300) 
-0.259867

>  <r_i_glide_hbond>  (300) 
0

>  <r_i_glide_metal>  (300) 
-0

>  <r_i_glide_rewards>  (300) 
-0.684662

>  <r_i_glide_evdw>  (300) 
-23.6796

>  <r_i_glide_ecoul>  (300) 
-2.11255

>  <r_i_glide_erotb>  (300) 
0

>  <r_i_glide_esite>  (300) 
-0.0183913

>  <r_i_glide_emodel>  (300) 
-29.9185

>  <r_i_glide_energy>  (300) 
-25.7922

>  <r_i_glide_einternal>  (300) 
0

>  <r_i_glide_intrahb_reward>  (300) 
-0

>  <i_i_glide_confnum>  (300) 
1

>  <i_i_glide_posenum>  (300) 
28

>  <r_i_glide_eff_state_penalty>  (300) 
0

>  <ligand_id>  (300) 
98

>  <original_smiles>  (300) 
CC1=C2C(=O)C3CCCCC3OC2OC23CC1(C)C=CC1(C)C(C)CC2C(C)(C)C13

>  <smiles>  (300) 
[H]C1=C([H])C2(C([H])([H])[H])C([H])(C([H])([H])[H])C([H])([H])C3([H])C4(OC5([H])OC6([H])C([H])([H])C([H])([H])C([H])([H])C([H])([H])C6([H])C(=O)C5=C(C([H])([H])[H])C1(C([H])([H])[H])C4([H])[H])C2([H])C3(C([H])([H])[H])C([H])([H])[H]

$$$$
99:0:0
     RDKit          3D

 47 49  0  0  1  0  0  0  0  0999 V2000
    5.1501   -2.1995    2.5186 C   0  0  0  0  0  0  0  0  0  0  0  0
    5.0606   -0.6654    2.5868 C   0  0  2  0  0  0  0  0  0  0  0  0
    6.1873   -0.2134    3.2977 O   0  0  0  0  0  0  0  0  0  0  0  0
    3.8132   -0.1726    3.2897 C   0  0  0  0  0  0  0  0  0  0  0  0
    2.7593    0.4095    2.6960 C   0  0  0  0  0  0  0  0  0  0  0  0
    1.5052    0.8730    3.4220 C   0  0  2  0  0  0  0  0  0  0  0  0
    1.8178    1.8309    4.6152 C   0  0  1  0  0  0  0  0  0  0  0  0
    2.6019    3.1053    4.2203 C   0  0  0  0  0  0  0  0  0  0  0  0
    1.7593    4.1115    3.4220 C   0  0  0  0  0  0  0  0  0  0  0  0
    0.4453    4.4658    4.1428 C   0  0  1  0  0  0  0  0  0  0  0  0
   -0.3673    5.2327    3.2782 O   0  0  0  0  0  0  0  0  0  0  0  0
   -0.3375    3.2192    4.5659 C   0  0  0  0  0  0  0  0  0  0  0  0
    0.5427    2.2484    5.3807 C   0  0  1  0  0  0  0  0  0  0  0  0
   -0.2092    1.0034    5.8627 C   0  0  0  0  0  0  0  0  0  0  0  0
   -0.6326    0.0993    4.6847 C   0  0  2  0  0  0  0  0  0  0  0  0
   -1.0740   -1.2423    5.2282 C   0  0  0  0  0  0  0  0  0  0  0  0
   -2.1859   -1.4641    5.6915 O   0  0  0  0  0  0  0  0  0  0  0  0
   -0.0610   -2.0954    5.1380 O   0  0  0  0  0  0  0  0  0  0  0  0
    1.0814   -1.5809    4.4732 C   0  0  1  0  0  0  0  0  0  0  0  0
    1.6160   -2.6737    3.5261 C   0  0  0  0  0  0  0  0  0  0  0  0
    0.5330   -0.3062    3.7734 C   0  0  2  0  0  0  0  0  0  0  0  0
    4.3631   -2.6268    1.8946 H   0  0  0  0  0  0  0  0  0  0  0  0
    5.0828   -2.6514    3.5124 H   0  0  0  0  0  0  0  0  0  0  0  0
    6.0993   -2.5116    2.0809 H   0  0  0  0  0  0  0  0  0  0  0  0
    5.0736   -0.2423    1.5819 H   0  0  0  0  0  0  0  0  0  0  0  0
    6.8802    0.0278    2.6943 H   0  0  0  0  0  0  0  0  0  0  0  0
    3.7882   -0.3178    4.3608 H   0  0  0  0  0  0  0  0  0  0  0  0
    2.7583    0.5882    1.6265 H   0  0  0  0  0  0  0  0  0  0  0  0
    0.9893    1.4798    2.6734 H   0  0  0  0  0  0  0  0  0  0  0  0
    2.4379    1.2900    5.3286 H   0  0  0  0  0  0  0  0  0  0  0  0
    2.9477    3.5958    5.1308 H   0  0  0  0  0  0  0  0  0  0  0  0
    3.4975    2.8449    3.6594 H   0  0  0  0  0  0  0  0  0  0  0  0
    2.3315    5.0237    3.2422 H   0  0  0  0  0  0  0  0  0  0  0  0
    1.5371    3.6924    2.4418 H   0  0  0  0  0  0  0  0  0  0  0  0
    0.6711    5.0499    5.0362 H   0  0  0  0  0  0  0  0  0  0  0  0
   -0.1836    4.9502    2.3735 H   0  0  0  0  0  0  0  0  0  0  0  0
   -1.1955    3.5250    5.1671 H   0  0  0  0  0  0  0  0  0  0  0  0
   -0.7359    2.7210    3.6821 H   0  0  0  0  0  0  0  0  0  0  0  0
    0.8529    2.7776    6.2843 H   0  0  0  0  0  0  0  0  0  0  0  0
    0.4501    0.4344    6.5294 H   0  0  0  0  0  0  0  0  0  0  0  0
   -1.0728    1.2832    6.4737 H   0  0  0  0  0  0  0  0  0  0  0  0
   -1.4668    0.5236    4.1242 H   0  0  0  0  0  0  0  0  0  0  0  0
    1.8187   -1.3154    5.2339 H   0  0  0  0  0  0  0  0  0  0  0  0
    2.5113   -2.3452    3.0158 H   0  0  0  0  0  0  0  0  0  0  0  0
    0.8959   -2.9356    2.7485 H   0  0  0  0  0  0  0  0  0  0  0  0
    1.8669   -3.5770    4.0852 H   0  0  0  0  0  0  0  0  0  0  0  0
    0.0890   -0.6144    2.8251 H   0  0  0  0  0  0  0  0  0  0  0  0
  1  2  1  0
  1 22  1  0
  1 23  1  0
  1 24  1  0
  2  3  1  0
  2  4  1  0
  2 25  1  6
  3 26  1  0
  4  5  2  3
  4 27  1  0
  5  6  1  0
  5 28  1  0
  6 21  1  0
  6  7  1  0
  6 29  1  6
  7 13  1  0
  7  8  1  0
  7 30  1  1
  8  9  1  0
  8 31  1  0
  8 32  1  0
  9 10  1  0
  9 33  1  0
  9 34  1  0
 10 11  1  0
 10 12  1  0
 10 35  1  1
 11 36  1  0
 12 13  1  0
 12 37  1  0
 12 38  1  0
 13 14  1  0
 13 39  1  1
 14 15  1  0
 14 40  1  0
 14 41  1  0
 15 21  1  0
 15 16  1  0
 15 42  1  6
 16 17  2  0
 16 18  1  0
 18 19  1  0
 19 20  1  0
 19 21  1  0
 19 43  1  1
 20 44  1  0
 20 45  1  0
 20 46  1  0
 21 47  1  6
M  END
>  <i_m_ct_stereo_status>  (301) 
1

>  <s_m_source_file>  (301) 
/var/tmp/pbs.5076255.sched01/tmpycp4azd_/132pnz8hy5b.sdf

>  <i_m_source_file_index>  (301) 
17

>  <i_lp_mmshare_version>  (301) 
48012

>  <i_f3d_flags>  (301) 
0

>  <s_epik_input>  (301) 
W0NIM11bQ0BIXShbT0hdKS9bQ0hdPVtDSF0vW0NASF0xW0NAQEhdKFtDQEhdKFtDSDNdKU9DMj1PKVtDQEBIXTJbQ0gyXVtDQEBIXShbQ0BASF0xMylbQ0gyXVtDQEhdKFtPSF0pW0NIMl1bQ0gyXTM=

>  <s_epik_cmdline>  (301) 
J2VwaWtfcHl0aG9uJywgJy1waHQnLCAnMi4wJywgJy1waCcsICc3LjAnLCAnLXRuJywgJzgnLCAnLW1hJywgJzIwMCcsICctaW1hZScsICc8aW5maWxlLm1hZT4nLCAnLW9tYWUnLCAnPG91dGZpbGUubWFlPic=

>  <r_lp_tautomer_probability>  (301) 
1

>  <r_epik_Ionization_Penalty>  (301) 
1.88527e-06

>  <r_epik_Ionization_Penalty_Charging>  (301) 
0

>  <r_epik_Ionization_Penalty_Neutral>  (301) 
1.88527e-06

>  <r_epik_State_Penalty>  (301) 
-0

>  <r_epik_Charging_Adjusted_Penalty>  (301) 
0

>  <i_epik_Tot_Q>  (301) 
0

>  <i_epik_Tot_abs_Q>  (301) 
0

>  <s_epik_Chemistry_Notes>  (301) 
This compound has an ester and may undergo hydrolysis at high or low pH.

>  <s_lp_Force_Field>  (301) 
OPLS3e

>  <r_lp_Energy>  (301) 
9.11308

>  <b_lp_Chiralities_Consistent>  (301) 
1

>  <s_lp_Variant>  (301) 
99:0-1

>  <s_i_glide_gridfile>  (301) 
pfpi4k_grid

>  <i_i_glide_lignum>  (301) 
17

>  <i_i_glide_rotatable_bonds>  (301) 
4

>  <r_i_docking_score>  (301) 
-4.39514

>  <r_i_glide_ligand_efficiency>  (301) 
-0.209292

>  <r_i_glide_ligand_efficiency_sa>  (301) 
-0.577421

>  <r_i_glide_ligand_efficiency_ln>  (301) 
-1.08669

>  <r_i_glide_gscore>  (301) 
-4.39514

>  <r_i_glide_lipo>  (301) 
-0.252899

>  <r_i_glide_hbond>  (301) 
-0.474874

>  <r_i_glide_metal>  (301) 
-0

>  <r_i_glide_rewards>  (301) 
-1.40191

>  <r_i_glide_evdw>  (301) 
-18.8766

>  <r_i_glide_ecoul>  (301) 
-11.3715

>  <r_i_glide_erotb>  (301) 
0.422044

>  <r_i_glide_esite>  (301) 
-0.0379438

>  <r_i_glide_emodel>  (301) 
-36.4261

>  <r_i_glide_energy>  (301) 
-30.248

>  <r_i_glide_einternal>  (301) 
4.97218

>  <r_i_glide_intrahb_reward>  (301) 
-0

>  <i_i_glide_confnum>  (301) 
4

>  <i_i_glide_posenum>  (301) 
24

>  <r_i_glide_eff_state_penalty>  (301) 
0

>  <ligand_id>  (301) 
99

>  <original_smiles>  (301) 
CC(O)C=CC1C2CCC(O)CC2CC2C(=O)OC(C)C21

>  <smiles>  (301) 
[H]OC([H])(C([H])=C([H])C1([H])C2([H])C([H])(C([H])([H])[H])OC(=O)C2([H])C([H])([H])C2([H])C([H])([H])C([H])(O[H])C([H])([H])C([H])([H])C12[H])C([H])([H])[H]

$$$$
99:0:1
     RDKit          3D

 47 49  0  0  1  0  0  0  0  0999 V2000
    1.8944    1.6792    3.1829 C   0  0  0  0  0  0  0  0  0  0  0  0
    2.1867    0.3285    3.8433 C   0  0  2  0  0  0  0  0  0  0  0  0
    3.4376    0.4389    4.4923 O   0  0  0  0  0  0  0  0  0  0  0  0
    2.1547   -0.8239    2.8515 C   0  0  0  0  0  0  0  0  0  0  0  0
    3.1527   -1.6993    2.6321 C   0  0  0  0  0  0  0  0  0  0  0  0
    3.1102   -2.8518    1.6492 C   0  0  2  0  0  0  0  0  0  0  0  0
    3.6245   -4.1625    2.3142 C   0  0  1  0  0  0  0  0  0  0  0  0
    2.8060   -4.6215    3.5472 C   0  0  0  0  0  0  0  0  0  0  0  0
    1.4033   -5.1356    3.1815 C   0  0  0  0  0  0  0  0  0  0  0  0
    1.4534   -6.2274    2.0937 C   0  0  1  0  0  0  0  0  0  0  0  0
    0.1381   -6.5105    1.6573 O   0  0  0  0  0  0  0  0  0  0  0  0
    2.3025   -5.8074    0.8843 C   0  0  0  0  0  0  0  0  0  0  0  0
    3.7061   -5.3228    1.3012 C   0  0  1  0  0  0  0  0  0  0  0  0
    4.6005   -4.9241    0.1148 C   0  0  0  0  0  0  0  0  0  0  0  0
    4.0760   -3.6740   -0.6248 C   0  0  2  0  0  0  0  0  0  0  0  0
    5.1472   -3.1041   -1.5342 C   0  0  0  0  0  0  0  0  0  0  0  0
    5.3793   -3.5068   -2.6725 O   0  0  0  0  0  0  0  0  0  0  0  0
    5.7730   -2.1066   -0.8990 O   0  0  0  0  0  0  0  0  0  0  0  0
    5.2325   -1.8233    0.3834 C   0  0  1  0  0  0  0  0  0  0  0  0
    5.2058   -0.2978    0.5413 C   0  0  0  0  0  0  0  0  0  0  0  0
    3.8386   -2.4931    0.3175 C   0  0  2  0  0  0  0  0  0  0  0  0
    0.9069    1.6887    2.7164 H   0  0  0  0  0  0  0  0  0  0  0  0
    2.6354    1.9167    2.4168 H   0  0  0  0  0  0  0  0  0  0  0  0
    1.9198    2.4761    3.9280 H   0  0  0  0  0  0  0  0  0  0  0  0
    1.4317    0.1164    4.6054 H   0  0  0  0  0  0  0  0  0  0  0  0
    4.0794    0.7207    3.8552 H   0  0  0  0  0  0  0  0  0  0  0  0
    1.2367   -0.9252    2.2862 H   0  0  0  0  0  0  0  0  0  0  0  0
    4.0760   -1.6162    3.1847 H   0  0  0  0  0  0  0  0  0  0  0  0
    2.0625   -2.9992    1.3859 H   0  0  0  0  0  0  0  0  0  0  0  0
    4.6386   -3.9723    2.6675 H   0  0  0  0  0  0  0  0  0  0  0  0
    3.3444   -5.4312    4.0400 H   0  0  0  0  0  0  0  0  0  0  0  0
    2.7304   -3.8224    4.2843 H   0  0  0  0  0  0  0  0  0  0  0  0
    0.9145   -5.5335    4.0735 H   0  0  0  0  0  0  0  0  0  0  0  0
    0.7865   -4.2916    2.8676 H   0  0  0  0  0  0  0  0  0  0  0  0
    1.8767   -7.1336    2.5322 H   0  0  0  0  0  0  0  0  0  0  0  0
    0.1236   -7.3922    1.3033 H   0  0  0  0  0  0  0  0  0  0  0  0
    2.4039   -6.6454    0.2089 H   0  0  0  0  0  0  0  0  0  0  0  0
    1.7957   -5.0236    0.3231 H   0  0  0  0  0  0  0  0  0  0  0  0
    4.1953   -6.1678    1.7974 H   0  0  0  0  0  0  0  0  0  0  0  0
    5.6063   -4.7279    0.5021 H   0  0  0  0  0  0  0  0  0  0  0  0
    4.7092   -5.7642   -0.5740 H   0  0  0  0  0  0  0  0  0  0  0  0
    3.1786   -3.9100   -1.1981 H   0  0  0  0  0  0  0  0  0  0  0  0
    5.8765   -2.2788    1.1358 H   0  0  0  0  0  0  0  0  0  0  0  0
    4.8703    0.0288    1.5253 H   0  0  0  0  0  0  0  0  0  0  0  0
    4.5343    0.1342   -0.2016 H   0  0  0  0  0  0  0  0  0  0  0  0
    6.1959    0.1311    0.3817 H   0  0  0  0  0  0  0  0  0  0  0  0
    3.1702   -1.8086   -0.2113 H   0  0  0  0  0  0  0  0  0  0  0  0
  1  2  1  0
  1 22  1  0
  1 23  1  0
  1 24  1  0
  2  3  1  0
  2  4  1  0
  2 25  1  1
  3 26  1  0
  4  5  2  3
  4 27  1  0
  5  6  1  0
  5 28  1  0
  6 21  1  0
  6  7  1  0
  6 29  1  6
  7 13  1  0
  7  8  1  0
  7 30  1  1
  8  9  1  0
  8 31  1  0
  8 32  1  0
  9 10  1  0
  9 33  1  0
  9 34  1  0
 10 11  1  0
 10 12  1  0
 10 35  1  1
 11 36  1  0
 12 13  1  0
 12 37  1  0
 12 38  1  0
 13 14  1  0
 13 39  1  1
 14 15  1  0
 14 40  1  0
 14 41  1  0
 15 21  1  0
 15 16  1  0
 15 42  1  6
 16 17  2  0
 16 18  1  0
 18 19  1  0
 19 20  1  0
 19 21  1  0
 19 43  1  1
 20 44  1  0
 20 45  1  0
 20 46  1  0
 21 47  1  6
M  END
>  <i_m_ct_stereo_status>  (302) 
1

>  <s_m_source_file>  (302) 
/var/tmp/pbs.5076255.sched01/tmpycp4azd_/132pnz8hy5b.sdf

>  <i_m_source_file_index>  (302) 
17

>  <i_lp_mmshare_version>  (302) 
48012

>  <i_f3d_flags>  (302) 
0

>  <s_epik_input>  (302) 
W0NIM11bQ0BIXShbT0hdKS9bQ0hdPVtDSF0vW0NASF0xW0NAQEhdKFtDQEhdKFtDSDNdKU9DMj1PKVtDQEBIXTJbQ0gyXVtDQEBIXShbQ0BASF0xMylbQ0gyXVtDQEhdKFtPSF0pW0NIMl1bQ0gyXTM=

>  <s_epik_cmdline>  (302) 
J2VwaWtfcHl0aG9uJywgJy1waHQnLCAnMi4wJywgJy1waCcsICc3LjAnLCAnLXRuJywgJzgnLCAnLW1hJywgJzIwMCcsICctaW1hZScsICc8aW5maWxlLm1hZT4nLCAnLW9tYWUnLCAnPG91dGZpbGUubWFlPic=

>  <r_lp_tautomer_probability>  (302) 
1

>  <r_epik_Ionization_Penalty>  (302) 
1.88527e-06

>  <r_epik_Ionization_Penalty_Charging>  (302) 
0

>  <r_epik_Ionization_Penalty_Neutral>  (302) 
1.88527e-06

>  <r_epik_State_Penalty>  (302) 
-0

>  <r_epik_Charging_Adjusted_Penalty>  (302) 
0

>  <i_epik_Tot_Q>  (302) 
0

>  <i_epik_Tot_abs_Q>  (302) 
0

>  <s_epik_Chemistry_Notes>  (302) 
This compound has an ester and may undergo hydrolysis at high or low pH.

>  <s_lp_Force_Field>  (302) 
OPLS3e

>  <r_lp_Energy>  (302) 
9.11308

>  <b_lp_Chiralities_Consistent>  (302) 
1

>  <s_lp_Variant>  (302) 
99:0-1

>  <s_i_glide_gridfile>  (302) 
pfpi4k_grid

>  <i_i_glide_lignum>  (302) 
17

>  <i_i_glide_rotatable_bonds>  (302) 
4

>  <r_i_docking_score>  (302) 
-3.6029

>  <r_i_glide_ligand_efficiency>  (302) 
-0.171567

>  <r_i_glide_ligand_efficiency_sa>  (302) 
-0.473339

>  <r_i_glide_ligand_efficiency_ln>  (302) 
-0.89081

>  <r_i_glide_gscore>  (302) 
-3.6029

>  <r_i_glide_lipo>  (302) 
-0.249095

>  <r_i_glide_hbond>  (302) 
-0.229782

>  <r_i_glide_metal>  (302) 
-0

>  <r_i_glide_rewards>  (302) 
-1.47239

>  <r_i_glide_evdw>  (302) 
-22.4017

>  <r_i_glide_ecoul>  (302) 
-6.35729

>  <r_i_glide_erotb>  (302) 
0.422044

>  <r_i_glide_esite>  (302) 
0

>  <r_i_glide_emodel>  (302) 
-34.7126

>  <r_i_glide_energy>  (302) 
-28.759

>  <r_i_glide_einternal>  (302) 
2.94526

>  <r_i_glide_intrahb_reward>  (302) 
-0

>  <i_i_glide_confnum>  (302) 
1

>  <i_i_glide_posenum>  (302) 
19

>  <r_i_glide_eff_state_penalty>  (302) 
0

>  <ligand_id>  (302) 
99

>  <original_smiles>  (302) 
CC(O)C=CC1C2CCC(O)CC2CC2C(=O)OC(C)C21

>  <smiles>  (302) 
[H]OC([H])(C([H])=C([H])C1([H])C2([H])C([H])(C([H])([H])[H])OC(=O)C2([H])C([H])([H])C2([H])C([H])([H])C([H])(O[H])C([H])([H])C([H])([H])C12[H])C([H])([H])[H]

$$$$
99:0:2
     RDKit          3D

 47 49  0  0  1  0  0  0  0  0999 V2000
    4.7660   -2.9593    1.4830 C   0  0  0  0  0  0  0  0  0  0  0  0
    3.3465   -2.6041    1.0381 C   0  0  2  0  0  0  0  0  0  0  0  0
    3.4157   -1.8332   -0.1433 O   0  0  0  0  0  0  0  0  0  0  0  0
    2.6977   -1.7637    2.1068 C   0  0  0  0  0  0  0  0  0  0  0  0
    1.5314   -2.0341    2.7137 C   0  0  0  0  0  0  0  0  0  0  0  0
    0.8393   -1.1370    3.7376 C   0  0  2  0  0  0  0  0  0  0  0  0
    1.4259    0.3077    3.8039 C   0  0  1  0  0  0  0  0  0  0  0  0
    1.3426    1.1121    2.4757 C   0  0  0  0  0  0  0  0  0  0  0  0
   -0.0822    1.5212    2.1099 C   0  0  0  0  0  0  0  0  0  0  0  0
   -0.7420    2.3145    3.2496 C   0  0  1  0  0  0  0  0  0  0  0  0
   -2.0840    2.5604    2.9264 O   0  0  0  0  0  0  0  0  0  0  0  0
   -0.6735    1.5613    4.5850 C   0  0  0  0  0  0  0  0  0  0  0  0
    0.7750    1.1450    4.9293 C   0  0  1  0  0  0  0  0  0  0  0  0
    0.9171    0.4198    6.2740 C   0  0  0  0  0  0  0  0  0  0  0  0
    0.2296   -0.9632    6.2690 C   0  0  2  0  0  0  0  0  0  0  0  0
    0.6773   -1.7657    7.4620 C   0  0  0  0  0  0  0  0  0  0  0  0
    0.1929   -1.6487    8.5891 O   0  0  0  0  0  0  0  0  0  0  0  0
    1.6403   -2.6033    7.0945 O   0  0  0  0  0  0  0  0  0  0  0  0
    1.9389   -2.5563    5.7072 C   0  0  1  0  0  0  0  0  0  0  0  0
    2.1833   -4.0036    5.2290 C   0  0  0  0  0  0  0  0  0  0  0  0
    0.6942   -1.8558    5.1162 C   0  0  2  0  0  0  0  0  0  0  0  0
    4.7507   -3.5088    2.4265 H   0  0  0  0  0  0  0  0  0  0  0  0
    5.3700   -2.0657    1.6468 H   0  0  0  0  0  0  0  0  0  0  0  0
    5.2717   -3.5746    0.7399 H   0  0  0  0  0  0  0  0  0  0  0  0
    2.7585   -3.5050    0.8540 H   0  0  0  0  0  0  0  0  0  0  0  0
    2.5365   -1.5270   -0.3583 H   0  0  0  0  0  0  0  0  0  0  0  0
    3.2669   -0.8823    2.3538 H   0  0  0  0  0  0  0  0  0  0  0  0
    1.0022   -2.9430    2.4708 H   0  0  0  0  0  0  0  0  0  0  0  0
   -0.1753   -1.0406    3.3587 H   0  0  0  0  0  0  0  0  0  0  0  0
    2.4713    0.2159    4.0877 H   0  0  0  0  0  0  0  0  0  0  0  0
    1.9459    2.0146    2.5843 H   0  0  0  0  0  0  0  0  0  0  0  0
    1.7439    0.5850    1.6108 H   0  0  0  0  0  0  0  0  0  0  0  0
   -0.0479    2.1389    1.2136 H   0  0  0  0  0  0  0  0  0  0  0  0
   -0.6761    0.6449    1.8459 H   0  0  0  0  0  0  0  0  0  0  0  0
   -0.2298    3.2733    3.3415 H   0  0  0  0  0  0  0  0  0  0  0  0
   -2.0933    2.9726    2.0639 H   0  0  0  0  0  0  0  0  0  0  0  0
   -1.0728    2.2012    5.3765 H   0  0  0  0  0  0  0  0  0  0  0  0
   -1.3188    0.6825    4.5408 H   0  0  0  0  0  0  0  0  0  0  0  0
    1.3534    2.0704    5.0125 H   0  0  0  0  0  0  0  0  0  0  0  0
    1.9855    0.2935    6.4827 H   0  0  0  0  0  0  0  0  0  0  0  0
    0.5369    1.0482    7.0856 H   0  0  0  0  0  0  0  0  0  0  0  0
   -0.8583   -0.8448    6.2691 H   0  0  0  0  0  0  0  0  0  0  0  0
    2.8362   -1.9513    5.5723 H   0  0  0  0  0  0  0  0  0  0  0  0
    2.4993   -4.0457    4.1864 H   0  0  0  0  0  0  0  0  0  0  0  0
    1.2896   -4.6198    5.3331 H   0  0  0  0  0  0  0  0  0  0  0  0
    2.9718   -4.4697    5.8173 H   0  0  0  0  0  0  0  0  0  0  0  0
   -0.0782   -2.6214    4.9968 H   0  0  0  0  0  0  0  0  0  0  0  0
  1  2  1  0
  1 22  1  0
  1 23  1  0
  1 24  1  0
  2  3  1  0
  2  4  1  0
  2 25  1  6
  3 26  1  0
  4  5  2  3
  4 27  1  0
  5  6  1  0
  5 28  1  0
  6 21  1  0
  6  7  1  0
  6 29  1  6
  7 13  1  0
  7  8  1  0
  7 30  1  1
  8  9  1  0
  8 31  1  0
  8 32  1  0
  9 10  1  0
  9 33  1  0
  9 34  1  0
 10 11  1  0
 10 12  1  0
 10 35  1  1
 11 36  1  0
 12 13  1  0
 12 37  1  0
 12 38  1  0
 13 14  1  0
 13 39  1  1
 14 15  1  0
 14 40  1  0
 14 41  1  0
 15 21  1  0
 15 16  1  0
 15 42  1  1
 16 17  2  0
 16 18  1  0
 18 19  1  0
 19 20  1  0
 19 21  1  0
 19 43  1  1
 20 44  1  0
 20 45  1  0
 20 46  1  0
 21 47  1  6
M  END
>  <i_m_ct_stereo_status>  (303) 
1

>  <s_m_source_file>  (303) 
/var/tmp/pbs.5076255.sched01/tmpycp4azd_/132pnz8hy5b.sdf

>  <i_m_source_file_index>  (303) 
17

>  <i_lp_mmshare_version>  (303) 
48012

>  <i_f3d_flags>  (303) 
0

>  <s_epik_input>  (303) 
W0NIM11bQ0BIXShbT0hdKS9bQ0hdPVtDSF0vW0NASF0xW0NAQEhdKFtDQEhdKFtDSDNdKU9DMj1PKVtDQEBIXTJbQ0gyXVtDQEBIXShbQ0BASF0xMylbQ0gyXVtDQEhdKFtPSF0pW0NIMl1bQ0gyXTM=

>  <s_epik_cmdline>  (303) 
J2VwaWtfcHl0aG9uJywgJy1waHQnLCAnMi4wJywgJy1waCcsICc3LjAnLCAnLXRuJywgJzgnLCAnLW1hJywgJzIwMCcsICctaW1hZScsICc8aW5maWxlLm1hZT4nLCAnLW9tYWUnLCAnPG91dGZpbGUubWFlPic=

>  <r_lp_tautomer_probability>  (303) 
1

>  <r_epik_Ionization_Penalty>  (303) 
1.88527e-06

>  <r_epik_Ionization_Penalty_Charging>  (303) 
0

>  <r_epik_Ionization_Penalty_Neutral>  (303) 
1.88527e-06

>  <r_epik_State_Penalty>  (303) 
-0

>  <r_epik_Charging_Adjusted_Penalty>  (303) 
0

>  <i_epik_Tot_Q>  (303) 
0

>  <i_epik_Tot_abs_Q>  (303) 
0

>  <s_epik_Chemistry_Notes>  (303) 
This compound has an ester and may undergo hydrolysis at high or low pH.

>  <s_lp_Force_Field>  (303) 
OPLS3e

>  <r_lp_Energy>  (303) 
9.11308

>  <b_lp_Chiralities_Consistent>  (303) 
1

>  <s_lp_Variant>  (303) 
99:0-1

>  <s_i_glide_gridfile>  (303) 
pfpi4k_grid

>  <i_i_glide_lignum>  (303) 
17

>  <i_i_glide_rotatable_bonds>  (303) 
4

>  <r_i_docking_score>  (303) 
-2.94346

>  <r_i_glide_ligand_efficiency>  (303) 
-0.140165

>  <r_i_glide_ligand_efficiency_sa>  (303) 
-0.386704

>  <r_i_glide_ligand_efficiency_ln>  (303) 
-0.727765

>  <r_i_glide_gscore>  (303) 
-2.94346

>  <r_i_glide_lipo>  (303) 
-0.0274325

>  <r_i_glide_hbond>  (303) 
-0.268602

>  <r_i_glide_metal>  (303) 
-0

>  <r_i_glide_rewards>  (303) 
-1.40191

>  <r_i_glide_evdw>  (303) 
-18.1479

>  <r_i_glide_ecoul>  (303) 
-4.88761

>  <r_i_glide_erotb>  (303) 
0.422044

>  <r_i_glide_esite>  (303) 
-0.0270196

>  <r_i_glide_emodel>  (303) 
-26.9301

>  <r_i_glide_energy>  (303) 
-23.0355

>  <r_i_glide_einternal>  (303) 
4.39316

>  <r_i_glide_intrahb_reward>  (303) 
-0

>  <i_i_glide_confnum>  (303) 
4

>  <i_i_glide_posenum>  (303) 
4

>  <r_i_glide_eff_state_penalty>  (303) 
0

>  <ligand_id>  (303) 
99

>  <original_smiles>  (303) 
CC(O)C=CC1C2CCC(O)CC2CC2C(=O)OC(C)C21

>  <smiles>  (303) 
[H]OC([H])(C([H])=C([H])C1([H])C2([H])C([H])(C([H])([H])[H])OC(=O)C2([H])C([H])([H])C2([H])C([H])([H])C([H])(O[H])C([H])([H])C([H])([H])C12[H])C([H])([H])[H]

$$$$
99:1:0
     RDKit          3D

 47 49  0  0  1  0  0  0  0  0999 V2000
    2.9117   -2.8068   -1.9418 C   0  0  0  0  0  0  0  0  0  0  0  0
    4.3472   -2.9314   -2.4464 C   0  0  2  0  0  0  0  0  0  0  0  0
    4.3187   -3.8548   -3.5122 O   0  0  0  0  0  0  0  0  0  0  0  0
    5.4092   -3.3743   -1.4256 C   0  0  0  0  0  0  0  0  0  0  0  0
    5.3385   -3.5935   -0.0882 C   0  0  0  0  0  0  0  0  0  0  0  0
    4.1179   -3.4174    0.8304 C   0  0  2  0  0  0  0  0  0  0  0  0
    4.4647   -2.5392    2.0641 C   0  0  1  0  0  0  0  0  0  0  0  0
    4.9175   -1.1018    1.6668 C   0  0  0  0  0  0  0  0  0  0  0  0
    3.8060   -0.1992    1.0776 C   0  0  0  0  0  0  0  0  0  0  0  0
    2.5524   -0.1585    1.9638 C   0  0  1  0  0  0  0  0  0  0  0  0
    1.5119    0.5324    1.2854 O   0  0  0  0  0  0  0  0  0  0  0  0
    2.0737   -1.5604    2.3709 C   0  0  0  0  0  0  0  0  0  0  0  0
    3.2231   -2.4149    2.9823 C   0  0  1  0  0  0  0  0  0  0  0  0
    2.7890   -3.8227    3.4199 C   0  0  0  0  0  0  0  0  0  0  0  0
    2.3832   -4.7134    2.2265 C   0  0  2  0  0  0  0  0  0  0  0  0
    2.2630   -6.1718    2.6295 C   0  0  0  0  0  0  0  0  0  0  0  0
    1.2645   -6.6458    3.1585 O   0  0  0  0  0  0  0  0  0  0  0  0
    3.3842   -6.8219    2.2939 O   0  0  0  0  0  0  0  0  0  0  0  0
    4.3268   -5.9827    1.6243 C   0  0  1  0  0  0  0  0  0  0  0  0
    4.9708   -6.7980    0.4820 C   0  0  0  0  0  0  0  0  0  0  0  0
    3.4667   -4.8007    1.1602 C   0  0  2  0  0  0  0  0  0  0  0  0
    2.8626   -2.0098   -1.2096 H   0  0  0  0  0  0  0  0  0  0  0  0
    2.5959   -3.7302   -1.4539 H   0  0  0  0  0  0  0  0  0  0  0  0
    2.1725   -2.5896   -2.7244 H   0  0  0  0  0  0  0  0  0  0  0  0
    4.6672   -1.9614   -2.8338 H   0  0  0  0  0  0  0  0  0  0  0  0
    3.8831   -4.6367   -3.1785 H   0  0  0  0  0  0  0  0  0  0  0  0
    6.3772   -3.5305   -1.8768 H   0  0  0  0  0  0  0  0  0  0  0  0
    6.2528   -3.9191    0.3894 H   0  0  0  0  0  0  0  0  0  0  0  0
    3.3305   -2.8641    0.3844 H   0  0  0  0  0  0  0  0  0  0  0  0
    5.2835   -2.9944    2.6299 H   0  0  0  0  0  0  0  0  0  0  0  0
    5.2929   -0.6033    2.5653 H   0  0  0  0  0  0  0  0  0  0  0  0
    5.7630   -1.1261    0.9760 H   0  0  0  0  0  0  0  0  0  0  0  0
    4.1830    0.8139    0.9366 H   0  0  0  0  0  0  0  0  0  0  0  0
    3.5515   -0.5318    0.0779 H   0  0  0  0  0  0  0  0  0  0  0  0
    2.7788    0.4151    2.8667 H   0  0  0  0  0  0  0  0  0  0  0  0
    1.2015    0.0149    0.5451 H   0  0  0  0  0  0  0  0  0  0  0  0
    1.2606   -1.4696    3.0966 H   0  0  0  0  0  0  0  0  0  0  0  0
    1.6266   -2.0597    1.5055 H   0  0  0  0  0  0  0  0  0  0  0  0
    3.5483   -1.8863    3.8840 H   0  0  0  0  0  0  0  0  0  0  0  0
    3.6286   -4.2906    3.9329 H   0  0  0  0  0  0  0  0  0  0  0  0
    1.9807   -3.7639    4.1472 H   0  0  0  0  0  0  0  0  0  0  0  0
    1.4347   -4.3708    1.8079 H   0  0  0  0  0  0  0  0  0  0  0  0
    5.0843   -5.6379    2.3293 H   0  0  0  0  0  0  0  0  0  0  0  0
    5.7603   -6.2386   -0.0169 H   0  0  0  0  0  0  0  0  0  0  0  0
    4.2429   -7.0968   -0.2679 H   0  0  0  0  0  0  0  0  0  0  0  0
    5.4197   -7.7065    0.8889 H   0  0  0  0  0  0  0  0  0  0  0  0
    2.9659   -5.1299    0.2488 H   0  0  0  0  0  0  0  0  0  0  0  0
  1  2  1  0
  1 22  1  0
  1 23  1  0
  1 24  1  0
  2  3  1  0
  2  4  1  0
  2 25  1  6
  3 26  1  0
  4  5  2  3
  4 27  1  0
  5  6  1  0
  5 28  1  0
  6 21  1  0
  6  7  1  0
  6 29  1  6
  7 13  1  0
  7  8  1  0
  7 30  1  1
  8  9  1  0
  8 31  1  0
  8 32  1  0
  9 10  1  0
  9 33  1  0
  9 34  1  0
 10 11  1  0
 10 12  1  0
 10 35  1  1
 11 36  1  0
 12 13  1  0
 12 37  1  0
 12 38  1  0
 13 14  1  0
 13 39  1  1
 14 15  1  0
 14 40  1  0
 14 41  1  0
 15 21  1  0
 15 16  1  0
 15 42  1  6
 16 17  2  0
 16 18  1  0
 18 19  1  0
 19 20  1  0
 19 21  1  0
 19 43  1  1
 20 44  1  0
 20 45  1  0
 20 46  1  0
 21 47  1  6
M  END
>  <i_m_ct_stereo_status>  (304) 
1

>  <s_m_source_file>  (304) 
/var/tmp/pbs.5076255.sched01/tmpycp4azd_/132pnz8hy5b.sdf

>  <i_m_source_file_index>  (304) 
18

>  <i_lp_mmshare_version>  (304) 
48012

>  <i_f3d_flags>  (304) 
0

>  <s_epik_input>  (304) 
W0NIM11bQ0BIXShbT0hdKS9bQ0hdPVtDSF0vW0NASF0xW0NAQEhdKFtDQEhdKFtDSDNdKU9DMj1PKVtDQEBIXTJbQ0gyXVtDQEBIXShbQ0BASF0xMylbQ0gyXVtDQEhdKFtPSF0pW0NIMl1bQ0gyXTM=

>  <s_epik_cmdline>  (304) 
J2VwaWtfcHl0aG9uJywgJy1waHQnLCAnMi4wJywgJy1waCcsICc3LjAnLCAnLXRuJywgJzgnLCAnLW1hJywgJzIwMCcsICctaW1hZScsICc8aW5maWxlLm1hZT4nLCAnLW9tYWUnLCAnPG91dGZpbGUubWFlPic=

>  <r_lp_tautomer_probability>  (304) 
1

>  <r_epik_Ionization_Penalty>  (304) 
1.88527e-06

>  <r_epik_Ionization_Penalty_Charging>  (304) 
0

>  <r_epik_Ionization_Penalty_Neutral>  (304) 
1.88527e-06

>  <r_epik_State_Penalty>  (304) 
-0

>  <r_epik_Charging_Adjusted_Penalty>  (304) 
0

>  <i_epik_Tot_Q>  (304) 
0

>  <i_epik_Tot_abs_Q>  (304) 
0

>  <s_epik_Chemistry_Notes>  (304) 
This compound has an ester and may undergo hydrolysis at high or low pH.

>  <s_lp_Force_Field>  (304) 
OPLS3e

>  <r_lp_Energy>  (304) 
10.36

>  <b_lp_Chiralities_Consistent>  (304) 
1

>  <s_lp_Variant>  (304) 
99:0-2

>  <s_i_glide_gridfile>  (304) 
pfpi4k_grid

>  <i_i_glide_lignum>  (304) 
18

>  <i_i_glide_rotatable_bonds>  (304) 
4

>  <r_i_docking_score>  (304) 
-4.29928

>  <r_i_glide_ligand_efficiency>  (304) 
-0.204728

>  <r_i_glide_ligand_efficiency_sa>  (304) 
-0.564829

>  <r_i_glide_ligand_efficiency_ln>  (304) 
-1.06299

>  <r_i_glide_gscore>  (304) 
-4.29928

>  <r_i_glide_lipo>  (304) 
-0.469123

>  <r_i_glide_hbond>  (304) 
-0.456

>  <r_i_glide_metal>  (304) 
-0

>  <r_i_glide_rewards>  (304) 
-1.40191

>  <r_i_glide_evdw>  (304) 
-22.0106

>  <r_i_glide_ecoul>  (304) 
-8.57001

>  <r_i_glide_erotb>  (304) 
0.422044

>  <r_i_glide_esite>  (304) 
-0.00826071

>  <r_i_glide_emodel>  (304) 
-37.7684

>  <r_i_glide_energy>  (304) 
-30.5806

>  <r_i_glide_einternal>  (304) 
0.834953

>  <r_i_glide_intrahb_reward>  (304) 
-0

>  <i_i_glide_confnum>  (304) 
3

>  <i_i_glide_posenum>  (304) 
28

>  <r_i_glide_eff_state_penalty>  (304) 
0

>  <ligand_id>  (304) 
99

>  <original_smiles>  (304) 
CC(O)C=CC1C2CCC(O)CC2CC2C(=O)OC(C)C21

>  <smiles>  (304) 
[H]OC([H])(C([H])=C([H])C1([H])C2([H])C([H])(C([H])([H])[H])OC(=O)C2([H])C([H])([H])C2([H])C([H])([H])C([H])(O[H])C([H])([H])C([H])([H])C12[H])C([H])([H])[H]

$$$$
99:1:1
     RDKit          3D

 47 49  0  0  1  0  0  0  0  0999 V2000
    4.1050   -1.5845   -2.7399 C   0  0  0  0  0  0  0  0  0  0  0  0
    4.0924   -3.0828   -2.4348 C   0  0  2  0  0  0  0  0  0  0  0  0
    2.8067   -3.4569   -1.9734 O   0  0  0  0  0  0  0  0  0  0  0  0
    5.2148   -3.4764   -1.4830 C   0  0  0  0  0  0  0  0  0  0  0  0
    5.2304   -3.6367   -0.1409 C   0  0  0  0  0  0  0  0  0  0  0  0
    4.0952   -3.4121    0.8381 C   0  0  2  0  0  0  0  0  0  0  0  0
    4.5097   -2.4533    1.9921 C   0  0  1  0  0  0  0  0  0  0  0  0
    4.9400   -1.0495    1.5211 C   0  0  0  0  0  0  0  0  0  0  0  0
    3.7640   -0.2011    0.9904 C   0  0  0  0  0  0  0  0  0  0  0  0
    2.5943   -0.0905    1.9690 C   0  0  1  0  0  0  0  0  0  0  0  0
    1.5080    0.5437    1.3144 O   0  0  0  0  0  0  0  0  0  0  0  0
    2.1601   -1.4805    2.4558 C   0  0  0  0  0  0  0  0  0  0  0  0
    3.3550   -2.2960    3.0162 C   0  0  1  0  0  0  0  0  0  0  0  0
    2.9551   -3.6790    3.5580 C   0  0  0  0  0  0  0  0  0  0  0  0
    2.4668   -4.6270    2.4477 C   0  0  2  0  0  0  0  0  0  0  0  0
    2.4011   -6.0440    2.9560 C   0  0  0  0  0  0  0  0  0  0  0  0
    1.4660   -6.4957    3.5903 O   0  0  0  0  0  0  0  0  0  0  0  0
    3.5180   -6.6951    2.5785 O   0  0  0  0  0  0  0  0  0  0  0  0
    4.3875   -5.9014    1.7738 C   0  0  1  0  0  0  0  0  0  0  0  0
    4.9565   -6.8033    0.6682 C   0  0  0  0  0  0  0  0  0  0  0  0
    3.4665   -4.7622    1.2979 C   0  0  2  0  0  0  0  0  0  0  0  0
    5.0116   -1.2815   -3.2507 H   0  0  0  0  0  0  0  0  0  0  0  0
    4.0589   -0.9822   -1.8274 H   0  0  0  0  0  0  0  0  0  0  0  0
    3.2595   -1.2953   -3.3616 H   0  0  0  0  0  0  0  0  0  0  0  0
    4.2615   -3.6421   -3.3494 H   0  0  0  0  0  0  0  0  0  0  0  0
    2.7583   -4.4074   -2.0141 H   0  0  0  0  0  0  0  0  0  0  0  0
    6.1463   -3.6667   -1.9886 H   0  0  0  0  0  0  0  0  0  0  0  0
    6.1572   -3.9557    0.3079 H   0  0  0  0  0  0  0  0  0  0  0  0
    3.3123   -2.8786    0.3089 H   0  0  0  0  0  0  0  0  0  0  0  0
    5.3619   -2.9075    2.5094 H   0  0  0  0  0  0  0  0  0  0  0  0
    5.3860   -0.5236    2.3551 H   0  0  0  0  0  0  0  0  0  0  0  0
    5.7184   -1.1161    0.7643 H   0  0  0  0  0  0  0  0  0  0  0  0
    4.1235    0.7928    0.7260 H   0  0  0  0  0  0  0  0  0  0  0  0
    3.3543   -0.6445    0.0754 H   0  0  0  0  0  0  0  0  0  0  0  0
    2.8904    0.5176    2.8187 H   0  0  0  0  0  0  0  0  0  0  0  0
    1.2096    0.0121    0.5828 H   0  0  0  0  0  0  0  0  0  0  0  0
    1.4006   -1.3617    3.2295 H   0  0  0  0  0  0  0  0  0  0  0  0
    1.6736   -2.0315    1.6410 H   0  0  0  0  0  0  0  0  0  0  0  0
    3.7459   -1.7250    3.8627 H   0  0  0  0  0  0  0  0  0  0  0  0
    3.8314   -4.1140    4.0487 H   0  0  0  0  0  0  0  0  0  0  0  0
    2.2027   -3.5734    4.3438 H   0  0  0  0  0  0  0  0  0  0  0  0
    1.4839   -4.3254    2.0865 H   0  0  0  0  0  0  0  0  0  0  0  0
    5.1902   -5.5273    2.4117 H   0  0  0  0  0  0  0  0  0  0  0  0
    5.7118   -6.2823    0.0766 H   0  0  0  0  0  0  0  0  0  0  0  0
    4.1855   -7.1595   -0.0131 H   0  0  0  0  0  0  0  0  0  0  0  0
    5.4354   -7.6846    1.0967 H   0  0  0  0  0  0  0  0  0  0  0  0
    2.9040   -5.1376    0.4427 H   0  0  0  0  0  0  0  0  0  0  0  0
  1  2  1  0
  1 22  1  0
  1 23  1  0
  1 24  1  0
  2  3  1  0
  2  4  1  0
  2 25  1  6
  3 26  1  0
  4  5  2  3
  4 27  1  0
  5  6  1  0
  5 28  1  0
  6 21  1  0
  6  7  1  0
  6 29  1  6
  7 13  1  0
  7  8  1  0
  7 30  1  1
  8  9  1  0
  8 31  1  0
  8 32  1  0
  9 10  1  0
  9 33  1  0
  9 34  1  0
 10 11  1  0
 10 12  1  0
 10 35  1  1
 11 36  1  0
 12 13  1  0
 12 37  1  0
 12 38  1  0
 13 14  1  0
 13 39  1  1
 14 15  1  0
 14 40  1  0
 14 41  1  0
 15 21  1  0
 15 16  1  0
 15 42  1  6
 16 17  2  0
 16 18  1  0
 18 19  1  0
 19 20  1  0
 19 21  1  0
 19 43  1  1
 20 44  1  0
 20 45  1  0
 20 46  1  0
 21 47  1  6
M  END
>  <i_m_ct_stereo_status>  (305) 
1

>  <s_m_source_file>  (305) 
/var/tmp/pbs.5076255.sched01/tmpycp4azd_/132pnz8hy5b.sdf

>  <i_m_source_file_index>  (305) 
18

>  <i_lp_mmshare_version>  (305) 
48012

>  <i_f3d_flags>  (305) 
0

>  <s_epik_input>  (305) 
W0NIM11bQ0BIXShbT0hdKS9bQ0hdPVtDSF0vW0NASF0xW0NAQEhdKFtDQEhdKFtDSDNdKU9DMj1PKVtDQEBIXTJbQ0gyXVtDQEBIXShbQ0BASF0xMylbQ0gyXVtDQEhdKFtPSF0pW0NIMl1bQ0gyXTM=

>  <s_epik_cmdline>  (305) 
J2VwaWtfcHl0aG9uJywgJy1waHQnLCAnMi4wJywgJy1waCcsICc3LjAnLCAnLXRuJywgJzgnLCAnLW1hJywgJzIwMCcsICctaW1hZScsICc8aW5maWxlLm1hZT4nLCAnLW9tYWUnLCAnPG91dGZpbGUubWFlPic=

>  <r_lp_tautomer_probability>  (305) 
1

>  <r_epik_Ionization_Penalty>  (305) 
1.88527e-06

>  <r_epik_Ionization_Penalty_Charging>  (305) 
0

>  <r_epik_Ionization_Penalty_Neutral>  (305) 
1.88527e-06

>  <r_epik_State_Penalty>  (305) 
-0

>  <r_epik_Charging_Adjusted_Penalty>  (305) 
0

>  <i_epik_Tot_Q>  (305) 
0

>  <i_epik_Tot_abs_Q>  (305) 
0

>  <s_epik_Chemistry_Notes>  (305) 
This compound has an ester and may undergo hydrolysis at high or low pH.

>  <s_lp_Force_Field>  (305) 
OPLS3e

>  <r_lp_Energy>  (305) 
10.36

>  <b_lp_Chiralities_Consistent>  (305) 
1

>  <s_lp_Variant>  (305) 
99:0-2

>  <s_i_glide_gridfile>  (305) 
pfpi4k_grid

>  <i_i_glide_lignum>  (305) 
18

>  <i_i_glide_rotatable_bonds>  (305) 
4

>  <r_i_docking_score>  (305) 
-3.87158

>  <r_i_glide_ligand_efficiency>  (305) 
-0.184361

>  <r_i_glide_ligand_efficiency_sa>  (305) 
-0.508638

>  <r_i_glide_ligand_efficiency_ln>  (305) 
-0.95724

>  <r_i_glide_gscore>  (305) 
-3.87158

>  <r_i_glide_lipo>  (305) 
-0.413921

>  <r_i_glide_hbond>  (305) 
-0.456

>  <r_i_glide_metal>  (305) 
-0

>  <r_i_glide_rewards>  (305) 
-1.40191

>  <r_i_glide_evdw>  (305) 
-22.2047

>  <r_i_glide_ecoul>  (305) 
-6.04792

>  <r_i_glide_erotb>  (305) 
0.422044

>  <r_i_glide_esite>  (305) 
-0.00436335

>  <r_i_glide_emodel>  (305) 
-33.8469

>  <r_i_glide_energy>  (305) 
-28.2526

>  <r_i_glide_einternal>  (305) 
3.20507

>  <r_i_glide_intrahb_reward>  (305) 
-0

>  <i_i_glide_confnum>  (305) 
4

>  <i_i_glide_posenum>  (305) 
7

>  <r_i_glide_eff_state_penalty>  (305) 
0

>  <ligand_id>  (305) 
99

>  <original_smiles>  (305) 
CC(O)C=CC1C2CCC(O)CC2CC2C(=O)OC(C)C21

>  <smiles>  (305) 
[H]OC([H])(C([H])=C([H])C1([H])C2([H])C([H])(C([H])([H])[H])OC(=O)C2([H])C([H])([H])C2([H])C([H])([H])C([H])(O[H])C([H])([H])C([H])([H])C12[H])C([H])([H])[H]

$$$$
99:1:2
     RDKit          3D

 47 49  0  0  1  0  0  0  0  0999 V2000
    3.3781   -2.9049   -3.5245 C   0  0  0  0  0  0  0  0  0  0  0  0
    3.9152   -2.1503   -2.3041 C   0  0  2  0  0  0  0  0  0  0  0  0
    4.4553   -0.9229   -2.7419 O   0  0  0  0  0  0  0  0  0  0  0  0
    4.9971   -2.9406   -1.5844 C   0  0  0  0  0  0  0  0  0  0  0  0
    5.0179   -3.3427   -0.3024 C   0  0  0  0  0  0  0  0  0  0  0  0
    3.9587   -3.1286    0.7728 C   0  0  2  0  0  0  0  0  0  0  0  0
    4.5142   -2.2575    1.9339 C   0  0  1  0  0  0  0  0  0  0  0  0
    4.9801   -0.8502    1.4966 C   0  0  0  0  0  0  0  0  0  0  0  0
    3.8071    0.0566    1.0979 C   0  0  0  0  0  0  0  0  0  0  0  0
    2.7478    0.1666    2.2072 C   0  0  1  0  0  0  0  0  0  0  0  0
    1.6543    0.8956    1.6938 O   0  0  0  0  0  0  0  0  0  0  0  0
    2.2851   -1.2192    2.6832 C   0  0  0  0  0  0  0  0  0  0  0  0
    3.4889   -2.1092    3.0829 C   0  0  1  0  0  0  0  0  0  0  0  0
    3.0861   -3.4978    3.5976 C   0  0  0  0  0  0  0  0  0  0  0  0
    2.4474   -4.3550    2.4864 C   0  0  2  0  0  0  0  0  0  0  0  0
    2.3763   -5.7996    2.9270 C   0  0  0  0  0  0  0  0  0  0  0  0
    1.4776   -6.2521    3.6319 O   0  0  0  0  0  0  0  0  0  0  0  0
    3.4132   -6.4611    2.4208 O   0  0  0  0  0  0  0  0  0  0  0  0
    4.2428   -5.6734    1.5784 C   0  0  1  0  0  0  0  0  0  0  0  0
    4.6665   -6.5406    0.3795 C   0  0  0  0  0  0  0  0  0  0  0  0
    3.3238   -4.4747    1.2358 C   0  0  2  0  0  0  0  0  0  0  0  0
    2.9260   -3.8524   -3.2282 H   0  0  0  0  0  0  0  0  0  0  0  0
    4.1710   -3.1232   -4.2410 H   0  0  0  0  0  0  0  0  0  0  0  0
    2.6106   -2.3221   -4.0359 H   0  0  0  0  0  0  0  0  0  0  0  0
    3.0832   -1.9195   -1.6418 H   0  0  0  0  0  0  0  0  0  0  0  0
    3.7418   -0.3055   -2.8306 H   0  0  0  0  0  0  0  0  0  0  0  0
    5.8471   -3.2030   -2.1983 H   0  0  0  0  0  0  0  0  0  0  0  0
    5.8917   -3.8799    0.0359 H   0  0  0  0  0  0  0  0  0  0  0  0
    3.1346   -2.5730    0.3350 H   0  0  0  0  0  0  0  0  0  0  0  0
    5.3897   -2.7691    2.3371 H   0  0  0  0  0  0  0  0  0  0  0  0
    5.5072   -0.3807    2.3272 H   0  0  0  0  0  0  0  0  0  0  0  0
    5.6975   -0.9060    0.6792 H   0  0  0  0  0  0  0  0  0  0  0  0
    4.1927    1.0472    0.8707 H   0  0  0  0  0  0  0  0  0  0  0  0
    3.3453   -0.3018    0.1766 H   0  0  0  0  0  0  0  0  0  0  0  0
    3.1641    0.7179    3.0505 H   0  0  0  0  0  0  0  0  0  0  0  0
    1.0235    1.0568    2.3775 H   0  0  0  0  0  0  0  0  0  0  0  0
    1.6128   -1.1078    3.5335 H   0  0  0  0  0  0  0  0  0  0  0  0
    1.7023   -1.6971    1.8965 H   0  0  0  0  0  0  0  0  0  0  0  0
    3.9887   -1.6026    3.9118 H   0  0  0  0  0  0  0  0  0  0  0  0
    3.9850   -3.9953    3.9798 H   0  0  0  0  0  0  0  0  0  0  0  0
    2.4111   -3.4035    4.4525 H   0  0  0  0  0  0  0  0  0  0  0  0
    1.4472   -3.9993    2.2475 H   0  0  0  0  0  0  0  0  0  0  0  0
    5.1178   -5.3586    2.1507 H   0  0  0  0  0  0  0  0  0  0  0  0
    5.3805   -6.0404   -0.2757 H   0  0  0  0  0  0  0  0  0  0  0  0
    3.8176   -6.8192   -0.2405 H   0  0  0  0  0  0  0  0  0  0  0  0
    5.1371   -7.4637    0.7202 H   0  0  0  0  0  0  0  0  0  0  0  0
    2.6657   -4.7949    0.4244 H   0  0  0  0  0  0  0  0  0  0  0  0
  1  2  1  0
  1 22  1  0
  1 23  1  0
  1 24  1  0
  2  3  1  0
  2  4  1  0
  2 25  1  1
  3 26  1  0
  4  5  2  3
  4 27  1  0
  5  6  1  0
  5 28  1  0
  6 21  1  0
  6  7  1  0
  6 29  1  6
  7 13  1  0
  7  8  1  0
  7 30  1  1
  8  9  1  0
  8 31  1  0
  8 32  1  0
  9 10  1  0
  9 33  1  0
  9 34  1  0
 10 11  1  0
 10 12  1  0
 10 35  1  1
 11 36  1  0
 12 13  1  0
 12 37  1  0
 12 38  1  0
 13 14  1  0
 13 39  1  1
 14 15  1  0
 14 40  1  0
 14 41  1  0
 15 21  1  0
 15 16  1  0
 15 42  1  6
 16 17  2  0
 16 18  1  0
 18 19  1  0
 19 20  1  0
 19 21  1  0
 19 43  1  1
 20 44  1  0
 20 45  1  0
 20 46  1  0
 21 47  1  6
M  END
>  <i_m_ct_stereo_status>  (306) 
1

>  <s_m_source_file>  (306) 
/var/tmp/pbs.5076255.sched01/tmpycp4azd_/132pnz8hy5b.sdf

>  <i_m_source_file_index>  (306) 
18

>  <i_lp_mmshare_version>  (306) 
48012

>  <i_f3d_flags>  (306) 
0

>  <s_epik_input>  (306) 
W0NIM11bQ0BIXShbT0hdKS9bQ0hdPVtDSF0vW0NASF0xW0NAQEhdKFtDQEhdKFtDSDNdKU9DMj1PKVtDQEBIXTJbQ0gyXVtDQEBIXShbQ0BASF0xMylbQ0gyXVtDQEhdKFtPSF0pW0NIMl1bQ0gyXTM=

>  <s_epik_cmdline>  (306) 
J2VwaWtfcHl0aG9uJywgJy1waHQnLCAnMi4wJywgJy1waCcsICc3LjAnLCAnLXRuJywgJzgnLCAnLW1hJywgJzIwMCcsICctaW1hZScsICc8aW5maWxlLm1hZT4nLCAnLW9tYWUnLCAnPG91dGZpbGUubWFlPic=

>  <r_lp_tautomer_probability>  (306) 
1

>  <r_epik_Ionization_Penalty>  (306) 
1.88527e-06

>  <r_epik_Ionization_Penalty_Charging>  (306) 
0

>  <r_epik_Ionization_Penalty_Neutral>  (306) 
1.88527e-06

>  <r_epik_State_Penalty>  (306) 
-0

>  <r_epik_Charging_Adjusted_Penalty>  (306) 
0

>  <i_epik_Tot_Q>  (306) 
0

>  <i_epik_Tot_abs_Q>  (306) 
0

>  <s_epik_Chemistry_Notes>  (306) 
This compound has an ester and may undergo hydrolysis at high or low pH.

>  <s_lp_Force_Field>  (306) 
OPLS3e

>  <r_lp_Energy>  (306) 
10.36

>  <b_lp_Chiralities_Consistent>  (306) 
1

>  <s_lp_Variant>  (306) 
99:0-2

>  <s_i_glide_gridfile>  (306) 
pfpi4k_grid

>  <i_i_glide_lignum>  (306) 
18

>  <i_i_glide_rotatable_bonds>  (306) 
4

>  <r_i_docking_score>  (306) 
-3.13725

>  <r_i_glide_ligand_efficiency>  (306) 
-0.149393

>  <r_i_glide_ligand_efficiency_sa>  (306) 
-0.412164

>  <r_i_glide_ligand_efficiency_ln>  (306) 
-0.775679

>  <r_i_glide_gscore>  (306) 
-3.13725

>  <r_i_glide_lipo>  (306) 
-0.611522

>  <r_i_glide_hbond>  (306) 
0

>  <r_i_glide_metal>  (306) 
-0

>  <r_i_glide_rewards>  (306) 
-1.40191

>  <r_i_glide_evdw>  (306) 
-24.8577

>  <r_i_glide_ecoul>  (306) 
-1.98654

>  <r_i_glide_erotb>  (306) 
0.422044

>  <r_i_glide_esite>  (306) 
-0.00498999

>  <r_i_glide_emodel>  (306) 
-32.2618

>  <r_i_glide_energy>  (306) 
-26.8443

>  <r_i_glide_einternal>  (306) 
1.01594

>  <r_i_glide_intrahb_reward>  (306) 
-0

>  <i_i_glide_confnum>  (306) 
3

>  <i_i_glide_posenum>  (306) 
15

>  <r_i_glide_eff_state_penalty>  (306) 
0

>  <ligand_id>  (306) 
99

>  <original_smiles>  (306) 
CC(O)C=CC1C2CCC(O)CC2CC2C(=O)OC(C)C21

>  <smiles>  (306) 
[H]OC([H])(C([H])=C([H])C1([H])C2([H])C([H])(C([H])([H])[H])OC(=O)C2([H])C([H])([H])C2([H])C([H])([H])C([H])(O[H])C([H])([H])C([H])([H])C12[H])C([H])([H])[H]

$$$$
100:0:0
     RDKit          3D

 67 73  0  0  1  0  0  0  0  0999 V2000
    2.9680   -8.5950    1.8729 C   0  0  0  0  0  0  0  0  0  0  0  0
    3.1821   -7.2588    2.5359 C   0  0  0  0  0  0  0  0  0  0  0  0
    2.7038   -6.8533    3.7323 C   0  0  0  0  0  0  0  0  0  0  0  0
    3.2713   -5.4971    4.0722 C   0  0  2  0  0  0  0  0  0  0  0  0
    2.4740   -4.4094    4.5205 O   0  0  0  0  0  0  0  0  0  0  0  0
    3.2838   -3.2720    4.2636 C   0  0  1  0  0  0  0  0  0  0  0  0
    4.2717   -3.2734    5.3661 O   0  0  0  0  0  0  0  0  0  0  0  0
    4.5116   -1.9738    5.7550 C   0  0  1  0  0  0  0  0  0  0  0  0
    5.6765   -1.3211    6.3788 C   0  0  0  0  0  0  0  0  0  0  0  0
    5.5696   -0.0830    5.8205 C   0  0  0  0  0  0  0  0  0  0  0  0
    4.6253   -0.1428    4.5989 C   0  0  1  0  0  0  0  0  0  0  0  0
    4.7537   -1.4439    4.4744 O   0  0  0  0  0  0  0  0  0  0  0  0
    3.0050   -0.4466    4.4739 C   0  0  2  0  0  0  0  0  0  0  0  0
    2.5239    0.4582    3.3068 C   0  0  1  0  0  0  0  0  0  0  0  0
    2.6465    1.9681    3.6370 C   0  0  0  0  0  0  0  0  0  0  0  0
    3.2877    0.1635    1.9621 C   0  0  0  0  0  0  0  0  0  0  0  0
    3.2216   -1.2244    1.2760 C   0  0  2  0  0  0  0  0  0  0  0  0
    3.5646   -2.6982    1.5830 C   0  0  1  0  0  0  0  0  0  0  0  0
    4.4795   -1.8499    0.6969 C   0  0  0  0  0  0  0  0  0  0  0  0
    4.5214   -2.1421   -0.7965 C   0  0  0  0  0  0  0  0  0  0  0  0
    5.8510   -1.3717    1.1385 C   0  0  0  0  0  0  0  0  0  0  0  0
    4.0081   -3.5284    2.8474 C   0  0  1  0  0  0  0  0  0  0  0  0
    5.3966   -3.6271    2.9506 O   0  0  0  0  0  0  0  0  0  0  0  0
    3.5037   -4.9690    2.6872 C   0  0  1  0  0  0  0  0  0  0  0  0
    3.9926   -6.1683    1.8451 C   0  0  1  0  0  0  0  0  0  0  0  0
    5.3639   -6.4574    1.9763 O   0  0  0  0  0  0  0  0  0  0  0  0
    2.5991   -0.1714    5.9273 C   0  0  1  0  0  0  0  0  0  0  0  0
    1.1015    0.0102    6.2592 C   0  0  0  0  0  0  0  0  0  0  0  0
    3.2904   -1.3731    6.6506 C   0  0  0  0  0  0  0  0  0  0  0  0
    2.3303   -1.9681    4.2452 C   0  0  1  0  0  0  0  0  0  0  0  0
    1.0567   -2.1507    3.3586 C   0  0  0  0  0  0  0  0  0  0  0  0
    2.4881   -8.4556    0.9056 H   0  0  0  0  0  0  0  0  0  0  0  0
    2.3407   -9.2563    2.4712 H   0  0  0  0  0  0  0  0  0  0  0  0
    3.9234   -9.0918    1.7018 H   0  0  0  0  0  0  0  0  0  0  0  0
    2.1141   -7.4425    4.4195 H   0  0  0  0  0  0  0  0  0  0  0  0
    4.1903   -5.6173    4.6493 H   0  0  0  0  0  0  0  0  0  0  0  0
    6.3038   -1.6658    7.1822 H   0  0  0  0  0  0  0  0  0  0  0  0
    6.1754    0.7608    6.0750 H   0  0  0  0  0  0  0  0  0  0  0  0
    5.1274    0.3524    3.7740 H   0  0  0  0  0  0  0  0  0  0  0  0
    1.4564    0.3190    3.1401 H   0  0  0  0  0  0  0  0  0  0  0  0
    3.6846    2.2765    3.7890 H   0  0  0  0  0  0  0  0  0  0  0  0
    2.0900    2.2410    4.5358 H   0  0  0  0  0  0  0  0  0  0  0  0
    2.2517    2.5795    2.8233 H   0  0  0  0  0  0  0  0  0  0  0  0
    2.8308    0.8380    1.2378 H   0  0  0  0  0  0  0  0  0  0  0  0
    4.3056    0.5306    1.9589 H   0  0  0  0  0  0  0  0  0  0  0  0
    2.4036   -1.1800    0.5646 H   0  0  0  0  0  0  0  0  0  0  0  0
    2.9349   -3.3310    0.9636 H   0  0  0  0  0  0  0  0  0  0  0  0
    5.2295   -2.9426   -1.0116 H   0  0  0  0  0  0  0  0  0  0  0  0
    4.8072   -1.2531   -1.3571 H   0  0  0  0  0  0  0  0  0  0  0  0
    3.5386   -2.4576   -1.1516 H   0  0  0  0  0  0  0  0  0  0  0  0
    6.6026   -2.1365    0.9418 H   0  0  0  0  0  0  0  0  0  0  0  0
    5.8575   -1.1571    2.2058 H   0  0  0  0  0  0  0  0  0  0  0  0
    6.1268   -0.4575    0.6121 H   0  0  0  0  0  0  0  0  0  0  0  0
    5.7052   -2.7612    3.1863 H   0  0  0  0  0  0  0  0  0  0  0  0
    2.4867   -4.8429    2.3052 H   0  0  0  0  0  0  0  0  0  0  0  0
    3.7207   -6.0703    0.7931 H   0  0  0  0  0  0  0  0  0  0  0  0
    5.5733   -6.5104    2.9046 H   0  0  0  0  0  0  0  0  0  0  0  0
    3.0733    0.7545    6.2461 H   0  0  0  0  0  0  0  0  0  0  0  0
    0.5007   -0.8850    6.1237 H   0  0  0  0  0  0  0  0  0  0  0  0
    0.6553    0.7909    5.6453 H   0  0  0  0  0  0  0  0  0  0  0  0
    0.9824    0.3082    7.3009 H   0  0  0  0  0  0  0  0  0  0  0  0
    2.6193   -2.1798    6.9412 H   0  0  0  0  0  0  0  0  0  0  0  0
    3.6628   -1.0314    7.6220 H   0  0  0  0  0  0  0  0  0  0  0  0
    1.7356   -2.2211    5.1090 H   0  0  0  0  0  0  0  0  0  0  0  0
    1.1657   -1.9590    2.3006 H   0  0  0  0  0  0  0  0  0  0  0  0
    0.2620   -1.4864    3.7025 H   0  0  0  0  0  0  0  0  0  0  0  0
    0.6565   -3.1622    3.4435 H   0  0  0  0  0  0  0  0  0  0  0  0
  1  2  1  0
  1 32  1  0
  1 33  1  0
  1 34  1  0
  2 25  1  0
  2  3  2  0
  3  4  1  0
  3 35  1  0
  4 24  1  0
  4  5  1  0
  4 36  1  1
  6  5  1  1
  6 22  1  0
  6 30  1  0
  6  7  1  0
  7  8  1  0
  8 12  1  0
  8 29  1  0
  8  9  1  1
  9 10  2  0
  9 37  1  0
 10 11  1  0
 10 38  1  0
 11 12  1  0
 11 13  1  0
 11 39  1  6
 13 14  1  6
 13 27  1  0
 13 30  1  0
 14 15  1  0
 14 16  1  0
 14 40  1  6
 15 41  1  0
 15 42  1  0
 15 43  1  0
 16 17  1  0
 16 44  1  0
 16 45  1  0
 17 19  1  0
 17 18  1  0
 17 46  1  6
 18 19  1  0
 18 22  1  0
 18 47  1  6
 19 20  1  0
 19 21  1  0
 20 48  1  0
 20 49  1  0
 20 50  1  0
 21 51  1  0
 21 52  1  0
 21 53  1  0
 22 23  1  1
 22 24  1  0
 23 54  1  0
 24 25  1  0
 24 55  1  6
 25 26  1  0
 25 56  1  6
 26 57  1  0
 27 28  1  0
 27 29  1  0
 27 58  1  1
 28 59  1  0
 28 60  1  0
 28 61  1  0
 29 62  1  0
 29 63  1  0
 30 31  1  0
 30 64  1  1
 31 65  1  0
 31 66  1  0
 31 67  1  0
M  END
>  <i_m_ct_stereo_status>  (307) 
1

>  <s_m_source_file>  (307) 
/var/tmp/pbs.5076255.sched01/tmpycp4azd_/132pnz8hy5b.sdf

>  <i_m_source_file_index>  (307) 
19

>  <i_lp_mmshare_version>  (307) 
48012

>  <i_f3d_flags>  (307) 
0

>  <s_epik_input>  (307) 
W09IXVtDQEhdMUMoW0NIM10pPVtDSF1bQ0BIXShPMilbQ0BIXTFbQ0BAXShbQ0BAXTIzNCkoW09IXSlbQ0BIXTVbQ0BIXShDNShbQ0gzXSlbQ0gzXSlbQ0gyXVtDQEhdKFtDSDNdKVtDQEBdNihbQ0BIXTRbQ0gzXSlbQ0BIXTdbQ0hdPVtDSF1bQ0BdKE8zKShPNylbQ0gyXVtDQEBIXTZbQ0gzXQ==

>  <s_epik_cmdline>  (307) 
J2VwaWtfcHl0aG9uJywgJy1waHQnLCAnMi4wJywgJy1waCcsICc3LjAnLCAnLXRuJywgJzgnLCAnLW1hJywgJzIwMCcsICctaW1hZScsICc8aW5maWxlLm1hZT4nLCAnLW9tYWUnLCAnPG91dGZpbGUubWFlPic=

>  <r_lp_tautomer_probability>  (307) 
1

>  <r_epik_Ionization_Penalty>  (307) 
1.15967e-07

>  <r_epik_Ionization_Penalty_Charging>  (307) 
0

>  <r_epik_Ionization_Penalty_Neutral>  (307) 
1.15967e-07

>  <r_epik_State_Penalty>  (307) 
-0

>  <r_epik_Charging_Adjusted_Penalty>  (307) 
0

>  <i_epik_Tot_Q>  (307) 
0

>  <i_epik_Tot_abs_Q>  (307) 
0

>  <s_lp_Force_Field>  (307) 
OPLS3e

>  <r_lp_Energy>  (307) 
239.538

>  <b_lp_Chiralities_Consistent>  (307) 
1

>  <s_lp_Variant>  (307) 
100:0-1

>  <s_i_glide_gridfile>  (307) 
pfpi4k_grid

>  <i_i_glide_lignum>  (307) 
19

>  <i_i_glide_rotatable_bonds>  (307) 
2

>  <r_i_docking_score>  (307) 
-2.69621

>  <r_i_glide_ligand_efficiency>  (307) 
-0.0869745

>  <r_i_glide_ligand_efficiency_sa>  (307) 
-0.27322

>  <r_i_glide_ligand_efficiency_ln>  (307) 
-0.608078

>  <r_i_glide_gscore>  (307) 
-2.69621

>  <r_i_glide_lipo>  (307) 
-0.388611

>  <r_i_glide_hbond>  (307) 
0

>  <r_i_glide_metal>  (307) 
-0

>  <r_i_glide_rewards>  (307) 
-0.997784

>  <r_i_glide_evdw>  (307) 
-23.0922

>  <r_i_glide_ecoul>  (307) 
-1.03469

>  <r_i_glide_erotb>  (307) 
0

>  <r_i_glide_esite>  (307) 
0

>  <r_i_glide_emodel>  (307) 
-33.0513

>  <r_i_glide_energy>  (307) 
-24.1269

>  <r_i_glide_einternal>  (307) 
0.0218304

>  <r_i_glide_intrahb_reward>  (307) 
-0.5

>  <i_i_glide_confnum>  (307) 
1

>  <i_i_glide_posenum>  (307) 
2

>  <r_i_glide_eff_state_penalty>  (307) 
0

>  <ligand_id>  (307) 
100

>  <original_smiles>  (307) 
CC1=CC2OC34OC56C=CC(O5)C(C(C)CC5C(C5(C)C)C3(O)C2C1O)(C(C)C6)C4C

>  <smiles>  (307) 
[H]OC1([H])C(C([H])([H])[H])=C([H])C2([H])OC34OC56OC([H])(C([H])=C5[H])C(C([H])(C([H])([H])[H])C6([H])[H])(C([H])(C([H])([H])[H])C([H])([H])C5([H])C([H])(C3(O[H])C21[H])C5(C([H])([H])[H])C([H])([H])[H])C4([H])C([H])([H])[H]

$$$$
100:0:1
     RDKit          3D

 67 73  0  0  1  0  0  0  0  0999 V2000
   -1.6723   -9.5324    2.3902 C   0  0  0  0  0  0  0  0  0  0  0  0
   -0.6336   -8.4871    2.6051 C   0  0  0  0  0  0  0  0  0  0  0  0
   -0.8449   -7.1734    2.6139 C   0  0  0  0  0  0  0  0  0  0  0  0
    0.4213   -6.4791    3.0188 C   0  0  2  0  0  0  0  0  0  0  0  0
    0.9617   -5.4226    2.2644 O   0  0  0  0  0  0  0  0  0  0  0  0
    2.3066   -5.3351    2.6723 C   0  0  1  0  0  0  0  0  0  0  0  0
    2.2517   -4.6668    3.9853 O   0  0  0  0  0  0  0  0  0  0  0  0
    3.3383   -3.8260    4.1314 C   0  0  1  0  0  0  0  0  0  0  0  0
    4.0902   -3.3840    5.3141 C   0  0  0  0  0  0  0  0  0  0  0  0
    5.3242   -3.2734    4.7592 C   0  0  0  0  0  0  0  0  0  0  0  0
    5.3760   -4.0370    3.4097 C   0  0  1  0  0  0  0  0  0  0  0  0
    4.3248   -4.7401    3.7277 O   0  0  0  0  0  0  0  0  0  0  0  0
    4.6031   -3.8029    1.9662 C   0  0  2  0  0  0  0  0  0  0  0  0
    5.6215   -4.2490    0.8824 C   0  0  1  0  0  0  0  0  0  0  0  0
    6.8718   -3.3461    0.8271 C   0  0  0  0  0  0  0  0  0  0  0  0
    6.0751   -5.7448    1.0757 C   0  0  0  0  0  0  0  0  0  0  0  0
    5.0589   -6.9154    0.9898 C   0  0  2  0  0  0  0  0  0  0  0  0
    3.8029   -7.4262    1.7296 C   0  0  1  0  0  0  0  0  0  0  0  0
    5.1562   -8.0578    1.9938 C   0  0  0  0  0  0  0  0  0  0  0  0
    5.4129   -9.4573    1.4704 C   0  0  0  0  0  0  0  0  0  0  0  0
    5.8858   -7.8812    3.3135 C   0  0  0  0  0  0  0  0  0  0  0  0
    2.8081   -6.8531    2.8045 C   0  0  1  0  0  0  0  0  0  0  0  0
    3.1565   -7.2292    4.1185 O   0  0  0  0  0  0  0  0  0  0  0  0
    1.4258   -7.4731    2.5346 C   0  0  1  0  0  0  0  0  0  0  0  0
    0.8274   -8.8553    2.8419 C   0  0  1  0  0  0  0  0  0  0  0  0
    1.0246   -9.2404    4.1823 O   0  0  0  0  0  0  0  0  0  0  0  0
    4.2138   -2.3270    2.1590 C   0  0  1  0  0  0  0  0  0  0  0  0
    3.7554   -1.5171    0.9266 C   0  0  0  0  0  0  0  0  0  0  0  0
    3.1438   -2.4463    3.2978 C   0  0  0  0  0  0  0  0  0  0  0  0
    3.1141   -4.4774    1.5650 C   0  0  1  0  0  0  0  0  0  0  0  0
    2.8187   -4.9153    0.0990 C   0  0  0  0  0  0  0  0  0  0  0  0
   -1.3826  -10.1829    1.5757 H   0  0  0  0  0  0  0  0  0  0  0  0
   -2.6640   -9.1261    2.1948 H   0  0  0  0  0  0  0  0  0  0  0  0
   -1.7063  -10.1715    3.2656 H   0  0  0  0  0  0  0  0  0  0  0  0
   -1.8098   -6.7019    2.5028 H   0  0  0  0  0  0  0  0  0  0  0  0
    0.4349   -6.3062    4.0960 H   0  0  0  0  0  0  0  0  0  0  0  0
    3.7256   -3.0343    6.2601 H   0  0  0  0  0  0  0  0  0  0  0  0
    6.1792   -2.8687    5.2620 H   0  0  0  0  0  0  0  0  0  0  0  0
    6.2390   -4.6862    3.4335 H   0  0  0  0  0  0  0  0  0  0  0  0
    5.1821   -4.1374   -0.1060 H   0  0  0  0  0  0  0  0  0  0  0  0
    7.4442   -3.4287    1.7454 H   0  0  0  0  0  0  0  0  0  0  0  0
    6.6241   -2.2918    0.6794 H   0  0  0  0  0  0  0  0  0  0  0  0
    7.5455   -3.6416    0.0207 H   0  0  0  0  0  0  0  0  0  0  0  0
    6.7625   -5.9316    0.2493 H   0  0  0  0  0  0  0  0  0  0  0  0
    6.7444   -5.8857    1.9194 H   0  0  0  0  0  0  0  0  0  0  0  0
    4.9876   -7.2124   -0.0535 H   0  0  0  0  0  0  0  0  0  0  0  0
    3.2351   -8.0231    1.0249 H   0  0  0  0  0  0  0  0  0  0  0  0
    5.0245  -10.2023    2.1659 H   0  0  0  0  0  0  0  0  0  0  0  0
    6.4805   -9.6255    1.3332 H   0  0  0  0  0  0  0  0  0  0  0  0
    4.9153   -9.6068    0.5124 H   0  0  0  0  0  0  0  0  0  0  0  0
    5.5377   -8.6152    4.0412 H   0  0  0  0  0  0  0  0  0  0  0  0
    5.7024   -6.8890    3.7198 H   0  0  0  0  0  0  0  0  0  0  0  0
    6.9592   -8.0050    3.1702 H   0  0  0  0  0  0  0  0  0  0  0  0
    3.1214   -8.1784    4.1635 H   0  0  0  0  0  0  0  0  0  0  0  0
    1.3259   -7.4435    1.4467 H   0  0  0  0  0  0  0  0  0  0  0  0
    1.1572   -9.6283    2.1423 H   0  0  0  0  0  0  0  0  0  0  0  0
    0.5255  -10.0298    4.3601 H   0  0  0  0  0  0  0  0  0  0  0  0
    5.0817   -1.7900    2.5423 H   0  0  0  0  0  0  0  0  0  0  0  0
    2.8095   -1.8473    0.5033 H   0  0  0  0  0  0  0  0  0  0  0  0
    4.4945   -1.5602    0.1292 H   0  0  0  0  0  0  0  0  0  0  0  0
    3.6224   -0.4683    1.1918 H   0  0  0  0  0  0  0  0  0  0  0  0
    2.1094   -2.3544    2.9670 H   0  0  0  0  0  0  0  0  0  0  0  0
    3.2506   -1.5921    3.9701 H   0  0  0  0  0  0  0  0  0  0  0  0
    2.3950   -3.6792    1.4472 H   0  0  0  0  0  0  0  0  0  0  0  0
    3.3807   -5.7562   -0.2773 H   0  0  0  0  0  0  0  0  0  0  0  0
    3.0151   -4.0916   -0.5900 H   0  0  0  0  0  0  0  0  0  0  0  0
    1.7696   -5.1754   -0.0365 H   0  0  0  0  0  0  0  0  0  0  0  0
  1  2  1  0
  1 32  1  0
  1 33  1  0
  1 34  1  0
  2 25  1  0
  2  3  2  0
  3  4  1  0
  3 35  1  0
  4 24  1  0
  4  5  1  0
  4 36  1  1
  6  5  1  6
  6 22  1  0
  6 30  1  0
  6  7  1  0
  7  8  1  0
  8 12  1  0
  8 29  1  0
  8  9  1  1
  9 10  2  0
  9 37  1  0
 10 11  1  0
 10 38  1  0
 11 12  1  0
 11 13  1  0
 11 39  1  6
 13 14  1  6
 13 27  1  0
 13 30  1  0
 14 15  1  0
 14 16  1  0
 14 40  1  6
 15 41  1  0
 15 42  1  0
 15 43  1  0
 16 17  1  0
 16 44  1  0
 16 45  1  0
 17 19  1  0
 17 18  1  0
 17 46  1  6
 18 19  1  0
 18 22  1  0
 18 47  1  6
 19 20  1  0
 19 21  1  0
 20 48  1  0
 20 49  1  0
 20 50  1  0
 21 51  1  0
 21 52  1  0
 21 53  1  0
 22 23  1  1
 22 24  1  0
 23 54  1  0
 24 25  1  0
 24 55  1  6
 25 26  1  0
 25 56  1  6
 26 57  1  0
 27 28  1  0
 27 29  1  0
 27 58  1  1
 28 59  1  0
 28 60  1  0
 28 61  1  0
 29 62  1  0
 29 63  1  0
 30 31  1  0
 30 64  1  6
 31 65  1  0
 31 66  1  0
 31 67  1  0
M  END
>  <i_m_ct_stereo_status>  (308) 
1

>  <s_m_source_file>  (308) 
/var/tmp/pbs.5076255.sched01/tmpycp4azd_/132pnz8hy5b.sdf

>  <i_m_source_file_index>  (308) 
19

>  <i_lp_mmshare_version>  (308) 
48012

>  <i_f3d_flags>  (308) 
0

>  <s_epik_input>  (308) 
W09IXVtDQEhdMUMoW0NIM10pPVtDSF1bQ0BIXShPMilbQ0BIXTFbQ0BAXShbQ0BAXTIzNCkoW09IXSlbQ0BIXTVbQ0BIXShDNShbQ0gzXSlbQ0gzXSlbQ0gyXVtDQEhdKFtDSDNdKVtDQEBdNihbQ0BIXTRbQ0gzXSlbQ0BIXTdbQ0hdPVtDSF1bQ0BdKE8zKShPNylbQ0gyXVtDQEBIXTZbQ0gzXQ==

>  <s_epik_cmdline>  (308) 
J2VwaWtfcHl0aG9uJywgJy1waHQnLCAnMi4wJywgJy1waCcsICc3LjAnLCAnLXRuJywgJzgnLCAnLW1hJywgJzIwMCcsICctaW1hZScsICc8aW5maWxlLm1hZT4nLCAnLW9tYWUnLCAnPG91dGZpbGUubWFlPic=

>  <r_lp_tautomer_probability>  (308) 
1

>  <r_epik_Ionization_Penalty>  (308) 
1.15967e-07

>  <r_epik_Ionization_Penalty_Charging>  (308) 
0

>  <r_epik_Ionization_Penalty_Neutral>  (308) 
1.15967e-07

>  <r_epik_State_Penalty>  (308) 
-0

>  <r_epik_Charging_Adjusted_Penalty>  (308) 
0

>  <i_epik_Tot_Q>  (308) 
0

>  <i_epik_Tot_abs_Q>  (308) 
0

>  <s_lp_Force_Field>  (308) 
OPLS3e

>  <r_lp_Energy>  (308) 
239.538

>  <b_lp_Chiralities_Consistent>  (308) 
1

>  <s_lp_Variant>  (308) 
100:0-1

>  <s_i_glide_gridfile>  (308) 
pfpi4k_grid

>  <i_i_glide_lignum>  (308) 
19

>  <i_i_glide_rotatable_bonds>  (308) 
2

>  <r_i_docking_score>  (308) 
-2.68662

>  <r_i_glide_ligand_efficiency>  (308) 
-0.0866653

>  <r_i_glide_ligand_efficiency_sa>  (308) 
-0.272249

>  <r_i_glide_ligand_efficiency_ln>  (308) 
-0.605916

>  <r_i_glide_gscore>  (308) 
-2.68662

>  <r_i_glide_lipo>  (308) 
-0.749301

>  <r_i_glide_hbond>  (308) 
-0.0722783

>  <r_i_glide_metal>  (308) 
-0

>  <r_i_glide_rewards>  (308) 
-0.487084

>  <r_i_glide_evdw>  (308) 
-24.2592

>  <r_i_glide_ecoul>  (308) 
-1.03901

>  <r_i_glide_erotb>  (308) 
0

>  <r_i_glide_esite>  (308) 
-0.0091496

>  <r_i_glide_emodel>  (308) 
-29.0832

>  <r_i_glide_energy>  (308) 
-25.2982

>  <r_i_glide_einternal>  (308) 
0.303908

>  <r_i_glide_intrahb_reward>  (308) 
-0

>  <i_i_glide_confnum>  (308) 
1

>  <i_i_glide_posenum>  (308) 
10

>  <r_i_glide_eff_state_penalty>  (308) 
0

>  <ligand_id>  (308) 
100

>  <original_smiles>  (308) 
CC1=CC2OC34OC56C=CC(O5)C(C(C)CC5C(C5(C)C)C3(O)C2C1O)(C(C)C6)C4C

>  <smiles>  (308) 
[H]OC1([H])C(C([H])([H])[H])=C([H])C2([H])OC34OC56OC([H])(C([H])=C5[H])C(C([H])(C([H])([H])[H])C6([H])[H])(C([H])(C([H])([H])[H])C([H])([H])C5([H])C([H])(C3(O[H])C21[H])C5(C([H])([H])[H])C([H])([H])[H])C4([H])C([H])([H])[H]

$$$$
100:0:2
     RDKit          3D

 67 73  0  0  1  0  0  0  0  0999 V2000
   -1.2956   -8.8664    2.4953 C   0  0  0  0  0  0  0  0  0  0  0  0
   -0.3836   -7.8563    3.1592 C   0  0  0  0  0  0  0  0  0  0  0  0
   -0.6800   -7.0457    4.1871 C   0  0  0  0  0  0  0  0  0  0  0  0
    0.5626   -6.2996    4.6201 C   0  0  2  0  0  0  0  0  0  0  0  0
    0.5885   -4.8982    4.8222 O   0  0  0  0  0  0  0  0  0  0  0  0
    1.9730   -4.5714    4.7481 C   0  0  1  0  0  0  0  0  0  0  0  0
    2.5142   -4.9621    6.0629 O   0  0  0  0  0  0  0  0  0  0  0  0
    3.4718   -4.0577    6.4717 C   0  0  1  0  0  0  0  0  0  0  0  0
    4.6637   -4.1911    7.3276 C   0  0  0  0  0  0  0  0  0  0  0  0
    5.4639   -3.2795    6.7352 C   0  0  0  0  0  0  0  0  0  0  0  0
    4.9342   -2.9409    5.3149 C   0  0  1  0  0  0  0  0  0  0  0  0
    4.2161   -4.0330    5.2836 O   0  0  0  0  0  0  0  0  0  0  0  0
    3.5515   -2.1961    4.7975 C   0  0  2  0  0  0  0  0  0  0  0  0
    3.9842   -1.4136    3.5253 C   0  0  1  0  0  0  0  0  0  0  0  0
    4.9926   -0.2837    3.8381 C   0  0  0  0  0  0  0  0  0  0  0  0
    4.5876   -2.3594    2.4192 C   0  0  0  0  0  0  0  0  0  0  0  0
    3.7549   -3.4964    1.7660 C   0  0  2  0  0  0  0  0  0  0  0  0
    3.0153   -4.7957    2.2016 C   0  0  1  0  0  0  0  0  0  0  0  0
    4.3900   -4.8641    1.5414 C   0  0  0  0  0  0  0  0  0  0  0  0
    4.4851   -5.3844    0.1163 C   0  0  0  0  0  0  0  0  0  0  0  0
    5.6405   -5.2722    2.3031 C   0  0  0  0  0  0  0  0  0  0  0  0
    2.5911   -5.4750    3.5657 C   0  0  1  0  0  0  0  0  0  0  0  0
    3.5574   -6.4064    4.0146 O   0  0  0  0  0  0  0  0  0  0  0  0
    1.3005   -6.2723    3.3186 C   0  0  1  0  0  0  0  0  0  0  0  0
    1.0441   -7.6393    2.6562 C   0  0  1  0  0  0  0  0  0  0  0  0
    1.9067   -8.6509    3.1356 O   0  0  0  0  0  0  0  0  0  0  0  0
    3.1790   -1.4751    6.1044 C   0  0  1  0  0  0  0  0  0  0  0  0
    2.1262   -0.3466    6.0514 C   0  0  0  0  0  0  0  0  0  0  0  0
    2.7929   -2.6877    7.0170 C   0  0  0  0  0  0  0  0  0  0  0  0
    2.1048   -2.9889    4.4523 C   0  0  1  0  0  0  0  0  0  0  0  0
    1.1959   -2.4900    3.2916 C   0  0  0  0  0  0  0  0  0  0  0  0
   -1.3912   -8.6358    1.4372 H   0  0  0  0  0  0  0  0  0  0  0  0
   -2.2864   -8.8731    2.9478 H   0  0  0  0  0  0  0  0  0  0  0  0
   -0.8731   -9.8646    2.5895 H   0  0  0  0  0  0  0  0  0  0  0  0
   -1.6148   -7.0030    4.7333 H   0  0  0  0  0  0  0  0  0  0  0  0
    1.0726   -6.8568    5.4096 H   0  0  0  0  0  0  0  0  0  0  0  0
    4.7556   -4.6973    8.2736 H   0  0  0  0  0  0  0  0  0  0  0  0
    6.4229   -2.9546    7.1054 H   0  0  0  0  0  0  0  0  0  0  0  0
    5.7630   -3.0387    4.6267 H   0  0  0  0  0  0  0  0  0  0  0  0
    3.1260   -0.8934    3.1098 H   0  0  0  0  0  0  0  0  0  0  0  0
    5.9358   -0.6585    4.2375 H   0  0  0  0  0  0  0  0  0  0  0  0
    4.5962    0.4308    4.5611 H   0  0  0  0  0  0  0  0  0  0  0  0
    5.2291    0.2765    2.9340 H   0  0  0  0  0  0  0  0  0  0  0  0
    4.8131   -1.6918    1.5866 H   0  0  0  0  0  0  0  0  0  0  0  0
    5.5823   -2.7179    2.6617 H   0  0  0  0  0  0  0  0  0  0  0  0
    3.2884   -3.0757    0.8758 H   0  0  0  0  0  0  0  0  0  0  0  0
    2.2384   -4.9938    1.4697 H   0  0  0  0  0  0  0  0  0  0  0  0
    4.5330   -6.4738    0.1039 H   0  0  0  0  0  0  0  0  0  0  0  0
    5.3711   -4.9909   -0.3813 H   0  0  0  0  0  0  0  0  0  0  0  0
    3.6137   -5.0773   -0.4638 H   0  0  0  0  0  0  0  0  0  0  0  0
    5.7430   -6.3576    2.3153 H   0  0  0  0  0  0  0  0  0  0  0  0
    5.5935   -4.9282    3.3344 H   0  0  0  0  0  0  0  0  0  0  0  0
    6.5283   -4.8417    1.8390 H   0  0  0  0  0  0  0  0  0  0  0  0
    3.6223   -7.0962    3.3700 H   0  0  0  0  0  0  0  0  0  0  0  0
    0.6967   -5.6103    2.6928 H   0  0  0  0  0  0  0  0  0  0  0  0
    1.0782   -7.5916    1.5662 H   0  0  0  0  0  0  0  0  0  0  0  0
    1.6678   -9.4789    2.7426 H   0  0  0  0  0  0  0  0  0  0  0  0
    4.0762   -1.0030    6.5063 H   0  0  0  0  0  0  0  0  0  0  0  0
    1.1242   -0.6824    5.7958 H   0  0  0  0  0  0  0  0  0  0  0  0
    2.4031    0.4150    5.3239 H   0  0  0  0  0  0  0  0  0  0  0  0
    2.0509    0.1423    7.0221 H   0  0  0  0  0  0  0  0  0  0  0  0
    1.7201   -2.8374    7.1493 H   0  0  0  0  0  0  0  0  0  0  0  0
    3.1273   -2.4858    8.0359 H   0  0  0  0  0  0  0  0  0  0  0  0
    1.3556   -2.6552    5.1547 H   0  0  0  0  0  0  0  0  0  0  0  0
    1.5786   -2.6029    2.2872 H   0  0  0  0  0  0  0  0  0  0  0  0
    0.9753   -1.4269    3.4102 H   0  0  0  0  0  0  0  0  0  0  0  0
    0.2304   -2.9969    3.3058 H   0  0  0  0  0  0  0  0  0  0  0  0
  1  2  1  0
  1 32  1  0
  1 33  1  0
  1 34  1  0
  2 25  1  0
  2  3  2  0
  3  4  1  0
  3 35  1  0
  4 24  1  0
  4  5  1  0
  4 36  1  1
  6  5  1  1
  6 22  1  0
  6 30  1  0
  6  7  1  0
  7  8  1  0
  8 12  1  0
  8 29  1  0
  8  9  1  1
  9 10  2  0
  9 37  1  0
 10 11  1  0
 10 38  1  0
 11 12  1  0
 11 13  1  0
 11 39  1  6
 13 14  1  6
 13 27  1  0
 13 30  1  0
 14 15  1  0
 14 16  1  0
 14 40  1  6
 15 41  1  0
 15 42  1  0
 15 43  1  0
 16 17  1  0
 16 44  1  0
 16 45  1  0
 17 19  1  0
 17 18  1  0
 17 46  1  6
 18 19  1  0
 18 22  1  0
 18 47  1  6
 19 20  1  0
 19 21  1  0
 20 48  1  0
 20 49  1  0
 20 50  1  0
 21 51  1  0
 21 52  1  0
 21 53  1  0
 22 23  1  1
 22 24  1  0
 23 54  1  0
 24 25  1  0
 24 55  1  6
 25 26  1  0
 25 56  1  6
 26 57  1  0
 27 28  1  0
 27 29  1  0
 27 58  1  1
 28 59  1  0
 28 60  1  0
 28 61  1  0
 29 62  1  0
 29 63  1  0
 30 31  1  0
 30 64  1  1
 31 65  1  0
 31 66  1  0
 31 67  1  0
M  END
>  <i_m_ct_stereo_status>  (309) 
1

>  <s_m_source_file>  (309) 
/var/tmp/pbs.5076255.sched01/tmpycp4azd_/132pnz8hy5b.sdf

>  <i_m_source_file_index>  (309) 
19

>  <i_lp_mmshare_version>  (309) 
48012

>  <i_f3d_flags>  (309) 
0

>  <s_epik_input>  (309) 
W09IXVtDQEhdMUMoW0NIM10pPVtDSF1bQ0BIXShPMilbQ0BIXTFbQ0BAXShbQ0BAXTIzNCkoW09IXSlbQ0BIXTVbQ0BIXShDNShbQ0gzXSlbQ0gzXSlbQ0gyXVtDQEhdKFtDSDNdKVtDQEBdNihbQ0BIXTRbQ0gzXSlbQ0BIXTdbQ0hdPVtDSF1bQ0BdKE8zKShPNylbQ0gyXVtDQEBIXTZbQ0gzXQ==

>  <s_epik_cmdline>  (309) 
J2VwaWtfcHl0aG9uJywgJy1waHQnLCAnMi4wJywgJy1waCcsICc3LjAnLCAnLXRuJywgJzgnLCAnLW1hJywgJzIwMCcsICctaW1hZScsICc8aW5maWxlLm1hZT4nLCAnLW9tYWUnLCAnPG91dGZpbGUubWFlPic=

>  <r_lp_tautomer_probability>  (309) 
1

>  <r_epik_Ionization_Penalty>  (309) 
1.15967e-07

>  <r_epik_Ionization_Penalty_Charging>  (309) 
0

>  <r_epik_Ionization_Penalty_Neutral>  (309) 
1.15967e-07

>  <r_epik_State_Penalty>  (309) 
-0

>  <r_epik_Charging_Adjusted_Penalty>  (309) 
0

>  <i_epik_Tot_Q>  (309) 
0

>  <i_epik_Tot_abs_Q>  (309) 
0

>  <s_lp_Force_Field>  (309) 
OPLS3e

>  <r_lp_Energy>  (309) 
239.538

>  <b_lp_Chiralities_Consistent>  (309) 
1

>  <s_lp_Variant>  (309) 
100:0-1

>  <s_i_glide_gridfile>  (309) 
pfpi4k_grid

>  <i_i_glide_lignum>  (309) 
19

>  <i_i_glide_rotatable_bonds>  (309) 
2

>  <r_i_docking_score>  (309) 
-2.64005

>  <r_i_glide_ligand_efficiency>  (309) 
-0.085163

>  <r_i_glide_ligand_efficiency_sa>  (309) 
-0.267529

>  <r_i_glide_ligand_efficiency_ln>  (309) 
-0.595413

>  <r_i_glide_gscore>  (309) 
-2.64005

>  <r_i_glide_lipo>  (309) 
-0.378827

>  <r_i_glide_hbond>  (309) 
0

>  <r_i_glide_metal>  (309) 
-0

>  <r_i_glide_rewards>  (309) 
-0.98722

>  <r_i_glide_evdw>  (309) 
-24.5267

>  <r_i_glide_ecoul>  (309) 
-0.317786

>  <r_i_glide_erotb>  (309) 
0

>  <r_i_glide_esite>  (309) 
0

>  <r_i_glide_emodel>  (309) 
-33.6224

>  <r_i_glide_energy>  (309) 
-24.8445

>  <r_i_glide_einternal>  (309) 
0.274123

>  <r_i_glide_intrahb_reward>  (309) 
-0.5

>  <i_i_glide_confnum>  (309) 
1

>  <i_i_glide_posenum>  (309) 
6

>  <r_i_glide_eff_state_penalty>  (309) 
0

>  <ligand_id>  (309) 
100

>  <original_smiles>  (309) 
CC1=CC2OC34OC56C=CC(O5)C(C(C)CC5C(C5(C)C)C3(O)C2C1O)(C(C)C6)C4C

>  <smiles>  (309) 
[H]OC1([H])C(C([H])([H])[H])=C([H])C2([H])OC34OC56OC([H])(C([H])=C5[H])C(C([H])(C([H])([H])[H])C6([H])[H])(C([H])(C([H])([H])[H])C([H])([H])C5([H])C([H])(C3(O[H])C21[H])C5(C([H])([H])[H])C([H])([H])[H])C4([H])C([H])([H])[H]

$$$$
101:2:0
     RDKit          3D

 82 89  0  0  1  0  0  0  0  0999 V2000
   -0.1237    0.3187   10.9734 C   0  0  0  0  0  0  0  0  0  0  0  0
    0.2228    0.2478    9.5023 C   0  0  0  0  0  0  0  0  0  0  0  0
    0.5260   -0.8378    9.0026 O   0  0  0  0  0  0  0  0  0  0  0  0
    0.2305    1.4800    8.9031 O   0  0  0  0  0  0  0  0  0  0  0  0
    0.8171    1.7354    7.6133 C   0  0  2  0  0  0  0  0  0  0  0  0
    0.2524    0.7773    6.4117 C   0  0  2  0  0  0  0  0  0  0  0  0
    1.4079    0.6754    5.6087 C   0  0  2  0  0  0  0  0  0  0  0  0
    2.4343    0.1331    6.3500 O   0  0  0  0  0  0  0  0  0  0  0  0
    3.2021    1.2391    6.5166 C   0  0  2  0  0  0  0  0  0  0  0  0
    2.4719    1.9399    7.7139 C   0  0  2  0  0  0  0  0  0  0  0  0
    2.9613    1.2177    8.8281 O   0  0  0  0  0  0  0  0  0  0  0  0
    3.1679    3.3689    7.9258 C   0  0  2  0  0  0  0  0  0  0  0  0
    2.2790    4.4552    8.5737 C   0  0  0  0  0  0  0  0  0  0  0  0
    1.8084    5.6415    7.7210 C   0  0  0  0  0  0  0  0  0  0  0  0
    1.2501    5.3268    6.3227 C   0  0  1  0  0  0  0  0  0  0  0  0
    0.4006    6.5544    5.8872 C   0  0  0  0  0  0  0  0  0  0  0  0
    2.1479    4.7596    5.1317 C   0  0  1  0  0  0  0  0  0  0  0  0
    2.8573    5.8879    4.6521 O   0  0  0  0  0  0  0  0  0  0  0  0
    3.4194    3.6353    5.4118 C   0  0  1  0  0  0  0  0  0  0  0  0
    4.1633    3.8279    6.7799 C   0  0  0  0  0  0  0  0  0  0  0  0
    4.7641    5.2561    6.9801 C   0  0  0  0  0  0  0  0  0  0  0  0
    5.4997    2.9913    6.8322 C   0  0  0  0  0  0  0  0  0  0  0  0
    3.1571    1.9933    5.1315 C   0  0  1  0  0  0  0  0  0  0  0  0
    3.0172    0.9794    3.7261 C   0  0  1  0  0  0  0  0  0  0  0  0
    3.9596   -0.2465    3.8216 C   0  0  0  0  0  0  0  0  0  0  0  0
    1.4482    0.4837    3.0487 C   0  0  0  0  0  0  0  0  0  0  0  0
   -0.1381    1.0184    3.5910 C   0  0  2  0  0  0  0  0  0  0  0  0
   -0.7036    2.3990    3.0692 C   0  0  0  0  0  0  0  0  0  0  0  0
   -0.3857    3.6936    3.9829 C   0  0  1  0  0  0  0  0  0  0  0  0
   -0.8897    3.4823    5.3063 O   0  0  0  0  0  0  0  0  0  0  0  0
   -1.5948    2.2649    5.5368 C   0  0  0  0  0  0  0  0  0  0  0  0
   -0.7364    1.0125    5.1716 C   0  0  2  0  0  0  0  0  0  0  0  0
   -1.7460   -0.1642    5.2183 C   0  0  0  0  0  0  0  0  0  0  0  0
    1.1058    4.3314    3.9207 C   0  0  1  0  0  0  0  0  0  0  0  0
    1.1005    5.3457    2.8998 O   0  0  0  0  0  0  0  0  0  0  0  0
    1.7981    3.1409    3.5039 C   0  0  2  0  0  0  0  0  0  0  0  0
    1.8207    2.9208    2.0830 O   0  0  0  0  0  0  0  0  0  0  0  0
    1.8307    2.1435    4.9190 C   0  0  1  0  0  0  0  0  0  0  0  0
   -0.2019    1.3531   11.3178 H   0  0  0  0  0  0  0  0  0  0  0  0
    0.6776   -0.1818   11.5140 H   0  0  0  0  0  0  0  0  0  0  0  0
   -1.0455   -0.2206   11.1781 H   0  0  0  0  0  0  0  0  0  0  0  0
    0.4073    2.7158    7.4255 H   0  0  0  0  0  0  0  0  0  0  0  0
    0.0399   -0.2256    6.7542 H   0  0  0  0  0  0  0  0  0  0  0  0
    1.2664   -0.2807    5.1179 H   0  0  0  0  0  0  0  0  0  0  0  0
    4.1934    0.8670    6.7703 H   0  0  0  0  0  0  0  0  0  0  0  0
    2.4817    1.5092    9.5854 H   0  0  0  0  0  0  0  0  0  0  0  0
    3.8808    3.2322    8.7488 H   0  0  0  0  0  0  0  0  0  0  0  0
    1.4273    3.9835    9.0630 H   0  0  0  0  0  0  0  0  0  0  0  0
    2.8427    4.8940    9.4021 H   0  0  0  0  0  0  0  0  0  0  0  0
    0.9806    6.0386    8.3024 H   0  0  0  0  0  0  0  0  0  0  0  0
    2.4866    6.4879    7.7401 H   0  0  0  0  0  0  0  0  0  0  0  0
    0.5319    4.5714    6.5823 H   0  0  0  0  0  0  0  0  0  0  0  0
    1.0133    7.4409    5.7123 H   0  0  0  0  0  0  0  0  0  0  0  0
   -0.3251    6.8206    6.6581 H   0  0  0  0  0  0  0  0  0  0  0  0
   -0.1749    6.3703    4.9828 H   0  0  0  0  0  0  0  0  0  0  0  0
    2.2278    6.4118    4.1725 H   0  0  0  0  0  0  0  0  0  0  0  0
    4.2022    3.8994    4.7027 H   0  0  0  0  0  0  0  0  0  0  0  0
    5.6372    5.4310    6.3438 H   0  0  0  0  0  0  0  0  0  0  0  0
    5.0792    5.4190    8.0181 H   0  0  0  0  0  0  0  0  0  0  0  0
    4.1220    6.0758    6.6964 H   0  0  0  0  0  0  0  0  0  0  0  0
    6.4129    3.5853    6.9075 H   0  0  0  0  0  0  0  0  0  0  0  0
    5.6436    2.3854    5.9417 H   0  0  0  0  0  0  0  0  0  0  0  0
    5.5489    2.3259    7.6958 H   0  0  0  0  0  0  0  0  0  0  0  0
    3.5545    1.4900    2.9262 H   0  0  0  0  0  0  0  0  0  0  0  0
    3.5766   -1.0268    4.4867 H   0  0  0  0  0  0  0  0  0  0  0  0
    4.9514    0.0401    4.1849 H   0  0  0  0  0  0  0  0  0  0  0  0
    4.0932   -0.7032    2.8371 H   0  0  0  0  0  0  0  0  0  0  0  0
    1.4901    0.5677    1.9616 H   0  0  0  0  0  0  0  0  0  0  0  0
    1.4286   -0.6088    3.1167 H   0  0  0  0  0  0  0  0  0  0  0  0
   -0.7593    0.3094    3.0398 H   0  0  0  0  0  0  0  0  0  0  0  0
   -0.4707    2.5383    2.0190 H   0  0  0  0  0  0  0  0  0  0  0  0
   -1.7897    2.2892    2.9976 H   0  0  0  0  0  0  0  0  0  0  0  0
   -1.0592    4.4677    3.6122 H   0  0  0  0  0  0  0  0  0  0  0  0
   -1.8653    2.2322    6.5951 H   0  0  0  0  0  0  0  0  0  0  0  0
   -2.5474    2.2964    4.9959 H   0  0  0  0  0  0  0  0  0  0  0  0
   -2.5429   -0.0461    4.4820 H   0  0  0  0  0  0  0  0  0  0  0  0
   -2.2327   -0.2328    6.1889 H   0  0  0  0  0  0  0  0  0  0  0  0
   -1.2601   -1.1224    5.0216 H   0  0  0  0  0  0  0  0  0  0  0  0
    0.6140    5.0514    2.1393 H   0  0  0  0  0  0  0  0  0  0  0  0
    2.7922    3.5121    3.2491 H   0  0  0  0  0  0  0  0  0  0  0  0
    1.1763    3.4692    1.6228 H   0  0  0  0  0  0  0  0  0  0  0  0
    1.3405    2.7412    5.6356 H   0  0  0  0  0  0  0  0  0  0  0  0
  1  2  1  0
  1 39  1  0
  1 40  1  0
  1 41  1  0
  2  3  2  0
  2  4  1  0
  4  5  1  0
  5 10  1  0
  5  6  1  0
  5 42  1  6
  6 32  1  0
  6  7  1  0
  6 43  1  1
  7 38  1  0
  7  8  1  0
  7 44  1  6
  8  9  1  0
  9 23  1  0
  9 10  1  0
  9 45  1  1
 10 11  1  1
 10 12  1  0
 11 46  1  0
 12 20  1  0
 12 13  1  0
 12 47  1  1
 13 14  1  0
 13 48  1  0
 13 49  1  0
 14 15  1  0
 14 50  1  0
 14 51  1  0
 15 16  1  0
 15 17  1  0
 15 52  1  1
 16 53  1  0
 16 54  1  0
 16 55  1  0
 17 34  1  0
 17 18  1  6
 17 19  1  0
 18 56  1  0
 19 20  1  0
 19 23  1  0
 19 57  1  6
 20 21  1  0
 20 22  1  0
 21 58  1  0
 21 59  1  0
 21 60  1  0
 22 61  1  0
 22 62  1  0
 22 63  1  0
 23 38  1  0
 23 24  1  6
 24 25  1  0
 24 26  1  0
 24 64  1  6
 25 65  1  0
 25 66  1  0
 25 67  1  0
 26 27  1  0
 26 68  1  0
 26 69  1  0
 27 32  1  0
 27 28  1  0
 27 70  1  6
 28 29  1  0
 28 71  1  0
 28 72  1  0
 29 30  1  0
 29 34  1  0
 29 73  1  6
 30 31  1  0
 31 32  1  0
 31 74  1  0
 31 75  1  0
 32 33  1  6
 33 76  1  0
 33 77  1  0
 33 78  1  0
 34 35  1  6
 34 36  1  0
 35 79  1  0
 36 37  1  0
 36 38  1  0
 36 80  1  1
 37 81  1  0
 38 82  1  1
M  END
>  <i_m_ct_stereo_status>  (310) 
1

>  <s_m_source_file>  (310) 
/var/tmp/pbs.5076255.sched01/tmpycp4azd_/132pnz8hy5b.sdf

>  <i_m_source_file_index>  (310) 
22

>  <i_lp_mmshare_version>  (310) 
48012

>  <i_f3d_flags>  (310) 
0

>  <s_epik_input>  (310) 
W0NIM11DKD1PKU9bQ0BASF0xW0NASF0oW0NASF0oTzIpW0NIXTNbQ0BASF00W09IXSlbQ0BdKFtDSDJdTzUpKFtDSDNdKVtDQEhdKFtDSDJdW0NAQEhdNltDSDNdKVtDSDJdW0NAQEhdNVtDQEBdNChbT0hdKVtDQF0oW09IXSkoW0NASF03QzgoW0NIM10pW0NIM10pW0NASF0oW0NIM10pW0NIMl1bQ0gyXVtDQEhdOFtDQEBdMShbQ0BASF0yW0NAXTM2NylbT0hd

>  <s_epik_cmdline>  (310) 
J2VwaWtfcHl0aG9uJywgJy1waHQnLCAnMi4wJywgJy1waCcsICc3LjAnLCAnLXRuJywgJzgnLCAnLW1hJywgJzIwMCcsICctaW1hZScsICc8aW5maWxlLm1hZT4nLCAnLW9tYWUnLCAnPG91dGZpbGUubWFlPic=

>  <r_lp_tautomer_probability>  (310) 
1

>  <r_epik_Ionization_Penalty>  (310) 
5.54768e-07

>  <r_epik_Ionization_Penalty_Charging>  (310) 
0

>  <r_epik_Ionization_Penalty_Neutral>  (310) 
5.54768e-07

>  <r_epik_State_Penalty>  (310) 
-0

>  <r_epik_Charging_Adjusted_Penalty>  (310) 
0

>  <i_epik_Tot_Q>  (310) 
0

>  <i_epik_Tot_abs_Q>  (310) 
0

>  <s_epik_Chemistry_Notes>  (310) 
This compound has an ester and may undergo hydrolysis at high or low pH.

>  <s_lp_Force_Field>  (310) 
OPLS3e

>  <r_lp_Energy>  (310) 
527.621

>  <b_lp_Chiralities_Consistent>  (310) 
1

>  <s_lp_Variant>  (310) 
101:0-3

>  <s_i_glide_gridfile>  (310) 
pfpi4k_grid

>  <i_i_glide_lignum>  (310) 
22

>  <i_i_glide_rotatable_bonds>  (310) 
6

>  <r_i_docking_score>  (310) 
-2.74623

>  <r_i_glide_ligand_efficiency>  (310) 
-0.0722692

>  <r_i_glide_ligand_efficiency_sa>  (310) 
-0.242967

>  <r_i_glide_ligand_efficiency_ln>  (310) 
-0.592168

>  <r_i_glide_gscore>  (310) 
-2.74623

>  <r_i_glide_lipo>  (310) 
-0.0226381

>  <r_i_glide_hbond>  (310) 
0

>  <r_i_glide_metal>  (310) 
-0

>  <r_i_glide_rewards>  (310) 
0

>  <r_i_glide_evdw>  (310) 
-24.2497

>  <r_i_glide_ecoul>  (310) 
-10.3576

>  <r_i_glide_erotb>  (310) 
0.0727005

>  <r_i_glide_esite>  (310) 
-0.030177

>  <r_i_glide_emodel>  (310) 
-37.4659

>  <r_i_glide_energy>  (310) 
-34.6072

>  <r_i_glide_einternal>  (310) 
6.84024

>  <r_i_glide_intrahb_reward>  (310) 
-0

>  <i_i_glide_confnum>  (310) 
4

>  <i_i_glide_posenum>  (310) 
29

>  <r_i_glide_eff_state_penalty>  (310) 
0

>  <ligand_id>  (310) 
101

>  <original_smiles>  (310) 
CC(=O)OC1C2C3OC4C1(O)C1CCC(C)C5(O)C(C1(C)C)C41C(C)CC4CC(OCC42C)C5(O)C(O)C31

>  <smiles>  (310) 
[H]OC1([H])C2([H])C3([H])OC4([H])C5(O[H])C([H])(OC(=O)C([H])([H])[H])C3([H])C3(C([H])([H])[H])C([H])([H])OC6([H])C([H])([H])C3([H])C([H])([H])C([H])(C([H])([H])[H])C42C2([H])C(O[H])(C([H])(C([H])([H])[H])C([H])([H])C([H])([H])C5([H])C2(C([H])([H])[H])C([H])([H])[H])C61O[H]

$$$$
101:2:1
     RDKit          3D

 82 89  0  0  1  0  0  0  0  0999 V2000
   -0.9115    2.7485   11.2429 C   0  0  0  0  0  0  0  0  0  0  0  0
   -0.6102    3.0499    9.7824 C   0  0  0  0  0  0  0  0  0  0  0  0
   -1.3690    3.7531    9.1423 O   0  0  0  0  0  0  0  0  0  0  0  0
    0.5559    2.5139    9.3541 O   0  0  0  0  0  0  0  0  0  0  0  0
    1.0616    2.6917    8.0191 C   0  0  2  0  0  0  0  0  0  0  0  0
    0.4379    1.5587    7.0322 C   0  0  2  0  0  0  0  0  0  0  0  0
    1.5392    1.2613    6.1772 C   0  0  2  0  0  0  0  0  0  0  0  0
    2.5875    0.7733    6.9315 O   0  0  0  0  0  0  0  0  0  0  0  0
    3.3887    1.8612    6.9012 C   0  0  2  0  0  0  0  0  0  0  0  0
    2.7303    2.7582    8.0212 C   0  0  2  0  0  0  0  0  0  0  0  0
    3.1611    2.1051    9.2010 O   0  0  0  0  0  0  0  0  0  0  0  0
    3.5427    4.1380    8.0132 C   0  0  2  0  0  0  0  0  0  0  0  0
    2.7487    5.3448    8.5574 C   0  0  0  0  0  0  0  0  0  0  0  0
    2.2717    6.4251    7.5842 C   0  0  0  0  0  0  0  0  0  0  0  0
    1.6110    5.9614    6.2762 C   0  0  1  0  0  0  0  0  0  0  0  0
    0.7833    7.1608    5.7366 C   0  0  0  0  0  0  0  0  0  0  0  0
    2.4139    5.2081    5.1189 C   0  0  1  0  0  0  0  0  0  0  0  0
    3.1524    6.2364    4.4732 O   0  0  0  0  0  0  0  0  0  0  0  0
    3.6512    4.0676    5.4734 C   0  0  1  0  0  0  0  0  0  0  0  0
    4.4885    4.4022    6.7566 C   0  0  0  0  0  0  0  0  0  0  0  0
    5.1529    5.8190    6.7308 C   0  0  0  0  0  0  0  0  0  0  0  0
    5.7924    3.5265    6.8334 C   0  0  0  0  0  0  0  0  0  0  0  0
    3.3086    2.4197    5.4272 C   0  0  1  0  0  0  0  0  0  0  0  0
    3.0574    1.2465    4.1748 C   0  0  1  0  0  0  0  0  0  0  0  0
    3.9548    0.0059    4.3615 C   0  0  0  0  0  0  0  0  0  0  0  0
    1.4250    0.7247    3.6559 C   0  0  0  0  0  0  0  0  0  0  0  0
   -0.1023    1.3993    4.1924 C   0  0  2  0  0  0  0  0  0  0  0  0
   -0.6311    2.7313    3.5026 C   0  0  0  0  0  0  0  0  0  0  0  0
   -0.2271    4.1178    4.2335 C   0  0  1  0  0  0  0  0  0  0  0  0
   -0.6721    4.0572    5.5997 O   0  0  0  0  0  0  0  0  0  0  0  0
   -1.4364    2.9206    5.9807 C   0  0  0  0  0  0  0  0  0  0  0  0
   -0.6042    1.6247    5.8001 C   0  0  2  0  0  0  0  0  0  0  0  0
   -1.6210    0.5006    6.0616 C   0  0  0  0  0  0  0  0  0  0  0  0
    1.2886    4.6646    4.0227 C   0  0  1  0  0  0  0  0  0  0  0  0
    1.2767    5.5369    2.9086 O   0  0  0  0  0  0  0  0  0  0  0  0
    1.9028    3.3965    3.7186 C   0  0  2  0  0  0  0  0  0  0  0  0
    1.8168    2.9850    2.3345 O   0  0  0  0  0  0  0  0  0  0  0  0
    1.9834    2.6003    5.2563 C   0  0  1  0  0  0  0  0  0  0  0  0
   -0.1509    2.1465   11.7491 H   0  0  0  0  0  0  0  0  0  0  0  0
   -1.8665    2.2369   11.3017 H   0  0  0  0  0  0  0  0  0  0  0  0
   -1.0223    3.7029   11.7505 H   0  0  0  0  0  0  0  0  0  0  0  0
    0.6887    3.6487    7.7075 H   0  0  0  0  0  0  0  0  0  0  0  0
    0.2681    0.6592    7.6293 H   0  0  0  0  0  0  0  0  0  0  0  0
    1.3298    0.2472    5.8243 H   0  0  0  0  0  0  0  0  0  0  0  0
    4.3842    1.4907    7.1358 H   0  0  0  0  0  0  0  0  0  0  0  0
    2.8253    1.2223    9.1581 H   0  0  0  0  0  0  0  0  0  0  0  0
    4.2857    4.0160    8.8114 H   0  0  0  0  0  0  0  0  0  0  0  0
    1.9143    4.9737    9.1535 H   0  0  0  0  0  0  0  0  0  0  0  0
    3.3858    5.8476    9.2841 H   0  0  0  0  0  0  0  0  0  0  0  0
    1.4995    6.9267    8.1543 H   0  0  0  0  0  0  0  0  0  0  0  0
    2.9775    7.2375    7.4547 H   0  0  0  0  0  0  0  0  0  0  0  0
    0.8687    5.2877    6.6546 H   0  0  0  0  0  0  0  0  0  0  0  0
    1.4170    7.9880    5.4057 H   0  0  0  0  0  0  0  0  0  0  0  0
    0.1192    7.5586    6.5087 H   0  0  0  0  0  0  0  0  0  0  0  0
    0.1447    6.8915    4.8927 H   0  0  0  0  0  0  0  0  0  0  0  0
    3.3236    5.9401    3.5854 H   0  0  0  0  0  0  0  0  0  0  0  0
    4.3988    4.2103    4.6919 H   0  0  0  0  0  0  0  0  0  0  0  0
    5.9882    5.8704    6.0239 H   0  0  0  0  0  0  0  0  0  0  0  0
    5.5431    6.0930    7.7187 H   0  0  0  0  0  0  0  0  0  0  0  0
    4.5274    6.6255    6.3847 H   0  0  0  0  0  0  0  0  0  0  0  0
    6.7256    4.0909    6.7720 H   0  0  0  0  0  0  0  0  0  0  0  0
    5.8574    2.8083    6.0232 H   0  0  0  0  0  0  0  0  0  0  0  0
    5.8759    2.9793    7.7709 H   0  0  0  0  0  0  0  0  0  0  0  0
    3.5612    1.6361    3.2833 H   0  0  0  0  0  0  0  0  0  0  0  0
    3.5802   -0.6652    5.1414 H   0  0  0  0  0  0  0  0  0  0  0  0
    4.9770    0.2993    4.6198 H   0  0  0  0  0  0  0  0  0  0  0  0
    3.9987   -0.5668    3.4272 H   0  0  0  0  0  0  0  0  0  0  0  0
    1.4139    0.6793    2.5583 H   0  0  0  0  0  0  0  0  0  0  0  0
    1.3795   -0.3492    3.8616 H   0  0  0  0  0  0  0  0  0  0  0  0
   -0.7695    0.6566    3.7658 H   0  0  0  0  0  0  0  0  0  0  0  0
   -0.4618    2.7461    2.4167 H   0  0  0  0  0  0  0  0  0  0  0  0
   -1.7157    2.6601    3.4769 H   0  0  0  0  0  0  0  0  0  0  0  0
   -0.8805    4.8879    3.8159 H   0  0  0  0  0  0  0  0  0  0  0  0
   -1.7313    3.0011    7.0082 H   0  0  0  0  0  0  0  0  0  0  0  0
   -2.3648    2.9116    5.3910 H   0  0  0  0  0  0  0  0  0  0  0  0
   -2.4610    0.5623    5.3661 H   0  0  0  0  0  0  0  0  0  0  0  0
   -2.0409    0.6185    7.0657 H   0  0  0  0  0  0  0  0  0  0  0  0
   -1.1953   -0.5028    5.9752 H   0  0  0  0  0  0  0  0  0  0  0  0
    0.7030    5.1696    2.2219 H   0  0  0  0  0  0  0  0  0  0  0  0
    2.8879    3.7001    3.3766 H   0  0  0  0  0  0  0  0  0  0  0  0
    1.2034    3.5214    1.8369 H   0  0  0  0  0  0  0  0  0  0  0  0
    1.5539    3.3068    5.9097 H   0  0  0  0  0  0  0  0  0  0  0  0
  1  2  1  0
  1 39  1  0
  1 40  1  0
  1 41  1  0
  2  3  2  0
  2  4  1  0
  4  5  1  0
  5 10  1  0
  5  6  1  0
  5 42  1  6
  6 32  1  0
  6  7  1  0
  6 43  1  1
  7 38  1  0
  7  8  1  0
  7 44  1  6
  8  9  1  0
  9 23  1  0
  9 10  1  0
  9 45  1  1
 10 11  1  1
 10 12  1  0
 11 46  1  0
 12 20  1  0
 12 13  1  0
 12 47  1  1
 13 14  1  0
 13 48  1  0
 13 49  1  0
 14 15  1  0
 14 50  1  0
 14 51  1  0
 15 16  1  0
 15 17  1  0
 15 52  1  1
 16 53  1  0
 16 54  1  0
 16 55  1  0
 17 34  1  0
 17 18  1  6
 17 19  1  0
 18 56  1  0
 19 20  1  0
 19 23  1  0
 19 57  1  6
 20 21  1  0
 20 22  1  0
 21 58  1  0
 21 59  1  0
 21 60  1  0
 22 61  1  0
 22 62  1  0
 22 63  1  0
 23 38  1  0
 23 24  1  6
 24 25  1  0
 24 26  1  0
 24 64  1  6
 25 65  1  0
 25 66  1  0
 25 67  1  0
 26 27  1  0
 26 68  1  0
 26 69  1  0
 27 32  1  0
 27 28  1  0
 27 70  1  6
 28 29  1  0
 28 71  1  0
 28 72  1  0
 29 30  1  0
 29 34  1  0
 29 73  1  6
 30 31  1  0
 31 32  1  0
 31 74  1  0
 31 75  1  0
 32 33  1  1
 33 76  1  0
 33 77  1  0
 33 78  1  0
 34 35  1  6
 34 36  1  0
 35 79  1  0
 36 37  1  0
 36 38  1  0
 36 80  1  6
 37 81  1  0
 38 82  1  1
M  END
>  <i_m_ct_stereo_status>  (311) 
1

>  <s_m_source_file>  (311) 
/var/tmp/pbs.5076255.sched01/tmpycp4azd_/132pnz8hy5b.sdf

>  <i_m_source_file_index>  (311) 
22

>  <i_lp_mmshare_version>  (311) 
48012

>  <i_f3d_flags>  (311) 
0

>  <s_epik_input>  (311) 
W0NIM11DKD1PKU9bQ0BASF0xW0NASF0oW0NASF0oTzIpW0NIXTNbQ0BASF00W09IXSlbQ0BdKFtDSDJdTzUpKFtDSDNdKVtDQEhdKFtDSDJdW0NAQEhdNltDSDNdKVtDSDJdW0NAQEhdNVtDQEBdNChbT0hdKVtDQF0oW09IXSkoW0NASF03QzgoW0NIM10pW0NIM10pW0NASF0oW0NIM10pW0NIMl1bQ0gyXVtDQEhdOFtDQEBdMShbQ0BASF0yW0NAXTM2NylbT0hd

>  <s_epik_cmdline>  (311) 
J2VwaWtfcHl0aG9uJywgJy1waHQnLCAnMi4wJywgJy1waCcsICc3LjAnLCAnLXRuJywgJzgnLCAnLW1hJywgJzIwMCcsICctaW1hZScsICc8aW5maWxlLm1hZT4nLCAnLW9tYWUnLCAnPG91dGZpbGUubWFlPic=

>  <r_lp_tautomer_probability>  (311) 
1

>  <r_epik_Ionization_Penalty>  (311) 
5.54768e-07

>  <r_epik_Ionization_Penalty_Charging>  (311) 
0

>  <r_epik_Ionization_Penalty_Neutral>  (311) 
5.54768e-07

>  <r_epik_State_Penalty>  (311) 
-0

>  <r_epik_Charging_Adjusted_Penalty>  (311) 
0

>  <i_epik_Tot_Q>  (311) 
0

>  <i_epik_Tot_abs_Q>  (311) 
0

>  <s_epik_Chemistry_Notes>  (311) 
This compound has an ester and may undergo hydrolysis at high or low pH.

>  <s_lp_Force_Field>  (311) 
OPLS3e

>  <r_lp_Energy>  (311) 
527.621

>  <b_lp_Chiralities_Consistent>  (311) 
1

>  <s_lp_Variant>  (311) 
101:0-3

>  <s_i_glide_gridfile>  (311) 
pfpi4k_grid

>  <i_i_glide_lignum>  (311) 
22

>  <i_i_glide_rotatable_bonds>  (311) 
6

>  <r_i_docking_score>  (311) 
-2.33317

>  <r_i_glide_ligand_efficiency>  (311) 
-0.0613992

>  <r_i_glide_ligand_efficiency_sa>  (311) 
-0.206422

>  <r_i_glide_ligand_efficiency_ln>  (311) 
-0.5031

>  <r_i_glide_gscore>  (311) 
-2.33317

>  <r_i_glide_lipo>  (311) 
-0.0436654

>  <r_i_glide_hbond>  (311) 
0

>  <r_i_glide_metal>  (311) 
-0

>  <r_i_glide_rewards>  (311) 
0

>  <r_i_glide_evdw>  (311) 
-23.9689

>  <r_i_glide_ecoul>  (311) 
-7.66103

>  <r_i_glide_erotb>  (311) 
0.0727005

>  <r_i_glide_esite>  (311) 
-0.0146027

>  <r_i_glide_emodel>  (311) 
-35.785

>  <r_i_glide_energy>  (311) 
-31.63

>  <r_i_glide_einternal>  (311) 
1.4851

>  <r_i_glide_intrahb_reward>  (311) 
-0

>  <i_i_glide_confnum>  (311) 
4

>  <i_i_glide_posenum>  (311) 
18

>  <r_i_glide_eff_state_penalty>  (311) 
0

>  <ligand_id>  (311) 
101

>  <original_smiles>  (311) 
CC(=O)OC1C2C3OC4C1(O)C1CCC(C)C5(O)C(C1(C)C)C41C(C)CC4CC(OCC42C)C5(O)C(O)C31

>  <smiles>  (311) 
[H]OC1([H])C2([H])C3([H])OC4([H])C5(O[H])C([H])(OC(=O)C([H])([H])[H])C3([H])C3(C([H])([H])[H])C([H])([H])OC6([H])C([H])([H])C3([H])C([H])([H])C([H])(C([H])([H])[H])C42C2([H])C(O[H])(C([H])(C([H])([H])[H])C([H])([H])C([H])([H])C5([H])C2(C([H])([H])[H])C([H])([H])[H])C61O[H]

$$$$
101:2:2
     RDKit          3D

 82 89  0  0  1  0  0  0  0  0999 V2000
    5.0363    6.2540    6.0106 C   0  0  0  0  0  0  0  0  0  0  0  0
    4.2314    4.9777    6.2231 C   0  0  0  0  0  0  0  0  0  0  0  0
    4.8006    3.9143    6.4610 O   0  0  0  0  0  0  0  0  0  0  0  0
    2.8919    5.1815    6.1589 O   0  0  0  0  0  0  0  0  0  0  0  0
    1.9552    4.0874    6.2028 C   0  0  2  0  0  0  0  0  0  0  0  0
    1.6360    3.6107    4.6827 C   0  0  2  0  0  0  0  0  0  0  0  0
    0.2569    3.2894    4.7361 C   0  0  2  0  0  0  0  0  0  0  0  0
   -0.4687    4.4145    5.0851 O   0  0  0  0  0  0  0  0  0  0  0  0
   -0.7231    4.0947    6.3790 C   0  0  2  0  0  0  0  0  0  0  0  0
    0.6167    4.4898    7.0968 C   0  0  2  0  0  0  0  0  0  0  0  0
    0.5313    5.9002    7.1057 O   0  0  0  0  0  0  0  0  0  0  0  0
    0.4338    4.0628    8.6233 C   0  0  2  0  0  0  0  0  0  0  0  0
    1.7522    3.7725    9.3650 C   0  0  0  0  0  0  0  0  0  0  0  0
    2.1048    2.3238    9.7321 C   0  0  0  0  0  0  0  0  0  0  0  0
    1.9056    1.2417    8.6522 C   0  0  1  0  0  0  0  0  0  0  0  0
    2.7785    0.0284    9.0600 C   0  0  0  0  0  0  0  0  0  0  0  0
    0.4703    0.8097    8.1072 C   0  0  1  0  0  0  0  0  0  0  0  0
   -0.0924   -0.0348    9.0912 O   0  0  0  0  0  0  0  0  0  0  0  0
   -0.7965    1.9486    7.9029 C   0  0  1  0  0  0  0  0  0  0  0  0
   -0.7999    3.1121    8.9612 C   0  0  0  0  0  0  0  0  0  0  0  0
   -0.8642    2.6170   10.4459 C   0  0  0  0  0  0  0  0  0  0  0  0
   -2.1617    3.9080    8.9206 C   0  0  0  0  0  0  0  0  0  0  0  0
   -1.1068    2.5698    6.3685 C   0  0  1  0  0  0  0  0  0  0  0  0
   -1.8565    1.9741    4.9163 C   0  0  1  0  0  0  0  0  0  0  0  0
   -2.9324    2.9535    4.3968 C   0  0  0  0  0  0  0  0  0  0  0  0
   -0.9397    1.3486    3.5398 C   0  0  0  0  0  0  0  0  0  0  0  0
    0.7905    1.1035    3.4771 C   0  0  2  0  0  0  0  0  0  0  0  0
    1.4024   -0.2245    4.1010 C   0  0  0  0  0  0  0  0  0  0  0  0
    1.8852   -0.1046    5.6435 C   0  0  1  0  0  0  0  0  0  0  0  0
    2.8189    0.9814    5.7706 O   0  0  0  0  0  0  0  0  0  0  0  0
    3.2181    1.6308    4.5627 C   0  0  0  0  0  0  0  0  0  0  0  0
    1.9811    2.2596    3.8665 C   0  0  2  0  0  0  0  0  0  0  0  0
    2.5418    2.7308    2.5230 C   0  0  0  0  0  0  0  0  0  0  0  0
    0.7429   -0.1651    6.7902 C   0  0  1  0  0  0  0  0  0  0  0  0
    0.5892   -1.5298    7.1398 O   0  0  0  0  0  0  0  0  0  0  0  0
   -0.3602    0.3179    5.9905 C   0  0  2  0  0  0  0  0  0  0  0  0
   -1.0275   -0.7100    5.2362 O   0  0  0  0  0  0  0  0  0  0  0  0
   -0.0190    2.0085    5.7978 C   0  0  1  0  0  0  0  0  0  0  0  0
    4.4035    7.1335    5.8682 H   0  0  0  0  0  0  0  0  0  0  0  0
    5.6911    6.1632    5.1466 H   0  0  0  0  0  0  0  0  0  0  0  0
    5.6660    6.4168    6.8830 H   0  0  0  0  0  0  0  0  0  0  0  0
    2.4733    3.2827    6.7119 H   0  0  0  0  0  0  0  0  0  0  0  0
    1.7354    4.4802    4.0368 H   0  0  0  0  0  0  0  0  0  0  0  0
   -0.0656    3.3960    3.7086 H   0  0  0  0  0  0  0  0  0  0  0  0
   -1.5586    4.7077    6.6804 H   0  0  0  0  0  0  0  0  0  0  0  0
    1.3309    6.2400    7.4821 H   0  0  0  0  0  0  0  0  0  0  0  0
    0.1294    4.9786    9.1342 H   0  0  0  0  0  0  0  0  0  0  0  0
    2.5802    4.2197    8.8179 H   0  0  0  0  0  0  0  0  0  0  0  0
    1.7326    4.3239   10.3058 H   0  0  0  0  0  0  0  0  0  0  0  0
    3.1787    2.3787    9.9185 H   0  0  0  0  0  0  0  0  0  0  0  0
    1.7517    2.0256   10.7141 H   0  0  0  0  0  0  0  0  0  0  0  0
    2.4523    1.6842    7.8449 H   0  0  0  0  0  0  0  0  0  0  0  0
    2.4010   -0.4633    9.9570 H   0  0  0  0  0  0  0  0  0  0  0  0
    3.8051    0.3358    9.2682 H   0  0  0  0  0  0  0  0  0  0  0  0
    2.8489   -0.7223    8.2756 H   0  0  0  0  0  0  0  0  0  0  0  0
   -0.0643    0.4282    9.9303 H   0  0  0  0  0  0  0  0  0  0  0  0
   -1.7156    1.4231    8.1632 H   0  0  0  0  0  0  0  0  0  0  0  0
   -1.8457    2.2072   10.7060 H   0  0  0  0  0  0  0  0  0  0  0  0
   -0.6710    3.4425   11.1384 H   0  0  0  0  0  0  0  0  0  0  0  0
   -0.2111    1.8014   10.7089 H   0  0  0  0  0  0  0  0  0  0  0  0
   -2.7602    3.8506    9.8341 H   0  0  0  0  0  0  0  0  0  0  0  0
   -2.8332    3.5539    8.1363 H   0  0  0  0  0  0  0  0  0  0  0  0
   -2.0135    4.9805    8.7842 H   0  0  0  0  0  0  0  0  0  0  0  0
   -2.5271    1.1736    5.2318 H   0  0  0  0  0  0  0  0  0  0  0  0
   -2.5139    3.8204    3.8964 H   0  0  0  0  0  0  0  0  0  0  0  0
   -3.5527    3.3013    5.2251 H   0  0  0  0  0  0  0  0  0  0  0  0
   -3.5840    2.4561    3.6682 H   0  0  0  0  0  0  0  0  0  0  0  0
   -1.4290    0.4468    3.1814 H   0  0  0  0  0  0  0  0  0  0  0  0
   -1.1750    2.0028    2.6996 H   0  0  0  0  0  0  0  0  0  0  0  0
    0.9021    0.9246    2.4045 H   0  0  0  0  0  0  0  0  0  0  0  0
    0.8195   -1.1126    3.8816 H   0  0  0  0  0  0  0  0  0  0  0  0
    2.2675   -0.4738    3.4919 H   0  0  0  0  0  0  0  0  0  0  0  0
    2.5225   -0.9736    5.8210 H   0  0  0  0  0  0  0  0  0  0  0  0
    3.9462    2.3972    4.7680 H   0  0  0  0  0  0  0  0  0  0  0  0
    3.7369    0.9028    3.9233 H   0  0  0  0  0  0  0  0  0  0  0  0
    2.9577    1.8817    1.9710 H   0  0  0  0  0  0  0  0  0  0  0  0
    3.3461    3.4509    2.6688 H   0  0  0  0  0  0  0  0  0  0  0  0
    1.7972    3.2057    1.8845 H   0  0  0  0  0  0  0  0  0  0  0  0
    0.7514   -2.0407    6.3514 H   0  0  0  0  0  0  0  0  0  0  0  0
   -1.2299    0.1376    6.6232 H   0  0  0  0  0  0  0  0  0  0  0  0
   -0.5439   -0.8211    4.4140 H   0  0  0  0  0  0  0  0  0  0  0  0
    0.8694    2.1231    6.3519 H   0  0  0  0  0  0  0  0  0  0  0  0
  1  2  1  0
  1 39  1  0
  1 40  1  0
  1 41  1  0
  2  3  2  0
  2  4  1  0
  4  5  1  0
  5 10  1  0
  5  6  1  0
  5 42  1  1
  6 32  1  0
  6  7  1  0
  6 43  1  6
  7 38  1  0
  7  8  1  0
  7 44  1  6
  8  9  1  0
  9 23  1  0
  9 10  1  0
  9 45  1  1
 10 11  1  1
 10 12  1  0
 11 46  1  0
 12 20  1  0
 12 13  1  0
 12 47  1  1
 13 14  1  0
 13 48  1  0
 13 49  1  0
 14 15  1  0
 14 50  1  0
 14 51  1  0
 15 16  1  0
 15 17  1  0
 15 52  1  6
 16 53  1  0
 16 54  1  0
 16 55  1  0
 17 34  1  0
 17 18  1  1
 17 19  1  0
 18 56  1  0
 19 20  1  0
 19 23  1  0
 19 57  1  1
 20 21  1  0
 20 22  1  0
 21 58  1  0
 21 59  1  0
 21 60  1  0
 22 61  1  0
 22 62  1  0
 22 63  1  0
 23 38  1  0
 23 24  1  6
 24 25  1  0
 24 26  1  0
 24 64  1  1
 25 65  1  0
 25 66  1  0
 25 67  1  0
 26 27  1  0
 26 68  1  0
 26 69  1  0
 27 32  1  0
 27 28  1  0
 27 70  1  6
 28 29  1  0
 28 71  1  0
 28 72  1  0
 29 30  1  0
 29 34  1  0
 29 73  1  1
 30 31  1  0
 31 32  1  0
 31 74  1  0
 31 75  1  0
 32 33  1  6
 33 76  1  0
 33 77  1  0
 33 78  1  0
 34 35  1  1
 34 36  1  0
 35 79  1  0
 36 37  1  0
 36 38  1  0
 36 80  1  1
 37 81  1  0
 38 82  1  1
M  END
>  <i_m_ct_stereo_status>  (312) 
1

>  <s_m_source_file>  (312) 
/var/tmp/pbs.5076255.sched01/tmpycp4azd_/132pnz8hy5b.sdf

>  <i_m_source_file_index>  (312) 
22

>  <i_lp_mmshare_version>  (312) 
48012

>  <i_f3d_flags>  (312) 
0

>  <s_epik_input>  (312) 
W0NIM11DKD1PKU9bQ0BASF0xW0NASF0oW0NASF0oTzIpW0NIXTNbQ0BASF00W09IXSlbQ0BdKFtDSDJdTzUpKFtDSDNdKVtDQEhdKFtDSDJdW0NAQEhdNltDSDNdKVtDSDJdW0NAQEhdNVtDQEBdNChbT0hdKVtDQF0oW09IXSkoW0NASF03QzgoW0NIM10pW0NIM10pW0NASF0oW0NIM10pW0NIMl1bQ0gyXVtDQEhdOFtDQEBdMShbQ0BASF0yW0NAXTM2NylbT0hd

>  <s_epik_cmdline>  (312) 
J2VwaWtfcHl0aG9uJywgJy1waHQnLCAnMi4wJywgJy1waCcsICc3LjAnLCAnLXRuJywgJzgnLCAnLW1hJywgJzIwMCcsICctaW1hZScsICc8aW5maWxlLm1hZT4nLCAnLW9tYWUnLCAnPG91dGZpbGUubWFlPic=

>  <r_lp_tautomer_probability>  (312) 
1

>  <r_epik_Ionization_Penalty>  (312) 
5.54768e-07

>  <r_epik_Ionization_Penalty_Charging>  (312) 
0

>  <r_epik_Ionization_Penalty_Neutral>  (312) 
5.54768e-07

>  <r_epik_State_Penalty>  (312) 
-0

>  <r_epik_Charging_Adjusted_Penalty>  (312) 
0

>  <i_epik_Tot_Q>  (312) 
0

>  <i_epik_Tot_abs_Q>  (312) 
0

>  <s_epik_Chemistry_Notes>  (312) 
This compound has an ester and may undergo hydrolysis at high or low pH.

>  <s_lp_Force_Field>  (312) 
OPLS3e

>  <r_lp_Energy>  (312) 
527.621

>  <b_lp_Chiralities_Consistent>  (312) 
1

>  <s_lp_Variant>  (312) 
101:0-3

>  <s_i_glide_gridfile>  (312) 
pfpi4k_grid

>  <i_i_glide_lignum>  (312) 
22

>  <i_i_glide_rotatable_bonds>  (312) 
6

>  <r_i_docking_score>  (312) 
-2.04857

>  <r_i_glide_ligand_efficiency>  (312) 
-0.0539097

>  <r_i_glide_ligand_efficiency_sa>  (312) 
-0.181243

>  <r_i_glide_ligand_efficiency_ln>  (312) 
-0.441731

>  <r_i_glide_gscore>  (312) 
-2.04857

>  <r_i_glide_lipo>  (312) 
-0.0134364

>  <r_i_glide_hbond>  (312) 
0

>  <r_i_glide_metal>  (312) 
-0

>  <r_i_glide_rewards>  (312) 
-0.000177021

>  <r_i_glide_evdw>  (312) 
-24.3035

>  <r_i_glide_ecoul>  (312) 
-5.94987

>  <r_i_glide_erotb>  (312) 
0.0727005

>  <r_i_glide_esite>  (312) 
0

>  <r_i_glide_emodel>  (312) 
-34.9093

>  <r_i_glide_energy>  (312) 
-30.2533

>  <r_i_glide_einternal>  (312) 
0.272437

>  <r_i_glide_intrahb_reward>  (312) 
-0

>  <i_i_glide_confnum>  (312) 
2

>  <i_i_glide_posenum>  (312) 
9

>  <r_i_glide_eff_state_penalty>  (312) 
0

>  <ligand_id>  (312) 
101

>  <original_smiles>  (312) 
CC(=O)OC1C2C3OC4C1(O)C1CCC(C)C5(O)C(C1(C)C)C41C(C)CC4CC(OCC42C)C5(O)C(O)C31

>  <smiles>  (312) 
[H]OC1([H])C2([H])C3([H])OC4([H])C5(O[H])C([H])(OC(=O)C([H])([H])[H])C3([H])C3(C([H])([H])[H])C([H])([H])OC6([H])C([H])([H])C3([H])C([H])([H])C([H])(C([H])([H])[H])C42C2([H])C(O[H])(C([H])(C([H])([H])[H])C([H])([H])C([H])([H])C5([H])C2(C([H])([H])[H])C([H])([H])[H])C61O[H]

$$$$
101:3:0
     RDKit          3D

 82 89  0  0  1  0  0  0  0  0999 V2000
   -2.9996    3.5750   10.3689 C   0  0  0  0  0  0  0  0  0  0  0  0
   -1.8054    3.5561    9.4333 C   0  0  0  0  0  0  0  0  0  0  0  0
   -1.0285    4.5218    9.3513 O   0  0  0  0  0  0  0  0  0  0  0  0
   -1.7106    2.4138    8.7391 O   0  0  0  0  0  0  0  0  0  0  0  0
   -0.6506    2.1732    7.8097 C   0  0  2  0  0  0  0  0  0  0  0  0
   -1.2727    1.9469    6.3245 C   0  0  2  0  0  0  0  0  0  0  0  0
   -0.4336    0.9349    5.7834 C   0  0  2  0  0  0  0  0  0  0  0  0
   -0.5676   -0.1950    6.5640 O   0  0  0  0  0  0  0  0  0  0  0  0
    0.6243   -0.1130    7.2263 C   0  0  2  0  0  0  0  0  0  0  0  0
    0.3151    0.9422    8.3553 C   0  0  2  0  0  0  0  0  0  0  0  0
   -0.4631    0.1790    9.2572 O   0  0  0  0  0  0  0  0  0  0  0  0
    1.6793    1.1881    9.1431 C   0  0  2  0  0  0  0  0  0  0  0  0
    1.7926    2.5421    9.8647 C   0  0  0  0  0  0  0  0  0  0  0  0
    2.7115    3.6350    9.2672 C   0  0  0  0  0  0  0  0  0  0  0  0
    2.6864    3.8721    7.7482 C   0  0  1  0  0  0  0  0  0  0  0  0
    3.2828    5.2790    7.4847 C   0  0  0  0  0  0  0  0  0  0  0  0
    3.2043    2.7875    6.7084 C   0  0  1  0  0  0  0  0  0  0  0  0
    4.6138    2.8918    6.7433 O   0  0  0  0  0  0  0  0  0  0  0  0
    2.9589    1.1002    6.9436 C   0  0  1  0  0  0  0  0  0  0  0  0
    2.9985    0.6507    8.4530 C   0  0  0  0  0  0  0  0  0  0  0  0
    4.3127    1.0438    9.1845 C   0  0  0  0  0  0  0  0  0  0  0  0
    3.0851   -0.9111    8.5768 C   0  0  0  0  0  0  0  0  0  0  0  0
    1.6951    0.3118    6.1361 C   0  0  1  0  0  0  0  0  0  0  0  0
    1.3666   -0.2250    4.4989 C   0  0  1  0  0  0  0  0  0  0  0  0
    0.8640   -1.6792    4.4595 C   0  0  0  0  0  0  0  0  0  0  0  0
    0.4408    0.7566    3.3500 C   0  0  0  0  0  0  0  0  0  0  0  0
   -0.2459    2.3509    3.6433 C   0  0  2  0  0  0  0  0  0  0  0  0
    0.6721    3.6266    3.4304 C   0  0  0  0  0  0  0  0  0  0  0  0
    1.4337    4.1520    4.7397 C   0  0  1  0  0  0  0  0  0  0  0  0
    0.4962    4.4288    5.7743 O   0  0  0  0  0  0  0  0  0  0  0  0
   -0.8790    4.2729    5.4603 C   0  0  0  0  0  0  0  0  0  0  0  0
   -1.1908    2.8320    4.9759 C   0  0  2  0  0  0  0  0  0  0  0  0
   -2.6209    2.9211    4.4095 C   0  0  0  0  0  0  0  0  0  0  0  0
    2.7415    3.3220    5.2081 C   0  0  1  0  0  0  0  0  0  0  0  0
    3.8098    3.9486    4.4865 O   0  0  0  0  0  0  0  0  0  0  0  0
    2.4139    2.0334    4.6215 C   0  0  1  0  0  0  0  0  0  0  0  0
    3.6790    1.3713    4.3584 O   0  0  0  0  0  0  0  0  0  0  0  0
    1.1630    1.4649    5.6733 C   0  0  1  0  0  0  0  0  0  0  0  0
   -3.7933    2.8951   10.0396 H   0  0  0  0  0  0  0  0  0  0  0  0
   -3.3824    4.5850   10.3849 H   0  0  0  0  0  0  0  0  0  0  0  0
   -2.7441    3.3252   11.3978 H   0  0  0  0  0  0  0  0  0  0  0  0
   -0.0724    3.0848    7.7767 H   0  0  0  0  0  0  0  0  0  0  0  0
   -2.2677    1.5201    6.4322 H   0  0  0  0  0  0  0  0  0  0  0  0
   -1.0352    0.4883    5.0060 H   0  0  0  0  0  0  0  0  0  0  0  0
    0.7940   -1.1245    7.5906 H   0  0  0  0  0  0  0  0  0  0  0  0
   -0.5994    0.7099   10.0233 H   0  0  0  0  0  0  0  0  0  0  0  0
    1.6273    0.5257   10.0033 H   0  0  0  0  0  0  0  0  0  0  0  0
    0.7885    2.9367   10.0107 H   0  0  0  0  0  0  0  0  0  0  0  0
    2.1991    2.3397   10.8728 H   0  0  0  0  0  0  0  0  0  0  0  0
    2.3056    4.5379    9.7169 H   0  0  0  0  0  0  0  0  0  0  0  0
    3.7316    3.6576    9.6594 H   0  0  0  0  0  0  0  0  0  0  0  0
    1.6354    4.0164    7.6085 H   0  0  0  0  0  0  0  0  0  0  0  0
    4.3460    5.3149    7.7222 H   0  0  0  0  0  0  0  0  0  0  0  0
    2.7933    6.0376    8.0980 H   0  0  0  0  0  0  0  0  0  0  0  0
    3.1710    5.6129    6.4535 H   0  0  0  0  0  0  0  0  0  0  0  0
    4.9252    2.3998    6.0019 H   0  0  0  0  0  0  0  0  0  0  0  0
    3.8544    0.6092    6.5670 H   0  0  0  0  0  0  0  0  0  0  0  0
    5.1612    0.4249    8.8876 H   0  0  0  0  0  0  0  0  0  0  0  0
    4.1839    0.9413   10.2612 H   0  0  0  0  0  0  0  0  0  0  0  0
    4.6793    2.0395    8.9785 H   0  0  0  0  0  0  0  0  0  0  0  0
    3.9840   -1.2768    9.0738 H   0  0  0  0  0  0  0  0  0  0  0  0
    3.0688   -1.4200    7.6069 H   0  0  0  0  0  0  0  0  0  0  0  0
    2.2778   -1.3203    9.1875 H   0  0  0  0  0  0  0  0  0  0  0  0
    2.3227   -0.4172    4.0252 H   0  0  0  0  0  0  0  0  0  0  0  0
   -0.1829   -1.7705    4.7271 H   0  0  0  0  0  0  0  0  0  0  0  0
    1.4510   -2.3003    5.1353 H   0  0  0  0  0  0  0  0  0  0  0  0
    0.9826   -2.0741    3.4545 H   0  0  0  0  0  0  0  0  0  0  0  0
    1.0216    0.8191    2.4307 H   0  0  0  0  0  0  0  0  0  0  0  0
   -0.3873    0.1296    3.0105 H   0  0  0  0  0  0  0  0  0  0  0  0
   -0.9035    2.4166    2.7633 H   0  0  0  0  0  0  0  0  0  0  0  0
    1.3352    3.5129    2.5778 H   0  0  0  0  0  0  0  0  0  0  0  0
    0.0195    4.4191    3.0628 H   0  0  0  0  0  0  0  0  0  0  0  0
    1.7838    5.1539    4.4852 H   0  0  0  0  0  0  0  0  0  0  0  0
   -1.4642    4.4887    6.3545 H   0  0  0  0  0  0  0  0  0  0  0  0
   -1.1752    5.0122    4.7188 H   0  0  0  0  0  0  0  0  0  0  0  0
   -2.6688    3.6241    3.5760 H   0  0  0  0  0  0  0  0  0  0  0  0
   -3.3237    3.2580    5.1707 H   0  0  0  0  0  0  0  0  0  0  0  0
   -2.9412    1.9497    4.0441 H   0  0  0  0  0  0  0  0  0  0  0  0
    3.5490    4.0216    3.5659 H   0  0  0  0  0  0  0  0  0  0  0  0
    2.3191    2.0628    3.5501 H   0  0  0  0  0  0  0  0  0  0  0  0
    4.1324    1.8738    3.6844 H   0  0  0  0  0  0  0  0  0  0  0  0
    1.0728    2.2488    6.3763 H   0  0  0  0  0  0  0  0  0  0  0  0
  1  2  1  0
  1 39  1  0
  1 40  1  0
  1 41  1  0
  2  3  2  0
  2  4  1  0
  4  5  1  0
  5 10  1  0
  5  6  1  0
  5 42  1  6
  6 32  1  0
  6  7  1  0
  6 43  1  1
  7 38  1  0
  7  8  1  0
  7 44  1  6
  8  9  1  0
  9 23  1  0
  9 10  1  0
  9 45  1  1
 10 11  1  1
 10 12  1  0
 11 46  1  0
 12 20  1  0
 12 13  1  0
 12 47  1  1
 13 14  1  0
 13 48  1  0
 13 49  1  0
 14 15  1  0
 14 50  1  0
 14 51  1  0
 15 16  1  0
 15 17  1  0
 15 52  1  6
 16 53  1  0
 16 54  1  0
 16 55  1  0
 17 34  1  0
 17 18  1  6
 17 19  1  0
 18 56  1  0
 19 20  1  0
 19 23  1  0
 19 57  1  6
 20 21  1  0
 20 22  1  0
 21 58  1  0
 21 59  1  0
 21 60  1  0
 22 61  1  0
 22 62  1  0
 22 63  1  0
 23 38  1  0
 23 24  1  6
 24 25  1  0
 24 26  1  0
 24 64  1  6
 25 65  1  0
 25 66  1  0
 25 67  1  0
 26 27  1  0
 26 68  1  0
 26 69  1  0
 27 32  1  0
 27 28  1  0
 27 70  1  6
 28 29  1  0
 28 71  1  0
 28 72  1  0
 29 30  1  0
 29 34  1  0
 29 73  1  6
 30 31  1  0
 31 32  1  0
 31 74  1  0
 31 75  1  0
 32 33  1  6
 33 76  1  0
 33 77  1  0
 33 78  1  0
 34 35  1  6
 34 36  1  0
 35 79  1  0
 36 37  1  0
 36 38  1  0
 36 80  1  6
 37 81  1  0
 38 82  1  1
M  END
>  <i_m_ct_stereo_status>  (313) 
1

>  <s_m_source_file>  (313) 
/var/tmp/pbs.5076255.sched01/tmpycp4azd_/132pnz8hy5b.sdf

>  <i_m_source_file_index>  (313) 
23

>  <i_lp_mmshare_version>  (313) 
48012

>  <i_f3d_flags>  (313) 
0

>  <s_epik_input>  (313) 
W0NIM11DKD1PKU9bQ0BASF0xW0NASF0oW0NASF0oTzIpW0NIXTNbQ0BASF00W09IXSlbQ0BdKFtDSDJdTzUpKFtDSDNdKVtDQEhdKFtDSDJdW0NAQEhdNltDSDNdKVtDSDJdW0NAQEhdNVtDQEBdNChbT0hdKVtDQF0oW09IXSkoW0NASF03QzgoW0NIM10pW0NIM10pW0NASF0oW0NIM10pW0NIMl1bQ0gyXVtDQEhdOFtDQEBdMShbQ0BASF0yW0NAXTM2NylbT0hd

>  <s_epik_cmdline>  (313) 
J2VwaWtfcHl0aG9uJywgJy1waHQnLCAnMi4wJywgJy1waCcsICc3LjAnLCAnLXRuJywgJzgnLCAnLW1hJywgJzIwMCcsICctaW1hZScsICc8aW5maWxlLm1hZT4nLCAnLW9tYWUnLCAnPG91dGZpbGUubWFlPic=

>  <r_lp_tautomer_probability>  (313) 
1

>  <r_epik_Ionization_Penalty>  (313) 
5.54768e-07

>  <r_epik_Ionization_Penalty_Charging>  (313) 
0

>  <r_epik_Ionization_Penalty_Neutral>  (313) 
5.54768e-07

>  <r_epik_State_Penalty>  (313) 
-0

>  <r_epik_Charging_Adjusted_Penalty>  (313) 
0

>  <i_epik_Tot_Q>  (313) 
0

>  <i_epik_Tot_abs_Q>  (313) 
0

>  <s_epik_Chemistry_Notes>  (313) 
This compound has an ester and may undergo hydrolysis at high or low pH.

>  <s_lp_Force_Field>  (313) 
OPLS3e

>  <r_lp_Energy>  (313) 
519.192

>  <b_lp_Chiralities_Consistent>  (313) 
1

>  <s_lp_Variant>  (313) 
101:0-4

>  <s_i_glide_gridfile>  (313) 
pfpi4k_grid

>  <i_i_glide_lignum>  (313) 
23

>  <i_i_glide_rotatable_bonds>  (313) 
6

>  <r_i_docking_score>  (313) 
-2.5831

>  <r_i_glide_ligand_efficiency>  (313) 
-0.0679764

>  <r_i_glide_ligand_efficiency_sa>  (313) 
-0.228535

>  <r_i_glide_ligand_efficiency_ln>  (313) 
-0.556993

>  <r_i_glide_gscore>  (313) 
-2.5831

>  <r_i_glide_lipo>  (313) 
0

>  <r_i_glide_hbond>  (313) 
-0.00676063

>  <r_i_glide_metal>  (313) 
-0

>  <r_i_glide_rewards>  (313) 
-0.5

>  <r_i_glide_evdw>  (313) 
-22.0247

>  <r_i_glide_ecoul>  (313) 
-6.85893

>  <r_i_glide_erotb>  (313) 
0.0727005

>  <r_i_glide_esite>  (313) 
-0.01897

>  <r_i_glide_emodel>  (313) 
-38.7803

>  <r_i_glide_energy>  (313) 
-28.8836

>  <r_i_glide_einternal>  (313) 
0.722796

>  <r_i_glide_intrahb_reward>  (313) 
-0.5

>  <i_i_glide_confnum>  (313) 
1

>  <i_i_glide_posenum>  (313) 
18

>  <r_i_glide_eff_state_penalty>  (313) 
0

>  <ligand_id>  (313) 
101

>  <original_smiles>  (313) 
CC(=O)OC1C2C3OC4C1(O)C1CCC(C)C5(O)C(C1(C)C)C41C(C)CC4CC(OCC42C)C5(O)C(O)C31

>  <smiles>  (313) 
[H]OC1([H])C2([H])C3([H])OC4([H])C5(O[H])C([H])(OC(=O)C([H])([H])[H])C3([H])C3(C([H])([H])[H])C([H])([H])OC6([H])C([H])([H])C3([H])C([H])([H])C([H])(C([H])([H])[H])C42C2([H])C(O[H])(C([H])(C([H])([H])[H])C([H])([H])C([H])([H])C5([H])C2(C([H])([H])[H])C([H])([H])[H])C61O[H]

$$$$
101:3:1
     RDKit          3D

 82 89  0  0  1  0  0  0  0  0999 V2000
   -1.8600    6.1996    8.8823 C   0  0  0  0  0  0  0  0  0  0  0  0
   -0.7599    5.3134    8.2863 C   0  0  0  0  0  0  0  0  0  0  0  0
    0.3946    5.6920    8.2848 O   0  0  0  0  0  0  0  0  0  0  0  0
   -1.2565    4.1565    7.7785 O   0  0  0  0  0  0  0  0  0  0  0  0
   -0.4416    3.1060    7.2114 C   0  0  2  0  0  0  0  0  0  0  0  0
   -1.1690    2.5377    5.8586 C   0  0  2  0  0  0  0  0  0  0  0  0
   -0.8723    1.1499    5.9041 C   0  0  2  0  0  0  0  0  0  0  0  0
   -1.4204    0.5889    7.0401 O   0  0  0  0  0  0  0  0  0  0  0  0
   -0.2885    0.4725    7.7819 C   0  0  2  0  0  0  0  0  0  0  0  0
   -0.0685    1.9377    8.3405 C   0  0  2  0  0  0  0  0  0  0  0  0
   -1.0927    2.0094    9.3290 O   0  0  0  0  0  0  0  0  0  0  0  0
    1.3211    1.8977    9.1463 C   0  0  2  0  0  0  0  0  0  0  0  0
    2.0491    3.2550    9.2604 C   0  0  0  0  0  0  0  0  0  0  0  0
    3.3218    3.5136    8.4069 C   0  0  0  0  0  0  0  0  0  0  0  0
    3.3220    3.0661    6.9264 C   0  0  1  0  0  0  0  0  0  0  0  0
    4.4513    3.8570    6.2031 C   0  0  0  0  0  0  0  0  0  0  0  0
    3.2595    1.5303    6.4850 C   0  0  1  0  0  0  0  0  0  0  0  0
    4.5914    1.0716    6.6919 O   0  0  0  0  0  0  0  0  0  0  0  0
    2.3179    0.3727    7.3648 C   0  0  1  0  0  0  0  0  0  0  0  0
    2.2366    0.6278    8.9243 C   0  0  0  0  0  0  0  0  0  0  0  0
    3.6333    0.7409    9.6153 C   0  0  0  0  0  0  0  0  0  0  0  0
    1.6308   -0.6096    9.6855 C   0  0  0  0  0  0  0  0  0  0  0  0
    0.7959   -0.0855    6.7717 C   0  0  1  0  0  0  0  0  0  0  0  0
    0.1788   -1.0821    5.4694 C   0  0  1  0  0  0  0  0  0  0  0  0
   -0.9053   -2.0699    5.9533 C   0  0  0  0  0  0  0  0  0  0  0  0
   -0.2877   -0.3919    3.9011 C   0  0  0  0  0  0  0  0  0  0  0  0
   -0.2221    1.3063    3.4141 C   0  0  2  0  0  0  0  0  0  0  0  0
    1.1345    1.8713    2.8143 C   0  0  0  0  0  0  0  0  0  0  0  0
    2.1246    2.5332    3.9033 C   0  0  1  0  0  0  0  0  0  0  0  0
    1.4457    3.5669    4.6087 O   0  0  0  0  0  0  0  0  0  0  0  0
    0.1312    3.8895    4.1851 C   0  0  0  0  0  0  0  0  0  0  0  0
   -0.8061    2.6544    4.2845 C   0  0  2  0  0  0  0  0  0  0  0  0
   -2.0997    3.0771    3.5415 C   0  0  0  0  0  0  0  0  0  0  0  0
    2.9920    1.5303    4.8394 C   0  0  1  0  0  0  0  0  0  0  0  0
    4.1811    1.3084    4.0862 O   0  0  0  0  0  0  0  0  0  0  0  0
    2.1002    0.3807    4.7947 C   0  0  1  0  0  0  0  0  0  0  0  0
    2.9182   -0.7917    4.9968 O   0  0  0  0  0  0  0  0  0  0  0  0
    0.7917    0.8710    5.8180 C   0  0  1  0  0  0  0  0  0  0  0  0
   -2.8556    5.9401    8.4846 H   0  0  0  0  0  0  0  0  0  0  0  0
   -1.6124    7.2238    8.6108 H   0  0  0  0  0  0  0  0  0  0  0  0
   -1.8738    6.1299    9.9789 H   0  0  0  0  0  0  0  0  0  0  0  0
    0.4756    3.5904    6.8987 H   0  0  0  0  0  0  0  0  0  0  0  0
   -2.2490    2.6490    5.9869 H   0  0  0  0  0  0  0  0  0  0  0  0
   -1.6508    0.6864    5.2938 H   0  0  0  0  0  0  0  0  0  0  0  0
   -0.5483   -0.2433    8.5542 H   0  0  0  0  0  0  0  0  0  0  0  0
   -0.9888    2.8068    9.8272 H   0  0  0  0  0  0  0  0  0  0  0  0
    1.0164    1.7797   10.1885 H   0  0  0  0  0  0  0  0  0  0  0  0
    1.3214    3.9460    9.0421 H   0  0  0  0  0  0  0  0  0  0  0  0
    2.3391    3.4267   10.3075 H   0  0  0  0  0  0  0  0  0  0  0  0
    3.3524    4.6022    8.3829 H   0  0  0  0  0  0  0  0  0  0  0  0
    4.2645    3.2930    8.9088 H   0  0  0  0  0  0  0  0  0  0  0  0
    2.4172    3.5367    6.5832 H   0  0  0  0  0  0  0  0  0  0  0  0
    5.4412    3.5653    6.5508 H   0  0  0  0  0  0  0  0  0  0  0  0
    4.3582    4.9276    6.3809 H   0  0  0  0  0  0  0  0  0  0  0  0
    4.4301    3.7404    5.1160 H   0  0  0  0  0  0  0  0  0  0  0  0
    5.1673    1.6054    6.1655 H   0  0  0  0  0  0  0  0  0  0  0  0
    2.8950   -0.5572    7.3482 H   0  0  0  0  0  0  0  0  0  0  0  0
    4.1186   -0.2299    9.7282 H   0  0  0  0  0  0  0  0  0  0  0  0
    3.5483    1.1836   10.6057 H   0  0  0  0  0  0  0  0  0  0  0  0
    4.3716    1.2999    9.0777 H   0  0  0  0  0  0  0  0  0  0  0  0
    2.3113   -1.0713   10.4089 H   0  0  0  0  0  0  0  0  0  0  0  0
    1.3403   -1.4173    9.0139 H   0  0  0  0  0  0  0  0  0  0  0  0
    0.7585   -0.3471   10.2866 H   0  0  0  0  0  0  0  0  0  0  0  0
    0.9158   -1.8452    5.2550 H   0  0  0  0  0  0  0  0  0  0  0  0
   -1.8825   -1.6096    6.0739 H   0  0  0  0  0  0  0  0  0  0  0  0
   -0.6268   -2.5342    6.8980 H   0  0  0  0  0  0  0  0  0  0  0  0
   -1.0283   -2.8799    5.2341 H   0  0  0  0  0  0  0  0  0  0  0  0
    0.2202   -0.9734    3.1273 H   0  0  0  0  0  0  0  0  0  0  0  0
   -1.3168   -0.7015    3.7317 H   0  0  0  0  0  0  0  0  0  0  0  0
   -0.8421    1.2480    2.5212 H   0  0  0  0  0  0  0  0  0  0  0  0
    1.6301    1.1529    2.1676 H   0  0  0  0  0  0  0  0  0  0  0  0
    0.8787    2.6340    2.0793 H   0  0  0  0  0  0  0  0  0  0  0  0
    2.8370    3.1039    3.3073 H   0  0  0  0  0  0  0  0  0  0  0  0
   -0.2344    4.6885    4.8269 H   0  0  0  0  0  0  0  0  0  0  0  0
    0.1620    4.3286    3.1883 H   0  0  0  0  0  0  0  0  0  0  0  0
   -1.8968    3.3097    2.4912 H   0  0  0  0  0  0  0  0  0  0  0  0
   -2.5457    3.9740    3.9685 H   0  0  0  0  0  0  0  0  0  0  0  0
   -2.8576    2.2932    3.5472 H   0  0  0  0  0  0  0  0  0  0  0  0
    4.2894    2.0125    3.4568 H   0  0  0  0  0  0  0  0  0  0  0  0
    1.9688    0.0155    3.7943 H   0  0  0  0  0  0  0  0  0  0  0  0
    3.5938   -0.7802    4.3359 H   0  0  0  0  0  0  0  0  0  0  0  0
    1.0816    1.8331    6.1369 H   0  0  0  0  0  0  0  0  0  0  0  0
  1  2  1  0
  1 39  1  0
  1 40  1  0
  1 41  1  0
  2  3  2  0
  2  4  1  0
  4  5  1  0
  5 10  1  0
  5  6  1  0
  5 42  1  6
  6 32  1  0
  6  7  1  0
  6 43  1  6
  7 38  1  0
  7  8  1  0
  7 44  1  6
  8  9  1  0
  9 23  1  0
  9 10  1  0
  9 45  1  1
 10 11  1  1
 10 12  1  0
 11 46  1  0
 12 20  1  0
 12 13  1  0
 12 47  1  1
 13 14  1  0
 13 48  1  0
 13 49  1  0
 14 15  1  0
 14 50  1  0
 14 51  1  0
 15 16  1  0
 15 17  1  0
 15 52  1  6
 16 53  1  0
 16 54  1  0
 16 55  1  0
 17 34  1  0
 17 18  1  6
 17 19  1  0
 18 56  1  0
 19 20  1  0
 19 23  1  0
 19 57  1  1
 20 21  1  0
 20 22  1  0
 21 58  1  0
 21 59  1  0
 21 60  1  0
 22 61  1  0
 22 62  1  0
 22 63  1  0
 23 38  1  0
 23 24  1  6
 24 25  1  0
 24 26  1  0
 24 64  1  6
 25 65  1  0
 25 66  1  0
 25 67  1  0
 26 27  1  0
 26 68  1  0
 26 69  1  0
 27 32  1  0
 27 28  1  0
 27 70  1  6
 28 29  1  0
 28 71  1  0
 28 72  1  0
 29 30  1  0
 29 34  1  0
 29 73  1  6
 30 31  1  0
 31 32  1  0
 31 74  1  0
 31 75  1  0
 32 33  1  6
 33 76  1  0
 33 77  1  0
 33 78  1  0
 34 35  1  6
 34 36  1  0
 35 79  1  0
 36 37  1  0
 36 38  1  0
 36 80  1  6
 37 81  1  0
 38 82  1  1
M  END
>  <i_m_ct_stereo_status>  (314) 
1

>  <s_m_source_file>  (314) 
/var/tmp/pbs.5076255.sched01/tmpycp4azd_/132pnz8hy5b.sdf

>  <i_m_source_file_index>  (314) 
23

>  <i_lp_mmshare_version>  (314) 
48012

>  <i_f3d_flags>  (314) 
0

>  <s_epik_input>  (314) 
W0NIM11DKD1PKU9bQ0BASF0xW0NASF0oW0NASF0oTzIpW0NIXTNbQ0BASF00W09IXSlbQ0BdKFtDSDJdTzUpKFtDSDNdKVtDQEhdKFtDSDJdW0NAQEhdNltDSDNdKVtDSDJdW0NAQEhdNVtDQEBdNChbT0hdKVtDQF0oW09IXSkoW0NASF03QzgoW0NIM10pW0NIM10pW0NASF0oW0NIM10pW0NIMl1bQ0gyXVtDQEhdOFtDQEBdMShbQ0BASF0yW0NAXTM2NylbT0hd

>  <s_epik_cmdline>  (314) 
J2VwaWtfcHl0aG9uJywgJy1waHQnLCAnMi4wJywgJy1waCcsICc3LjAnLCAnLXRuJywgJzgnLCAnLW1hJywgJzIwMCcsICctaW1hZScsICc8aW5maWxlLm1hZT4nLCAnLW9tYWUnLCAnPG91dGZpbGUubWFlPic=

>  <r_lp_tautomer_probability>  (314) 
1

>  <r_epik_Ionization_Penalty>  (314) 
5.54768e-07

>  <r_epik_Ionization_Penalty_Charging>  (314) 
0

>  <r_epik_Ionization_Penalty_Neutral>  (314) 
5.54768e-07

>  <r_epik_State_Penalty>  (314) 
-0

>  <r_epik_Charging_Adjusted_Penalty>  (314) 
0

>  <i_epik_Tot_Q>  (314) 
0

>  <i_epik_Tot_abs_Q>  (314) 
0

>  <s_epik_Chemistry_Notes>  (314) 
This compound has an ester and may undergo hydrolysis at high or low pH.

>  <s_lp_Force_Field>  (314) 
OPLS3e

>  <r_lp_Energy>  (314) 
519.192

>  <b_lp_Chiralities_Consistent>  (314) 
1

>  <s_lp_Variant>  (314) 
101:0-4

>  <s_i_glide_gridfile>  (314) 
pfpi4k_grid

>  <i_i_glide_lignum>  (314) 
23

>  <i_i_glide_rotatable_bonds>  (314) 
6

>  <r_i_docking_score>  (314) 
-2.26819

>  <r_i_glide_ligand_efficiency>  (314) 
-0.0596892

>  <r_i_glide_ligand_efficiency_sa>  (314) 
-0.200674

>  <r_i_glide_ligand_efficiency_ln>  (314) 
-0.489088

>  <r_i_glide_gscore>  (314) 
-2.26819

>  <r_i_glide_lipo>  (314) 
-0.00758291

>  <r_i_glide_hbond>  (314) 
-0.16

>  <r_i_glide_metal>  (314) 
-0

>  <r_i_glide_rewards>  (314) 
0

>  <r_i_glide_evdw>  (314) 
-24.296

>  <r_i_glide_ecoul>  (314) 
-6.38466

>  <r_i_glide_erotb>  (314) 
0.0727005

>  <r_i_glide_esite>  (314) 
-0.000806681

>  <r_i_glide_emodel>  (314) 
-32.9155

>  <r_i_glide_energy>  (314) 
-30.6807

>  <r_i_glide_einternal>  (314) 
1.56137

>  <r_i_glide_intrahb_reward>  (314) 
-0

>  <i_i_glide_confnum>  (314) 
4

>  <i_i_glide_posenum>  (314) 
17

>  <r_i_glide_eff_state_penalty>  (314) 
0

>  <ligand_id>  (314) 
101

>  <original_smiles>  (314) 
CC(=O)OC1C2C3OC4C1(O)C1CCC(C)C5(O)C(C1(C)C)C41C(C)CC4CC(OCC42C)C5(O)C(O)C31

>  <smiles>  (314) 
[H]OC1([H])C2([H])C3([H])OC4([H])C5(O[H])C([H])(OC(=O)C([H])([H])[H])C3([H])C3(C([H])([H])[H])C([H])([H])OC6([H])C([H])([H])C3([H])C([H])([H])C([H])(C([H])([H])[H])C42C2([H])C(O[H])(C([H])(C([H])([H])[H])C([H])([H])C([H])([H])C5([H])C2(C([H])([H])[H])C([H])([H])[H])C61O[H]

$$$$
101:3:2
     RDKit          3D

 82 89  0  0  1  0  0  0  0  0999 V2000
    2.8777    8.3453    6.6756 C   0  0  0  0  0  0  0  0  0  0  0  0
    1.8545    7.2606    6.4007 C   0  0  0  0  0  0  0  0  0  0  0  0
    0.8263    7.5178    5.7673 O   0  0  0  0  0  0  0  0  0  0  0  0
    2.1982    6.0597    6.9469 O   0  0  0  0  0  0  0  0  0  0  0  0
    1.4482    4.8666    6.6874 C   0  0  2  0  0  0  0  0  0  0  0  0
    1.3512    4.5368    5.0914 C   0  0  2  0  0  0  0  0  0  0  0  0
    0.1010    3.8739    5.0212 C   0  0  2  0  0  0  0  0  0  0  0  0
   -0.8783    4.7317    5.4868 O   0  0  0  0  0  0  0  0  0  0  0  0
   -1.1187    4.1335    6.6905 C   0  0  2  0  0  0  0  0  0  0  0  0
    0.0466    4.7177    7.5689 C   0  0  2  0  0  0  0  0  0  0  0  0
   -0.4320    6.0062    7.8952 O   0  0  0  0  0  0  0  0  0  0  0  0
   -0.0116    3.9734    8.9877 C   0  0  2  0  0  0  0  0  0  0  0  0
    1.3244    3.8741    9.7477 C   0  0  0  0  0  0  0  0  0  0  0  0
    1.9941    2.5031    9.9169 C   0  0  0  0  0  0  0  0  0  0  0  0
    2.0901    1.6163    8.6643 C   0  0  1  0  0  0  0  0  0  0  0  0
    3.2119    0.5788    8.9302 C   0  0  0  0  0  0  0  0  0  0  0  0
    0.8158    0.9707    7.9530 C   0  0  1  0  0  0  0  0  0  0  0  0
    0.4847   -0.1351    8.7878 O   0  0  0  0  0  0  0  0  0  0  0  0
   -0.6811    1.7957    7.8396 C   0  0  1  0  0  0  0  0  0  0  0  0
   -0.9940    2.7379    9.0740 C   0  0  0  0  0  0  0  0  0  0  0  0
   -0.9545    2.0417   10.4686 C   0  0  0  0  0  0  0  0  0  0  0  0
   -2.4978    3.2098    9.0628 C   0  0  0  0  0  0  0  0  0  0  0  0
   -1.0961    2.5842    6.3991 C   0  0  1  0  0  0  0  0  0  0  0  0
   -1.6267    2.1108    4.7950 C   0  0  1  0  0  0  0  0  0  0  0  0
   -2.8328    2.9478    4.3241 C   0  0  0  0  0  0  0  0  0  0  0  0
   -0.4958    1.9224    3.4405 C   0  0  0  0  0  0  0  0  0  0  0  0
    1.2488    2.1536    3.4782 C   0  0  2  0  0  0  0  0  0  0  0  0
    2.1640    0.9369    3.9265 C   0  0  0  0  0  0  0  0  0  0  0  0
    2.5136    0.8903    5.5050 C   0  0  1  0  0  0  0  0  0  0  0  0
    3.1429    2.1079    5.8975 O   0  0  0  0  0  0  0  0  0  0  0  0
    3.4006    3.0616    4.8775 C   0  0  0  0  0  0  0  0  0  0  0  0
    2.0916    3.4717    4.1361 C   0  0  2  0  0  0  0  0  0  0  0  0
    2.6096    4.2880    2.9204 C   0  0  0  0  0  0  0  0  0  0  0  0
    1.3533    0.3584    6.5203 C   0  0  1  0  0  0  0  0  0  0  0  0
    1.6010   -1.0462    6.6022 O   0  0  0  0  0  0  0  0  0  0  0  0
    0.1959    0.6948    5.7027 C   0  0  1  0  0  0  0  0  0  0  0  0
   -0.8649   -0.2313    6.0672 O   0  0  0  0  0  0  0  0  0  0  0  0
    0.1321    2.4114    5.8551 C   0  0  1  0  0  0  0  0  0  0  0  0
    3.6777    8.0082    7.3412 H   0  0  0  0  0  0  0  0  0  0  0  0
    2.3928    9.2101    7.1256 H   0  0  0  0  0  0  0  0  0  0  0  0
    3.3274    8.6687    5.7359 H   0  0  0  0  0  0  0  0  0  0  0  0
    2.1388    4.1342    7.1041 H   0  0  0  0  0  0  0  0  0  0  0  0
    1.2422    5.4576    4.5201 H   0  0  0  0  0  0  0  0  0  0  0  0
   -0.1983    4.0514    3.9968 H   0  0  0  0  0  0  0  0  0  0  0  0
   -2.1080    4.4876    6.9905 H   0  0  0  0  0  0  0  0  0  0  0  0
    0.2686    6.4865    8.2861 H   0  0  0  0  0  0  0  0  0  0  0  0
   -0.5273    4.6298    9.6873 H   0  0  0  0  0  0  0  0  0  0  0  0
    2.0431    4.5830    9.3324 H   0  0  0  0  0  0  0  0  0  0  0  0
    1.1646    4.2401   10.7631 H   0  0  0  0  0  0  0  0  0  0  0  0
    3.0228    2.7590   10.2026 H   0  0  0  0  0  0  0  0  0  0  0  0
    1.6667    1.9624   10.7998 H   0  0  0  0  0  0  0  0  0  0  0  0
    2.5234    2.3323    7.9928 H   0  0  0  0  0  0  0  0  0  0  0  0
    2.9387   -0.1319    9.7104 H   0  0  0  0  0  0  0  0  0  0  0  0
    4.1287    1.0693    9.2611 H   0  0  0  0  0  0  0  0  0  0  0  0
    3.4886    0.0103    8.0462 H   0  0  0  0  0  0  0  0  0  0  0  0
    1.2615   -0.6523    8.8604 H   0  0  0  0  0  0  0  0  0  0  0  0
   -1.4559    1.0466    7.9680 H   0  0  0  0  0  0  0  0  0  0  0  0
   -1.8467    1.4812   10.6928 H   0  0  0  0  0  0  0  0  0  0  0  0
   -0.8567    2.7722   11.2730 H   0  0  0  0  0  0  0  0  0  0  0  0
   -0.1929    1.2853   10.5924 H   0  0  0  0  0  0  0  0  0  0  0  0
   -3.1014    2.8851    9.9108 H   0  0  0  0  0  0  0  0  0  0  0  0
   -3.0457    2.8478    8.1885 H   0  0  0  0  0  0  0  0  0  0  0  0
   -2.5931    4.2972    9.0969 H   0  0  0  0  0  0  0  0  0  0  0  0
   -2.1836    1.1916    4.8637 H   0  0  0  0  0  0  0  0  0  0  0  0
   -2.5704    3.9367    3.9802 H   0  0  0  0  0  0  0  0  0  0  0  0
   -3.5548    3.0582    5.1329 H   0  0  0  0  0  0  0  0  0  0  0  0
   -3.3447    2.4591    3.4949 H   0  0  0  0  0  0  0  0  0  0  0  0
   -0.6939    0.9558    2.9811 H   0  0  0  0  0  0  0  0  0  0  0  0
   -0.8540    2.5820    2.6467 H   0  0  0  0  0  0  0  0  0  0  0  0
    1.4443    2.1960    2.4019 H   0  0  0  0  0  0  0  0  0  0  0  0
    1.7944   -0.0146    3.5472 H   0  0  0  0  0  0  0  0  0  0  0  0
    3.0967    1.0114    3.3623 H   0  0  0  0  0  0  0  0  0  0  0  0
    3.3410    0.1821    5.5883 H   0  0  0  0  0  0  0  0  0  0  0  0
    3.8619    3.9381    5.3432 H   0  0  0  0  0  0  0  0  0  0  0  0
    4.1604    2.6654    4.2036 H   0  0  0  0  0  0  0  0  0  0  0  0
    3.2241    3.6758    2.2608 H   0  0  0  0  0  0  0  0  0  0  0  0
    3.2173    5.1380    3.2351 H   0  0  0  0  0  0  0  0  0  0  0  0
    1.7954    4.6800    2.3256 H   0  0  0  0  0  0  0  0  0  0  0  0
    1.7928   -1.3565    5.7376 H   0  0  0  0  0  0  0  0  0  0  0  0
    0.2061    0.1766    4.7646 H   0  0  0  0  0  0  0  0  0  0  0  0
   -1.5181   -0.1924    5.3968 H   0  0  0  0  0  0  0  0  0  0  0  0
    0.9453    2.6512    6.4911 H   0  0  0  0  0  0  0  0  0  0  0  0
  1  2  1  0
  1 39  1  0
  1 40  1  0
  1 41  1  0
  2  3  2  0
  2  4  1  0
  4  5  1  0
  5 10  1  0
  5  6  1  0
  5 42  1  1
  6 32  1  0
  6  7  1  0
  6 43  1  6
  7 38  1  0
  7  8  1  0
  7 44  1  6
  8  9  1  0
  9 23  1  0
  9 10  1  0
  9 45  1  1
 10 11  1  1
 10 12  1  0
 11 46  1  0
 12 20  1  0
 12 13  1  0
 12 47  1  1
 13 14  1  0
 13 48  1  0
 13 49  1  0
 14 15  1  0
 14 50  1  0
 14 51  1  0
 15 16  1  0
 15 17  1  0
 15 52  1  6
 16 53  1  0
 16 54  1  0
 16 55  1  0
 17 34  1  0
 17 18  1  1
 17 19  1  0
 18 56  1  0
 19 20  1  0
 19 23  1  0
 19 57  1  1
 20 21  1  0
 20 22  1  0
 21 58  1  0
 21 59  1  0
 21 60  1  0
 22 61  1  0
 22 62  1  0
 22 63  1  0
 23 38  1  0
 23 24  1  6
 24 25  1  0
 24 26  1  0
 24 64  1  1
 25 65  1  0
 25 66  1  0
 25 67  1  0
 26 27  1  0
 26 68  1  0
 26 69  1  0
 27 32  1  0
 27 28  1  0
 27 70  1  6
 28 29  1  0
 28 71  1  0
 28 72  1  0
 29 30  1  0
 29 34  1  0
 29 73  1  6
 30 31  1  0
 31 32  1  0
 31 74  1  0
 31 75  1  0
 32 33  1  6
 33 76  1  0
 33 77  1  0
 33 78  1  0
 34 35  1  1
 34 36  1  0
 35 79  1  0
 36 37  1  0
 36 38  1  0
 36 80  1  6
 37 81  1  0
 38 82  1  1
M  END
>  <i_m_ct_stereo_status>  (315) 
1

>  <s_m_source_file>  (315) 
/var/tmp/pbs.5076255.sched01/tmpycp4azd_/132pnz8hy5b.sdf

>  <i_m_source_file_index>  (315) 
23

>  <i_lp_mmshare_version>  (315) 
48012

>  <i_f3d_flags>  (315) 
0

>  <s_epik_input>  (315) 
W0NIM11DKD1PKU9bQ0BASF0xW0NASF0oW0NASF0oTzIpW0NIXTNbQ0BASF00W09IXSlbQ0BdKFtDSDJdTzUpKFtDSDNdKVtDQEhdKFtDSDJdW0NAQEhdNltDSDNdKVtDSDJdW0NAQEhdNVtDQEBdNChbT0hdKVtDQF0oW09IXSkoW0NASF03QzgoW0NIM10pW0NIM10pW0NASF0oW0NIM10pW0NIMl1bQ0gyXVtDQEhdOFtDQEBdMShbQ0BASF0yW0NAXTM2NylbT0hd

>  <s_epik_cmdline>  (315) 
J2VwaWtfcHl0aG9uJywgJy1waHQnLCAnMi4wJywgJy1waCcsICc3LjAnLCAnLXRuJywgJzgnLCAnLW1hJywgJzIwMCcsICctaW1hZScsICc8aW5maWxlLm1hZT4nLCAnLW9tYWUnLCAnPG91dGZpbGUubWFlPic=

>  <r_lp_tautomer_probability>  (315) 
1

>  <r_epik_Ionization_Penalty>  (315) 
5.54768e-07

>  <r_epik_Ionization_Penalty_Charging>  (315) 
0

>  <r_epik_Ionization_Penalty_Neutral>  (315) 
5.54768e-07

>  <r_epik_State_Penalty>  (315) 
-0

>  <r_epik_Charging_Adjusted_Penalty>  (315) 
0

>  <i_epik_Tot_Q>  (315) 
0

>  <i_epik_Tot_abs_Q>  (315) 
0

>  <s_epik_Chemistry_Notes>  (315) 
This compound has an ester and may undergo hydrolysis at high or low pH.

>  <s_lp_Force_Field>  (315) 
OPLS3e

>  <r_lp_Energy>  (315) 
519.192

>  <b_lp_Chiralities_Consistent>  (315) 
1

>  <s_lp_Variant>  (315) 
101:0-4

>  <s_i_glide_gridfile>  (315) 
pfpi4k_grid

>  <i_i_glide_lignum>  (315) 
23

>  <i_i_glide_rotatable_bonds>  (315) 
6

>  <r_i_docking_score>  (315) 
-2.18784

>  <r_i_glide_ligand_efficiency>  (315) 
-0.0575748

>  <r_i_glide_ligand_efficiency_sa>  (315) 
-0.193565

>  <r_i_glide_ligand_efficiency_ln>  (315) 
-0.471763

>  <r_i_glide_gscore>  (315) 
-2.18784

>  <r_i_glide_lipo>  (315) 
-0.0285717

>  <r_i_glide_hbond>  (315) 
0

>  <r_i_glide_metal>  (315) 
-0

>  <r_i_glide_rewards>  (315) 
0

>  <r_i_glide_evdw>  (315) 
-26.8639

>  <r_i_glide_ecoul>  (315) 
-5.92486

>  <r_i_glide_erotb>  (315) 
0.0727005

>  <r_i_glide_esite>  (315) 
-4.70617e-05

>  <r_i_glide_emodel>  (315) 
-34.4468

>  <r_i_glide_energy>  (315) 
-32.7888

>  <r_i_glide_einternal>  (315) 
5.08896

>  <r_i_glide_intrahb_reward>  (315) 
-0

>  <i_i_glide_confnum>  (315) 
2

>  <i_i_glide_posenum>  (315) 
20

>  <r_i_glide_eff_state_penalty>  (315) 
0

>  <ligand_id>  (315) 
101

>  <original_smiles>  (315) 
CC(=O)OC1C2C3OC4C1(O)C1CCC(C)C5(O)C(C1(C)C)C41C(C)CC4CC(OCC42C)C5(O)C(O)C31

>  <smiles>  (315) 
[H]OC1([H])C2([H])C3([H])OC4([H])C5(O[H])C([H])(OC(=O)C([H])([H])[H])C3([H])C3(C([H])([H])[H])C([H])([H])OC6([H])C([H])([H])C3([H])C([H])([H])C([H])(C([H])([H])[H])C42C2([H])C(O[H])(C([H])(C([H])([H])[H])C([H])([H])C([H])([H])C5([H])C2(C([H])([H])[H])C([H])([H])[H])C61O[H]

$$$$
102:0:0
     RDKit          3D

 39 44  0  0  1  0  0  0  0  0999 V2000
    5.7363   -0.5068    0.8158 C   0  0  0  0  0  0  0  0  0  0  0  0
    4.7547   -1.5287    0.4807 N   0  0  0  0  0  0  0  0  0  0  0  0
    4.3001   -1.7333   -0.8722 C   0  0  0  0  0  0  0  0  0  0  0  0
    4.5414   -0.7715   -1.8892 C   0  0  0  0  0  0  0  0  0  0  0  0
    4.0733   -0.9319   -3.2046 C   0  0  0  0  0  0  0  0  0  0  0  0
    3.3536   -2.0758   -3.5689 C   0  0  0  0  0  0  0  0  0  0  0  0
    3.1053   -3.0521   -2.5977 C   0  0  0  0  0  0  0  0  0  0  0  0
    3.5843   -2.9206   -1.2777 C   0  0  0  0  0  0  0  0  0  0  0  0
    3.4560   -4.0783   -0.2958 C   0  0  2  0  0  0  0  0  0  0  0  0
    2.1663   -4.8687   -0.0798 C   0  0  1  0  0  0  0  0  0  0  0  0
    2.1556   -6.2551    0.4941 C   0  0  0  0  0  0  0  0  0  0  0  0
    2.0252   -5.1134    1.4620 C   0  0  1  0  0  0  0  0  0  0  0  0
    3.2617   -4.4921    2.0767 C   0  0  1  0  0  0  0  0  0  0  0  0
    3.5100   -3.4656    1.0399 C   0  0  1  0  0  0  0  0  0  0  0  0
    4.7072   -2.6780    1.3918 C   0  0  2  0  0  0  0  0  0  0  0  0
    4.3598   -2.4776    2.8836 C   0  0  2  0  0  0  0  0  0  0  0  0
    5.4026   -2.9859    3.7520 O   0  0  0  0  0  0  0  0  0  0  0  0
    4.4668   -3.9330    4.3344 C   0  0  0  0  0  0  0  0  0  0  0  0
    3.3789   -3.6044    3.3149 C   0  0  2  0  0  0  0  0  0  0  0  0
    2.1390   -3.1875    3.8359 O   0  0  0  0  0  0  0  0  0  0  0  0
    5.5268    0.4462    0.3506 H   0  0  0  0  0  0  0  0  0  0  0  0
    6.7381   -0.8401    0.5527 H   0  0  0  0  0  0  0  0  0  0  0  0
    5.7203   -0.3156    1.8863 H   0  0  0  0  0  0  0  0  0  0  0  0
    5.0802    0.1271   -1.6717 H   0  0  0  0  0  0  0  0  0  0  0  0
    4.2439   -0.1575   -3.9375 H   0  0  0  0  0  0  0  0  0  0  0  0
    2.9834   -2.1990   -4.5738 H   0  0  0  0  0  0  0  0  0  0  0  0
    2.5587   -3.9363   -2.8964 H   0  0  0  0  0  0  0  0  0  0  0  0
    4.2759   -4.7775   -0.4388 H   0  0  0  0  0  0  0  0  0  0  0  0
    1.3061   -4.5765   -0.6742 H   0  0  0  0  0  0  0  0  0  0  0  0
    1.2572   -6.8619    0.3450 H   0  0  0  0  0  0  0  0  0  0  0  0
    3.1025   -6.7853    0.4881 H   0  0  0  0  0  0  0  0  0  0  0  0
    1.0729   -4.9995    1.9676 H   0  0  0  0  0  0  0  0  0  0  0  0
    4.0574   -5.2266    2.0547 H   0  0  0  0  0  0  0  0  0  0  0  0
    2.6677   -2.7593    1.0825 H   0  0  0  0  0  0  0  0  0  0  0  0
    5.6002   -3.2930    1.2680 H   0  0  0  0  0  0  0  0  0  0  0  0
    4.0178   -1.4851    3.1882 H   0  0  0  0  0  0  0  0  0  0  0  0
    4.8159   -4.9630    4.2670 H   0  0  0  0  0  0  0  0  0  0  0  0
    4.1971   -3.6836    5.3638 H   0  0  0  0  0  0  0  0  0  0  0  0
    1.7471   -2.6325    3.1738 H   0  0  0  0  0  0  0  0  0  0  0  0
  1  2  1  0
  1 21  1  0
  1 22  1  0
  1 23  1  0
  2 15  1  0
  2  3  1  0
  3  8  2  0
  3  4  1  0
  4  5  2  0
  4 24  1  0
  5  6  1  0
  5 25  1  0
  6  7  2  0
  6 26  1  0
  7  8  1  0
  7 27  1  0
  8  9  1  0
  9 14  1  0
  9 10  1  0
  9 28  1  1
 10 12  1  0
 10 11  1  0
 10 29  1  6
 11 12  1  0
 11 30  1  0
 11 31  1  0
 12 13  1  0
 12 32  1  1
 13 19  1  0
 13 14  1  0
 13 33  1  1
 14 15  1  0
 14 34  1  6
 15 16  1  0
 15 35  1  1
 16 19  1  0
 16 17  1  0
 16 36  1  6
 17 18  1  0
 18 19  1  0
 18 37  1  0
 18 38  1  0
 19 20  1  1
 20 39  1  0
M  END
>  <i_m_ct_stereo_status>  (316) 
1

>  <s_m_source_file>  (316) 
/var/tmp/pbs.5076255.sched01/tmpycp4azd_/132pnz8hy5b.sdf

>  <i_m_source_file_index>  (316) 
24

>  <i_lp_mmshare_version>  (316) 
48012

>  <i_f3d_flags>  (316) 
0

>  <s_epik_input>  (316) 
W0NIMl0xT1tDQEhdMltDQEBIXShbQ0BASF0zNClOKFtDSDNdKWMoW2NIXVtjSF1bY0hdW2NIXTUpYzVbQ0BASF0zW0NAQEhdKFtDSDJdNilbQ0BASF02W0NAQEhdNFtDQEBdMTJbT0hd

>  <s_epik_cmdline>  (316) 
J2VwaWtfcHl0aG9uJywgJy1waHQnLCAnMi4wJywgJy1waCcsICc3LjAnLCAnLXRuJywgJzgnLCAnLW1hJywgJzIwMCcsICctaW1hZScsICc8aW5maWxlLm1hZT4nLCAnLW9tYWUnLCAnPG91dGZpbGUubWFlPic=

>  <r_epik_Ionization_Penalty>  (316) 
0.0320829

>  <r_epik_Ionization_Penalty_Charging>  (316) 
0

>  <r_epik_Ionization_Penalty_Neutral>  (316) 
0.0320829

>  <r_epik_State_Penalty>  (316) 
0.0265556

>  <r_epik_Charging_Adjusted_Penalty>  (316) 
0.0265556

>  <i_epik_Tot_Q>  (316) 
0

>  <i_epik_Tot_abs_Q>  (316) 
0

>  <s_lp_Force_Field>  (316) 
OPLS3e

>  <r_lp_Energy>  (316) 
71.6002

>  <b_lp_Chiralities_Consistent>  (316) 
1

>  <s_lp_Variant>  (316) 
102:0-1

>  <s_i_glide_gridfile>  (316) 
pfpi4k_grid

>  <i_i_glide_lignum>  (316) 
24

>  <i_i_glide_rotatable_bonds>  (316) 
1

>  <r_i_docking_score>  (316) 
-3.26459

>  <r_i_glide_ligand_efficiency>  (316) 
-0.163229

>  <r_i_glide_ligand_efficiency_sa>  (316) 
-0.443073

>  <r_i_glide_ligand_efficiency_ln>  (316) 
-0.817019

>  <r_i_glide_gscore>  (316) 
-3.26459

>  <r_i_glide_lipo>  (316) 
-0.532266

>  <r_i_glide_hbond>  (316) 
0

>  <r_i_glide_metal>  (316) 
-0

>  <r_i_glide_rewards>  (316) 
-1.59176

>  <r_i_glide_evdw>  (316) 
-17.6954

>  <r_i_glide_ecoul>  (316) 
-1.70527

>  <r_i_glide_erotb>  (316) 
0

>  <r_i_glide_esite>  (316) 
0

>  <r_i_glide_emodel>  (316) 
-21.6141

>  <r_i_glide_energy>  (316) 
-19.4007

>  <r_i_glide_einternal>  (316) 
0.862454

>  <r_i_glide_intrahb_reward>  (316) 
-0

>  <i_i_glide_confnum>  (316) 
2

>  <i_i_glide_posenum>  (316) 
32

>  <r_i_glide_eff_state_penalty>  (316) 
0

>  <ligand_id>  (316) 
102

>  <original_smiles>  (316) 
CN1c2ccccc2C2C3CC3C3C2C1C1OCC13O

>  <smiles>  (316) 
[H]OC12C([H])([H])OC1([H])C1([H])N(C([H])([H])[H])c3c([H])c([H])c([H])c([H])c3C3([H])C4([H])C([H])([H])C4([H])C2([H])C31[H]

$$$$
102:0:1
     RDKit          3D

 39 44  0  0  1  0  0  0  0  0999 V2000
    1.3520   -4.5241   -1.2979 C   0  0  0  0  0  0  0  0  0  0  0  0
    2.4889   -3.7271   -0.8866 N   0  0  0  0  0  0  0  0  0  0  0  0
    3.0480   -2.7232   -1.7506 C   0  0  0  0  0  0  0  0  0  0  0  0
    2.7358   -2.6949   -3.1325 C   0  0  0  0  0  0  0  0  0  0  0  0
    3.2929   -1.7164   -3.9748 C   0  0  0  0  0  0  0  0  0  0  0  0
    4.1752   -0.7547   -3.4831 C   0  0  0  0  0  0  0  0  0  0  0  0
    4.5061   -0.7567   -2.1226 C   0  0  0  0  0  0  0  0  0  0  0  0
    3.9438   -1.7097   -1.2529 C   0  0  0  0  0  0  0  0  0  0  0  0
    4.1750   -1.5797    0.2480 C   0  0  2  0  0  0  0  0  0  0  0  0
    5.5477   -1.3455    0.8788 C   0  0  1  0  0  0  0  0  0  0  0  0
    5.6943   -0.7483    2.2514 C   0  0  0  0  0  0  0  0  0  0  0  0
    5.6216   -2.2511    2.1378 C   0  0  1  0  0  0  0  0  0  0  0  0
    4.2748   -2.9484    2.2273 C   0  0  1  0  0  0  0  0  0  0  0  0
    3.9467   -2.9283    0.7844 C   0  0  1  0  0  0  0  0  0  0  0  0
    2.6312   -3.5478    0.5563 C   0  0  2  0  0  0  0  0  0  0  0  0
    2.8525   -4.7789    1.4693 C   0  0  2  0  0  0  0  0  0  0  0  0
    1.8486   -4.8807    2.5053 O   0  0  0  0  0  0  0  0  0  0  0  0
    2.8651   -4.7373    3.5287 C   0  0  0  0  0  0  0  0  0  0  0  0
    3.9555   -4.4198    2.5085 C   0  0  2  0  0  0  0  0  0  0  0  0
    5.1043   -5.2365    2.5344 O   0  0  0  0  0  0  0  0  0  0  0  0
    1.4194   -4.8315   -2.3245 H   0  0  0  0  0  0  0  0  0  0  0  0
    0.4295   -3.9552   -1.2474 H   0  0  0  0  0  0  0  0  0  0  0  0
    1.2723   -5.4336   -0.6927 H   0  0  0  0  0  0  0  0  0  0  0  0
    2.0450   -3.3937   -3.5782 H   0  0  0  0  0  0  0  0  0  0  0  0
    3.0254   -1.6828   -5.0136 H   0  0  0  0  0  0  0  0  0  0  0  0
    4.5787   -0.0079   -4.1503 H   0  0  0  0  0  0  0  0  0  0  0  0
    5.1375    0.0176   -1.7400 H   0  0  0  0  0  0  0  0  0  0  0  0
    3.4543   -0.8691    0.6600 H   0  0  0  0  0  0  0  0  0  0  0  0
    6.4146   -1.3705    0.2245 H   0  0  0  0  0  0  0  0  0  0  0  0
    6.6588   -0.3344    2.5204 H   0  0  0  0  0  0  0  0  0  0  0  0
    4.8266   -0.2275    2.6562 H   0  0  0  0  0  0  0  0  0  0  0  0
    6.5246   -2.8461    2.2473 H   0  0  0  0  0  0  0  0  0  0  0  0
    3.5820   -2.2998    2.7650 H   0  0  0  0  0  0  0  0  0  0  0  0
    4.6799   -3.5827    0.2851 H   0  0  0  0  0  0  0  0  0  0  0  0
    1.8517   -2.8871    0.9522 H   0  0  0  0  0  0  0  0  0  0  0  0
    3.0437   -5.7333    0.9740 H   0  0  0  0  0  0  0  0  0  0  0  0
    2.6643   -3.9063    4.2075 H   0  0  0  0  0  0  0  0  0  0  0  0
    3.0282   -5.6653    4.0826 H   0  0  0  0  0  0  0  0  0  0  0  0
    4.8049   -6.1244    2.6813 H   0  0  0  0  0  0  0  0  0  0  0  0
  1  2  1  0
  1 21  1  0
  1 22  1  0
  1 23  1  0
  2 15  1  0
  2  3  1  0
  3  8  2  0
  3  4  1  0
  4  5  2  0
  4 24  1  0
  5  6  1  0
  5 25  1  0
  6  7  2  0
  6 26  1  0
  7  8  1  0
  7 27  1  0
  8  9  1  0
  9 14  1  0
  9 10  1  0
  9 28  1  1
 10 12  1  0
 10 11  1  0
 10 29  1  6
 11 12  1  0
 11 30  1  0
 11 31  1  0
 12 13  1  0
 12 32  1  6
 13 19  1  0
 13 14  1  0
 13 33  1  1
 14 15  1  0
 14 34  1  6
 15 16  1  0
 15 35  1  1
 16 19  1  0
 16 17  1  0
 16 36  1  6
 17 18  1  0
 18 19  1  0
 18 37  1  0
 18 38  1  0
 19 20  1  1
 20 39  1  0
M  END
>  <i_m_ct_stereo_status>  (317) 
1

>  <s_m_source_file>  (317) 
/var/tmp/pbs.5076255.sched01/tmpycp4azd_/132pnz8hy5b.sdf

>  <i_m_source_file_index>  (317) 
24

>  <i_lp_mmshare_version>  (317) 
48012

>  <i_f3d_flags>  (317) 
0

>  <s_epik_input>  (317) 
W0NIMl0xT1tDQEhdMltDQEBIXShbQ0BASF0zNClOKFtDSDNdKWMoW2NIXVtjSF1bY0hdW2NIXTUpYzVbQ0BASF0zW0NAQEhdKFtDSDJdNilbQ0BASF02W0NAQEhdNFtDQEBdMTJbT0hd

>  <s_epik_cmdline>  (317) 
J2VwaWtfcHl0aG9uJywgJy1waHQnLCAnMi4wJywgJy1waCcsICc3LjAnLCAnLXRuJywgJzgnLCAnLW1hJywgJzIwMCcsICctaW1hZScsICc8aW5maWxlLm1hZT4nLCAnLW9tYWUnLCAnPG91dGZpbGUubWFlPic=

>  <r_epik_Ionization_Penalty>  (317) 
0.0320829

>  <r_epik_Ionization_Penalty_Charging>  (317) 
0

>  <r_epik_Ionization_Penalty_Neutral>  (317) 
0.0320829

>  <r_epik_State_Penalty>  (317) 
0.0265556

>  <r_epik_Charging_Adjusted_Penalty>  (317) 
0.0265556

>  <i_epik_Tot_Q>  (317) 
0

>  <i_epik_Tot_abs_Q>  (317) 
0

>  <s_lp_Force_Field>  (317) 
OPLS3e

>  <r_lp_Energy>  (317) 
71.6002

>  <b_lp_Chiralities_Consistent>  (317) 
1

>  <s_lp_Variant>  (317) 
102:0-1

>  <s_i_glide_gridfile>  (317) 
pfpi4k_grid

>  <i_i_glide_lignum>  (317) 
24

>  <i_i_glide_rotatable_bonds>  (317) 
1

>  <r_i_docking_score>  (317) 
-2.96008

>  <r_i_glide_ligand_efficiency>  (317) 
-0.148004

>  <r_i_glide_ligand_efficiency_sa>  (317) 
-0.401744

>  <r_i_glide_ligand_efficiency_ln>  (317) 
-0.74081

>  <r_i_glide_gscore>  (317) 
-2.96008

>  <r_i_glide_lipo>  (317) 
-0.627551

>  <r_i_glide_hbond>  (317) 
0

>  <r_i_glide_metal>  (317) 
-0

>  <r_i_glide_rewards>  (317) 
-1.57269

>  <r_i_glide_evdw>  (317) 
-15.0784

>  <r_i_glide_ecoul>  (317) 
0.164677

>  <r_i_glide_erotb>  (317) 
0

>  <r_i_glide_esite>  (317) 
-0.0306124

>  <r_i_glide_emodel>  (317) 
-17.2758

>  <r_i_glide_energy>  (317) 
-14.9137

>  <r_i_glide_einternal>  (317) 
0.0320693

>  <r_i_glide_intrahb_reward>  (317) 
-0

>  <i_i_glide_confnum>  (317) 
1

>  <i_i_glide_posenum>  (317) 
31

>  <r_i_glide_eff_state_penalty>  (317) 
0

>  <ligand_id>  (317) 
102

>  <original_smiles>  (317) 
CN1c2ccccc2C2C3CC3C3C2C1C1OCC13O

>  <smiles>  (317) 
[H]OC12C([H])([H])OC1([H])C1([H])N(C([H])([H])[H])c3c([H])c([H])c([H])c([H])c3C3([H])C4([H])C([H])([H])C4([H])C2([H])C31[H]

$$$$
102:0:2
     RDKit          3D

 39 44  0  0  1  0  0  0  0  0999 V2000
    1.5648   -4.2060   -1.5279 C   0  0  0  0  0  0  0  0  0  0  0  0
    2.8278   -3.5658   -1.2439 N   0  0  0  0  0  0  0  0  0  0  0  0
    3.2958   -2.5215   -2.1117 C   0  0  0  0  0  0  0  0  0  0  0  0
    2.6877   -2.2613   -3.3523 C   0  0  0  0  0  0  0  0  0  0  0  0
    3.1006   -1.1929   -4.1627 C   0  0  0  0  0  0  0  0  0  0  0  0
    4.1572   -0.3745   -3.7422 C   0  0  0  0  0  0  0  0  0  0  0  0
    4.7690   -0.6087   -2.5233 C   0  0  0  0  0  0  0  0  0  0  0  0
    4.3562   -1.6610   -1.6964 C   0  0  0  0  0  0  0  0  0  0  0  0
    4.9719   -1.7664   -0.3149 C   0  0  2  0  0  0  0  0  0  0  0  0
    6.4847   -1.7586   -0.0554 C   0  0  1  0  0  0  0  0  0  0  0  0
    7.0523   -1.3765    1.2632 C   0  0  0  0  0  0  0  0  0  0  0  0
    6.7813   -2.8318    1.0200 C   0  0  1  0  0  0  0  0  0  0  0  0
    5.4287   -3.4381    1.3643 C   0  0  1  0  0  0  0  0  0  0  0  0
    4.7509   -3.1590    0.0819 C   0  0  1  0  0  0  0  0  0  0  0  0
    3.3668   -3.6455    0.1205 C   0  0  2  0  0  0  0  0  0  0  0  0
    3.6943   -5.0250    0.7321 C   0  0  2  0  0  0  0  0  0  0  0  0
    2.9716   -5.2316    1.9461 O   0  0  0  0  0  0  0  0  0  0  0  0
    4.2017   -5.3242    2.6881 C   0  0  0  0  0  0  0  0  0  0  0  0
    5.0396   -4.9086    1.4959 C   0  0  2  0  0  0  0  0  0  0  0  0
    6.0670   -5.7949    1.1176 O   0  0  0  0  0  0  0  0  0  0  0  0
    1.4513   -4.4392   -2.5828 H   0  0  0  0  0  0  0  0  0  0  0  0
    0.7335   -3.5649   -1.2898 H   0  0  0  0  0  0  0  0  0  0  0  0
    1.5055   -5.1563   -0.9916 H   0  0  0  0  0  0  0  0  0  0  0  0
    1.8458   -2.8392   -3.7061 H   0  0  0  0  0  0  0  0  0  0  0  0
    2.5912   -0.9503   -5.1054 H   0  0  0  0  0  0  0  0  0  0  0  0
    4.4485    0.4384   -4.3806 H   0  0  0  0  0  0  0  0  0  0  0  0
    5.5466    0.0580   -2.1872 H   0  0  0  0  0  0  0  0  0  0  0  0
    4.4704   -1.0735    0.3707 H   0  0  0  0  0  0  0  0  0  0  0  0
    7.1361   -1.8272   -0.9222 H   0  0  0  0  0  0  0  0  0  0  0  0
    8.0812   -1.0448    1.1962 H   0  0  0  0  0  0  0  0  0  0  0  0
    6.4083   -0.8528    1.9650 H   0  0  0  0  0  0  0  0  0  0  0  0
    7.6339   -3.4880    0.8388 H   0  0  0  0  0  0  0  0  0  0  0  0
    4.9709   -2.8368    2.1637 H   0  0  0  0  0  0  0  0  0  0  0  0
    5.2659   -3.7703   -0.6785 H   0  0  0  0  0  0  0  0  0  0  0  0
    2.7939   -3.0223    0.8105 H   0  0  0  0  0  0  0  0  0  0  0  0
    3.6987   -5.8809    0.0567 H   0  0  0  0  0  0  0  0  0  0  0  0
    4.2681   -4.5991    3.5163 H   0  0  0  0  0  0  0  0  0  0  0  0
    4.3934   -6.3442    3.0298 H   0  0  0  0  0  0  0  0  0  0  0  0
    5.6963   -6.6623    1.1751 H   0  0  0  0  0  0  0  0  0  0  0  0
  1  2  1  0
  1 21  1  0
  1 22  1  0
  1 23  1  0
  2 15  1  0
  2  3  1  0
  3  8  2  0
  3  4  1  0
  4  5  2  0
  4 24  1  0
  5  6  1  0
  5 25  1  0
  6  7  2  0
  6 26  1  0
  7  8  1  0
  7 27  1  0
  8  9  1  0
  9 14  1  0
  9 10  1  0
  9 28  1  1
 10 12  1  0
 10 11  1  0
 10 29  1  6
 11 12  1  0
 11 30  1  0
 11 31  1  0
 12 13  1  0
 12 32  1  6
 13 19  1  0
 13 14  1  0
 13 33  1  1
 14 15  1  0
 14 34  1  6
 15 16  1  0
 15 35  1  1
 16 19  1  0
 16 17  1  0
 16 36  1  6
 17 18  1  0
 18 19  1  0
 18 37  1  0
 18 38  1  0
 19 20  1  6
 20 39  1  0
M  END
>  <i_m_ct_stereo_status>  (318) 
1

>  <s_m_source_file>  (318) 
/var/tmp/pbs.5076255.sched01/tmpycp4azd_/132pnz8hy5b.sdf

>  <i_m_source_file_index>  (318) 
24

>  <i_lp_mmshare_version>  (318) 
48012

>  <i_f3d_flags>  (318) 
0

>  <s_epik_input>  (318) 
W0NIMl0xT1tDQEhdMltDQEBIXShbQ0BASF0zNClOKFtDSDNdKWMoW2NIXVtjSF1bY0hdW2NIXTUpYzVbQ0BASF0zW0NAQEhdKFtDSDJdNilbQ0BASF02W0NAQEhdNFtDQEBdMTJbT0hd

>  <s_epik_cmdline>  (318) 
J2VwaWtfcHl0aG9uJywgJy1waHQnLCAnMi4wJywgJy1waCcsICc3LjAnLCAnLXRuJywgJzgnLCAnLW1hJywgJzIwMCcsICctaW1hZScsICc8aW5maWxlLm1hZT4nLCAnLW9tYWUnLCAnPG91dGZpbGUubWFlPic=

>  <r_epik_Ionization_Penalty>  (318) 
0.0320829

>  <r_epik_Ionization_Penalty_Charging>  (318) 
0

>  <r_epik_Ionization_Penalty_Neutral>  (318) 
0.0320829

>  <r_epik_State_Penalty>  (318) 
0.0265556

>  <r_epik_Charging_Adjusted_Penalty>  (318) 
0.0265556

>  <i_epik_Tot_Q>  (318) 
0

>  <i_epik_Tot_abs_Q>  (318) 
0

>  <s_lp_Force_Field>  (318) 
OPLS3e

>  <r_lp_Energy>  (318) 
71.6002

>  <b_lp_Chiralities_Consistent>  (318) 
1

>  <s_lp_Variant>  (318) 
102:0-1

>  <s_i_glide_gridfile>  (318) 
pfpi4k_grid

>  <i_i_glide_lignum>  (318) 
24

>  <i_i_glide_rotatable_bonds>  (318) 
1

>  <r_i_docking_score>  (318) 
-2.91172

>  <r_i_glide_ligand_efficiency>  (318) 
-0.145586

>  <r_i_glide_ligand_efficiency_sa>  (318) 
-0.395181

>  <r_i_glide_ligand_efficiency_ln>  (318) 
-0.728708

>  <r_i_glide_gscore>  (318) 
-2.91172

>  <r_i_glide_lipo>  (318) 
-0.648883

>  <r_i_glide_hbond>  (318) 
0

>  <r_i_glide_metal>  (318) 
-0

>  <r_i_glide_rewards>  (318) 
-1.62643

>  <r_i_glide_evdw>  (318) 
-14.4618

>  <r_i_glide_ecoul>  (318) 
0.577847

>  <r_i_glide_erotb>  (318) 
0

>  <r_i_glide_esite>  (318) 
0

>  <r_i_glide_emodel>  (318) 
-16.3216

>  <r_i_glide_energy>  (318) 
-13.8839

>  <r_i_glide_einternal>  (318) 
0.0100731

>  <r_i_glide_intrahb_reward>  (318) 
-0

>  <i_i_glide_confnum>  (318) 
2

>  <i_i_glide_posenum>  (318) 
7

>  <r_i_glide_eff_state_penalty>  (318) 
0

>  <ligand_id>  (318) 
102

>  <original_smiles>  (318) 
CN1c2ccccc2C2C3CC3C3C2C1C1OCC13O

>  <smiles>  (318) 
[H]OC12C([H])([H])OC1([H])C1([H])N(C([H])([H])[H])c3c([H])c([H])c([H])c([H])c3C3([H])C4([H])C([H])([H])C4([H])C2([H])C31[H]

$$$$
102:1:0
     RDKit          3D

 40 45  0  0  1  0  0  0  0  0999 V2000
    2.4143   -5.0428    0.1436 C   0  0  0  0  0  0  0  0  0  0  0  0
    2.6268   -3.5710    0.1915 N   0  0  2  0  0  0  0  0  0  0  0  0
    3.1450   -3.0613   -1.1718 C   0  0  0  0  0  0  0  0  0  0  0  0
    2.2635   -3.0759   -2.2751 C   0  0  0  0  0  0  0  0  0  0  0  0
    2.7303   -2.7105   -3.5463 C   0  0  0  0  0  0  0  0  0  0  0  0
    4.0773   -2.3267   -3.7296 C   0  0  0  0  0  0  0  0  0  0  0  0
    4.9541   -2.2834   -2.6270 C   0  0  0  0  0  0  0  0  0  0  0  0
    4.4923   -2.6287   -1.3502 C   0  0  0  0  0  0  0  0  0  0  0  0
    5.3802   -2.3728   -0.1489 C   0  0  2  0  0  0  0  0  0  0  0  0
    6.8438   -2.8073   -0.0680 C   0  0  1  0  0  0  0  0  0  0  0  0
    7.8209   -2.0892    0.8112 C   0  0  0  0  0  0  0  0  0  0  0  0
    7.0693   -3.2613    1.3990 C   0  0  1  0  0  0  0  0  0  0  0  0
    5.7508   -3.0380    2.1276 C   0  0  1  0  0  0  0  0  0  0  0  0
    4.8569   -3.2036    0.9564 C   0  0  1  0  0  0  0  0  0  0  0  0
    3.4312   -3.0817    1.3549 C   0  0  2  0  0  0  0  0  0  0  0  0
    3.5182   -3.8550    2.6983 C   0  0  2  0  0  0  0  0  0  0  0  0
    3.2197   -3.0032    3.8281 O   0  0  0  0  0  0  0  0  0  0  0  0
    4.5139   -3.3091    4.4119 C   0  0  0  0  0  0  0  0  0  0  0  0
    5.0119   -3.9363    3.1185 C   0  0  2  0  0  0  0  0  0  0  0  0
    5.5497   -5.2365    3.2240 O   0  0  0  0  0  0  0  0  0  0  0  0
    1.7925   -5.2851   -0.7140 H   0  0  0  0  0  0  0  0  0  0  0  0
    1.8921   -5.4287    1.0180 H   0  0  0  0  0  0  0  0  0  0  0  0
    3.3518   -5.5838    0.0142 H   0  0  0  0  0  0  0  0  0  0  0  0
    1.2256   -3.3737   -2.1514 H   0  0  0  0  0  0  0  0  0  0  0  0
    2.0369   -2.7414   -4.3774 H   0  0  0  0  0  0  0  0  0  0  0  0
    4.4161   -2.0390   -4.7078 H   0  0  0  0  0  0  0  0  0  0  0  0
    5.9744   -1.9591   -2.7096 H   0  0  0  0  0  0  0  0  0  0  0  0
    5.3102   -1.3133    0.1112 H   0  0  0  0  0  0  0  0  0  0  0  0
    7.2240   -3.4821   -0.8328 H   0  0  0  0  0  0  0  0  0  0  0  0
    8.8780   -2.2393    0.6118 H   0  0  0  0  0  0  0  0  0  0  0  0
    7.5456   -1.0956    1.1678 H   0  0  0  0  0  0  0  0  0  0  0  0
    7.6132   -4.1876    1.5777 H   0  0  0  0  0  0  0  0  0  0  0  0
    5.7222   -2.0011    2.4723 H   0  0  0  0  0  0  0  0  0  0  0  0
    4.9851   -4.2481    0.6309 H   0  0  0  0  0  0  0  0  0  0  0  0
    3.2023   -2.0259    1.5271 H   0  0  0  0  0  0  0  0  0  0  0  0
    3.0051   -4.8141    2.7797 H   0  0  0  0  0  0  0  0  0  0  0  0
    5.0782   -2.4182    4.7011 H   0  0  0  0  0  0  0  0  0  0  0  0
    4.4465   -4.0129    5.2431 H   0  0  0  0  0  0  0  0  0  0  0  0
    5.6143   -5.5915    2.3526 H   0  0  0  0  0  0  0  0  0  0  0  0
    1.7314   -3.1478    0.3515 H   0  0  0  0  0  0  0  0  0  0  0  0
  1  2  1  0
  1 21  1  0
  1 22  1  0
  1 23  1  0
  2 15  1  0
  2  3  1  0
  2 40  1  1
  3  8  2  0
  3  4  1  0
  4  5  2  0
  4 24  1  0
  5  6  1  0
  5 25  1  0
  6  7  2  0
  6 26  1  0
  7  8  1  0
  7 27  1  0
  8  9  1  0
  9 14  1  0
  9 10  1  0
  9 28  1  1
 10 12  1  0
 10 11  1  0
 10 29  1  6
 11 12  1  0
 11 30  1  0
 11 31  1  0
 12 13  1  0
 12 32  1  6
 13 19  1  0
 13 14  1  0
 13 33  1  1
 14 15  1  0
 14 34  1  6
 15 16  1  0
 15 35  1  1
 16 19  1  0
 16 17  1  0
 16 36  1  6
 17 18  1  0
 18 19  1  0
 18 37  1  0
 18 38  1  0
 19 20  1  1
 20 39  1  0
M  CHG  1   2   1
M  END
>  <i_m_ct_stereo_status>  (319) 
1

>  <s_m_source_file>  (319) 
/var/tmp/pbs.5076255.sched01/tmpycp4azd_/132pnz8hy5b.sdf

>  <i_m_source_file_index>  (319) 
25

>  <i_lp_mmshare_version>  (319) 
48012

>  <i_f3d_flags>  (319) 
0

>  <s_epik_input>  (319) 
W0NIMl0xT1tDQEhdMltDQEBIXShbQ0BASF0zNClOKFtDSDNdKWMoW2NIXVtjSF1bY0hdW2NIXTUpYzVbQ0BASF0zW0NAQEhdKFtDSDJdNilbQ0BASF02W0NAQEhdNFtDQEBdMTJbT0hd

>  <s_epik_cmdline>  (319) 
J2VwaWtfcHl0aG9uJywgJy1waHQnLCAnMi4wJywgJy1waCcsICc3LjAnLCAnLXRuJywgJzgnLCAnLW1hJywgJzIwMCcsICctaW1hZScsICc8aW5maWxlLm1hZT4nLCAnLW9tYWUnLCAnPG91dGZpbGUubWFlPic=

>  <r_epik_Ionization_Penalty>  (319) 
1.74366

>  <r_epik_Ionization_Penalty_Charging>  (319) 
1.74366

>  <r_epik_Ionization_Penalty_Neutral>  (319) 
5.64017e-07

>  <r_epik_State_Penalty>  (319) 
1.85295

>  <r_epik_Charging_Adjusted_Penalty>  (319) 
3.59661

>  <i_epik_Tot_Q>  (319) 
1

>  <i_epik_Tot_abs_Q>  (319) 
1

>  <s_lp_Force_Field>  (319) 
OPLS3e

>  <r_lp_Energy>  (319) 
70.7658

>  <b_lp_Chiralities_Consistent>  (319) 
1

>  <s_lp_Variant>  (319) 
102:0-2

>  <s_i_glide_gridfile>  (319) 
pfpi4k_grid

>  <i_i_glide_lignum>  (319) 
25

>  <i_i_glide_rotatable_bonds>  (319) 
1

>  <r_i_docking_score>  (319) 
-3.51544

>  <r_i_glide_ligand_efficiency>  (319) 
-0.175772

>  <r_i_glide_ligand_efficiency_sa>  (319) 
-0.477119

>  <r_i_glide_ligand_efficiency_ln>  (319) 
-0.879799

>  <r_i_glide_gscore>  (319) 
-3.51544

>  <r_i_glide_lipo>  (319) 
-0.868748

>  <r_i_glide_hbond>  (319) 
0

>  <r_i_glide_metal>  (319) 
-0

>  <r_i_glide_rewards>  (319) 
-1.56582

>  <r_i_glide_evdw>  (319) 
-17.7009

>  <r_i_glide_ecoul>  (319) 
-1.09613

>  <r_i_glide_erotb>  (319) 
0

>  <r_i_glide_esite>  (319) 
-0.0314043

>  <r_i_glide_emodel>  (319) 
-22.4479

>  <r_i_glide_energy>  (319) 
-18.7971

>  <r_i_glide_einternal>  (319) 
0.803817

>  <r_i_glide_intrahb_reward>  (319) 
-0

>  <i_i_glide_confnum>  (319) 
2

>  <i_i_glide_posenum>  (319) 
38

>  <r_i_glide_eff_state_penalty>  (319) 
0

>  <ligand_id>  (319) 
102

>  <original_smiles>  (319) 
CN1c2ccccc2C2C3CC3C3C2C1C1OCC13O

>  <smiles>  (319) 
[H]OC12C([H])([H])OC1([H])C1([H])C3([H])C([H])(c4c([H])c([H])c([H])c([H])c4[N+]1([H])C([H])([H])[H])C1([H])C([H])([H])C1([H])C32[H]

$$$$
102:1:1
     RDKit          3D

 40 45  0  0  1  0  0  0  0  0999 V2000
    2.9020   -1.2508    1.2472 C   0  0  0  0  0  0  0  0  0  0  0  0
    4.3214   -1.6549    1.0607 N   0  0  2  0  0  0  0  0  0  0  0  0
    4.5625   -2.1222   -0.3995 C   0  0  0  0  0  0  0  0  0  0  0  0
    4.5072   -1.1524   -1.4231 C   0  0  0  0  0  0  0  0  0  0  0  0
    4.6102   -1.5382   -2.7710 C   0  0  0  0  0  0  0  0  0  0  0  0
    4.7720   -2.8976   -3.1082 C   0  0  0  0  0  0  0  0  0  0  0  0
    4.8744   -3.8650   -2.0919 C   0  0  0  0  0  0  0  0  0  0  0  0
    4.7793   -3.4951   -0.7374 C   0  0  0  0  0  0  0  0  0  0  0  0
    5.0666   -4.5173    0.3569 C   0  0  2  0  0  0  0  0  0  0  0  0
    4.4502   -5.9221    0.4258 C   0  0  1  0  0  0  0  0  0  0  0  0
    5.1389   -7.0622    1.1224 C   0  0  0  0  0  0  0  0  0  0  0  0
    4.1890   -6.2189    1.9349 C   0  0  1  0  0  0  0  0  0  0  0  0
    4.6881   -4.9883    2.6845 C   0  0  1  0  0  0  0  0  0  0  0  0
    4.4789   -3.9841    1.6075 C   0  0  1  0  0  0  0  0  0  0  0  0
    4.8520   -2.6203    2.0790 C   0  0  2  0  0  0  0  0  0  0  0  0
    4.2761   -2.7268    3.5184 C   0  0  2  0  0  0  0  0  0  0  0  0
    5.3108   -2.6415    4.5275 O   0  0  0  0  0  0  0  0  0  0  0  0
    4.9144   -3.9322    5.0614 C   0  0  0  0  0  0  0  0  0  0  0  0
    4.0471   -4.2279    3.8444 C   0  0  2  0  0  0  0  0  0  0  0  0
    2.7054   -4.5986    4.0848 O   0  0  0  0  0  0  0  0  0  0  0  0
    2.6272   -0.5394    0.4699 H   0  0  0  0  0  0  0  0  0  0  0  0
    2.7205   -0.7547    2.2013 H   0  0  0  0  0  0  0  0  0  0  0  0
    2.2259   -2.0990    1.1428 H   0  0  0  0  0  0  0  0  0  0  0  0
    4.3705   -0.1092   -1.1775 H   0  0  0  0  0  0  0  0  0  0  0  0
    4.5446   -0.7908   -3.5542 H   0  0  0  0  0  0  0  0  0  0  0  0
    4.8352   -3.2044   -4.1418 H   0  0  0  0  0  0  0  0  0  0  0  0
    5.0175   -4.9001   -2.3602 H   0  0  0  0  0  0  0  0  0  0  0  0
    6.1495   -4.6067    0.4608 H   0  0  0  0  0  0  0  0  0  0  0  0
    3.6279   -6.1455   -0.2503 H   0  0  0  0  0  0  0  0  0  0  0  0
    4.8128   -8.0668    0.8693 H   0  0  0  0  0  0  0  0  0  0  0  0
    6.2044   -6.9492    1.3222 H   0  0  0  0  0  0  0  0  0  0  0  0
    3.2165   -6.6346    2.2012 H   0  0  0  0  0  0  0  0  0  0  0  0
    5.7597   -5.1143    2.8665 H   0  0  0  0  0  0  0  0  0  0  0  0
    3.3893   -3.9513    1.4445 H   0  0  0  0  0  0  0  0  0  0  0  0
    5.9431   -2.5488    2.1104 H   0  0  0  0  0  0  0  0  0  0  0  0
    3.4137   -2.1114    3.7789 H   0  0  0  0  0  0  0  0  0  0  0  0
    5.7567   -4.6213    5.1745 H   0  0  0  0  0  0  0  0  0  0  0  0
    4.3574   -3.8438    5.9948 H   0  0  0  0  0  0  0  0  0  0  0  0
    2.7119   -5.5136    4.3150 H   0  0  0  0  0  0  0  0  0  0  0  0
    4.8453   -0.8105    1.2255 H   0  0  0  0  0  0  0  0  0  0  0  0
  1  2  1  0
  1 21  1  0
  1 22  1  0
  1 23  1  0
  2 15  1  0
  2  3  1  0
  2 40  1  6
  3  8  2  0
  3  4  1  0
  4  5  2  0
  4 24  1  0
  5  6  1  0
  5 25  1  0
  6  7  2  0
  6 26  1  0
  7  8  1  0
  7 27  1  0
  8  9  1  0
  9 14  1  0
  9 10  1  0
  9 28  1  1
 10 12  1  0
 10 11  1  0
 10 29  1  6
 11 12  1  0
 11 30  1  0
 11 31  1  0
 12 13  1  0
 12 32  1  6
 13 19  1  0
 13 14  1  0
 13 33  1  1
 14 15  1  0
 14 34  1  6
 15 16  1  0
 15 35  1  1
 16 19  1  0
 16 17  1  0
 16 36  1  1
 17 18  1  0
 18 19  1  0
 18 37  1  0
 18 38  1  0
 19 20  1  1
 20 39  1  0
M  CHG  1   2   1
M  END
>  <i_m_ct_stereo_status>  (320) 
1

>  <s_m_source_file>  (320) 
/var/tmp/pbs.5076255.sched01/tmpycp4azd_/132pnz8hy5b.sdf

>  <i_m_source_file_index>  (320) 
25

>  <i_lp_mmshare_version>  (320) 
48012

>  <i_f3d_flags>  (320) 
0

>  <s_epik_input>  (320) 
W0NIMl0xT1tDQEhdMltDQEBIXShbQ0BASF0zNClOKFtDSDNdKWMoW2NIXVtjSF1bY0hdW2NIXTUpYzVbQ0BASF0zW0NAQEhdKFtDSDJdNilbQ0BASF02W0NAQEhdNFtDQEBdMTJbT0hd

>  <s_epik_cmdline>  (320) 
J2VwaWtfcHl0aG9uJywgJy1waHQnLCAnMi4wJywgJy1waCcsICc3LjAnLCAnLXRuJywgJzgnLCAnLW1hJywgJzIwMCcsICctaW1hZScsICc8aW5maWxlLm1hZT4nLCAnLW9tYWUnLCAnPG91dGZpbGUubWFlPic=

>  <r_epik_Ionization_Penalty>  (320) 
1.74366

>  <r_epik_Ionization_Penalty_Charging>  (320) 
1.74366

>  <r_epik_Ionization_Penalty_Neutral>  (320) 
5.64017e-07

>  <r_epik_State_Penalty>  (320) 
1.85295

>  <r_epik_Charging_Adjusted_Penalty>  (320) 
3.59661

>  <i_epik_Tot_Q>  (320) 
1

>  <i_epik_Tot_abs_Q>  (320) 
1

>  <s_lp_Force_Field>  (320) 
OPLS3e

>  <r_lp_Energy>  (320) 
70.7658

>  <b_lp_Chiralities_Consistent>  (320) 
1

>  <s_lp_Variant>  (320) 
102:0-2

>  <s_i_glide_gridfile>  (320) 
pfpi4k_grid

>  <i_i_glide_lignum>  (320) 
25

>  <i_i_glide_rotatable_bonds>  (320) 
1

>  <r_i_docking_score>  (320) 
-3.32323

>  <r_i_glide_ligand_efficiency>  (320) 
-0.166162

>  <r_i_glide_ligand_efficiency_sa>  (320) 
-0.451032

>  <r_i_glide_ligand_efficiency_ln>  (320) 
-0.831696

>  <r_i_glide_gscore>  (320) 
-3.32323

>  <r_i_glide_lipo>  (320) 
-0.538671

>  <r_i_glide_hbond>  (320) 
0

>  <r_i_glide_metal>  (320) 
-0

>  <r_i_glide_rewards>  (320) 
-1.56582

>  <r_i_glide_evdw>  (320) 
-16.5848

>  <r_i_glide_ecoul>  (320) 
-2.57262

>  <r_i_glide_erotb>  (320) 
0

>  <r_i_glide_esite>  (320) 
-0.00360597

>  <r_i_glide_emodel>  (320) 
-22.6841

>  <r_i_glide_energy>  (320) 
-19.1575

>  <r_i_glide_einternal>  (320) 
0.751486

>  <r_i_glide_intrahb_reward>  (320) 
-0

>  <i_i_glide_confnum>  (320) 
2

>  <i_i_glide_posenum>  (320) 
15

>  <r_i_glide_eff_state_penalty>  (320) 
0

>  <ligand_id>  (320) 
102

>  <original_smiles>  (320) 
CN1c2ccccc2C2C3CC3C3C2C1C1OCC13O

>  <smiles>  (320) 
[H]OC12C([H])([H])OC1([H])C1([H])C3([H])C([H])(c4c([H])c([H])c([H])c([H])c4[N+]1([H])C([H])([H])[H])C1([H])C([H])([H])C1([H])C32[H]

$$$$
102:1:2
     RDKit          3D

 40 45  0  0  1  0  0  0  0  0999 V2000
    3.4447   -0.3822    1.2167 C   0  0  0  0  0  0  0  0  0  0  0  0
    4.3509   -1.4319    0.6753 N   0  0  2  0  0  0  0  0  0  0  0  0
    3.9825   -1.7654   -0.8005 C   0  0  0  0  0  0  0  0  0  0  0  0
    4.2516   -0.7910   -1.7842 C   0  0  0  0  0  0  0  0  0  0  0  0
    3.8313   -0.9860   -3.1124 C   0  0  0  0  0  0  0  0  0  0  0  0
    3.1435   -2.1615   -3.4726 C   0  0  0  0  0  0  0  0  0  0  0  0
    2.8917   -3.1525   -2.5046 C   0  0  0  0  0  0  0  0  0  0  0  0
    3.3366   -2.9905   -1.1734 C   0  0  0  0  0  0  0  0  0  0  0  0
    3.2851   -4.1416   -0.1731 C   0  0  2  0  0  0  0  0  0  0  0  0
    2.0581   -5.0141    0.0624 C   0  0  1  0  0  0  0  0  0  0  0  0
    2.1426   -6.4144    0.5939 C   0  0  0  0  0  0  0  0  0  0  0  0
    1.9969   -5.3093    1.5937 C   0  0  1  0  0  0  0  0  0  0  0  0
    3.2255   -4.6358    2.1788 C   0  0  1  0  0  0  0  0  0  0  0  0
    3.3588   -3.5460    1.1813 C   0  0  1  0  0  0  0  0  0  0  0  0
    4.4896   -2.6545    1.5368 C   0  0  2  0  0  0  0  0  0  0  0  0
    4.2760   -2.6263    3.0733 C   0  0  2  0  0  0  0  0  0  0  0  0
    5.3858   -3.2242    3.7891 O   0  0  0  0  0  0  0  0  0  0  0  0
    4.4874   -4.1831    4.4107 C   0  0  0  0  0  0  0  0  0  0  0  0
    3.3564   -3.8182    3.4591 C   0  0  2  0  0  0  0  0  0  0  0  0
    2.1106   -3.4812    4.0244 O   0  0  0  0  0  0  0  0  0  0  0  0
    3.4357    0.4616    0.5310 H   0  0  0  0  0  0  0  0  0  0  0  0
    3.7694    0.0119    2.1825 H   0  0  0  0  0  0  0  0  0  0  0  0
    2.4163   -0.7333    1.2919 H   0  0  0  0  0  0  0  0  0  0  0  0
    4.7376    0.1281   -1.5068 H   0  0  0  0  0  0  0  0  0  0  0  0
    4.0075   -0.2075   -3.8489 H   0  0  0  0  0  0  0  0  0  0  0  0
    2.8089   -2.3079   -4.4870 H   0  0  0  0  0  0  0  0  0  0  0  0
    2.3872   -4.0486   -2.8084 H   0  0  0  0  0  0  0  0  0  0  0  0
    4.1429   -4.7900   -0.3532 H   0  0  0  0  0  0  0  0  0  0  0  0
    1.1608   -4.7564   -0.4838 H   0  0  0  0  0  0  0  0  0  0  0  0
    1.2705   -7.0520    0.4742 H   0  0  0  0  0  0  0  0  0  0  0  0
    3.1160   -6.8926    0.4969 H   0  0  0  0  0  0  0  0  0  0  0  0
    1.0461   -5.2104    2.1115 H   0  0  0  0  0  0  0  0  0  0  0  0
    4.0658   -5.3242    2.0876 H   0  0  0  0  0  0  0  0  0  0  0  0
    2.4529   -2.9322    1.2993 H   0  0  0  0  0  0  0  0  0  0  0  0
    5.4263   -3.1602    1.2885 H   0  0  0  0  0  0  0  0  0  0  0  0
    3.9679   -1.6902    3.5436 H   0  0  0  0  0  0  0  0  0  0  0  0
    4.8270   -5.2158    4.3047 H   0  0  0  0  0  0  0  0  0  0  0  0
    4.2858   -3.9594    5.4602 H   0  0  0  0  0  0  0  0  0  0  0  0
    2.2890   -2.8924    4.7427 H   0  0  0  0  0  0  0  0  0  0  0  0
    5.2653   -1.0062    0.7024 H   0  0  0  0  0  0  0  0  0  0  0  0
  1  2  1  0
  1 21  1  0
  1 22  1  0
  1 23  1  0
  2 15  1  0
  2  3  1  0
  2 40  1  6
  3  8  2  0
  3  4  1  0
  4  5  2  0
  4 24  1  0
  5  6  1  0
  5 25  1  0
  6  7  2  0
  6 26  1  0
  7  8  1  0
  7 27  1  0
  8  9  1  0
  9 14  1  0
  9 10  1  0
  9 28  1  6
 10 12  1  0
 10 11  1  0
 10 29  1  6
 11 12  1  0
 11 30  1  0
 11 31  1  0
 12 13  1  0
 12 32  1  1
 13 19  1  0
 13 14  1  0
 13 33  1  6
 14 15  1  0
 14 34  1  1
 15 16  1  0
 15 35  1  1
 16 19  1  0
 16 17  1  0
 16 36  1  1
 17 18  1  0
 18 19  1  0
 18 37  1  0
 18 38  1  0
 19 20  1  1
 20 39  1  0
M  CHG  1   2   1
M  END
>  <i_m_ct_stereo_status>  (321) 
1

>  <s_m_source_file>  (321) 
/var/tmp/pbs.5076255.sched01/tmpycp4azd_/132pnz8hy5b.sdf

>  <i_m_source_file_index>  (321) 
25

>  <i_lp_mmshare_version>  (321) 
48012

>  <i_f3d_flags>  (321) 
0

>  <s_epik_input>  (321) 
W0NIMl0xT1tDQEhdMltDQEBIXShbQ0BASF0zNClOKFtDSDNdKWMoW2NIXVtjSF1bY0hdW2NIXTUpYzVbQ0BASF0zW0NAQEhdKFtDSDJdNilbQ0BASF02W0NAQEhdNFtDQEBdMTJbT0hd

>  <s_epik_cmdline>  (321) 
J2VwaWtfcHl0aG9uJywgJy1waHQnLCAnMi4wJywgJy1waCcsICc3LjAnLCAnLXRuJywgJzgnLCAnLW1hJywgJzIwMCcsICctaW1hZScsICc8aW5maWxlLm1hZT4nLCAnLW9tYWUnLCAnPG91dGZpbGUubWFlPic=

>  <r_epik_Ionization_Penalty>  (321) 
1.74366

>  <r_epik_Ionization_Penalty_Charging>  (321) 
1.74366

>  <r_epik_Ionization_Penalty_Neutral>  (321) 
5.64017e-07

>  <r_epik_State_Penalty>  (321) 
1.85295

>  <r_epik_Charging_Adjusted_Penalty>  (321) 
3.59661

>  <i_epik_Tot_Q>  (321) 
1

>  <i_epik_Tot_abs_Q>  (321) 
1

>  <s_lp_Force_Field>  (321) 
OPLS3e

>  <r_lp_Energy>  (321) 
70.7658

>  <b_lp_Chiralities_Consistent>  (321) 
1

>  <s_lp_Variant>  (321) 
102:0-2

>  <s_i_glide_gridfile>  (321) 
pfpi4k_grid

>  <i_i_glide_lignum>  (321) 
25

>  <i_i_glide_rotatable_bonds>  (321) 
1

>  <r_i_docking_score>  (321) 
-3.02419

>  <r_i_glide_ligand_efficiency>  (321) 
-0.151209

>  <r_i_glide_ligand_efficiency_sa>  (321) 
-0.410445

>  <r_i_glide_ligand_efficiency_ln>  (321) 
-0.756854

>  <r_i_glide_gscore>  (321) 
-3.02419

>  <r_i_glide_lipo>  (321) 
-0.310937

>  <r_i_glide_hbond>  (321) 
0

>  <r_i_glide_metal>  (321) 
-0

>  <r_i_glide_rewards>  (321) 
-1.56582

>  <r_i_glide_evdw>  (321) 
-15.3526

>  <r_i_glide_ecoul>  (321) 
-2.46748

>  <r_i_glide_erotb>  (321) 
0

>  <r_i_glide_esite>  (321) 
-0.00967565

>  <r_i_glide_emodel>  (321) 
-21.1936

>  <r_i_glide_energy>  (321) 
-17.8201

>  <r_i_glide_einternal>  (321) 
0.00566089

>  <r_i_glide_intrahb_reward>  (321) 
-0

>  <i_i_glide_confnum>  (321) 
1

>  <i_i_glide_posenum>  (321) 
7

>  <r_i_glide_eff_state_penalty>  (321) 
0

>  <ligand_id>  (321) 
102

>  <original_smiles>  (321) 
CN1c2ccccc2C2C3CC3C3C2C1C1OCC13O

>  <smiles>  (321) 
[H]OC12C([H])([H])OC1([H])C1([H])C3([H])C([H])(c4c([H])c([H])c([H])c([H])c4[N+]1([H])C([H])([H])[H])C1([H])C([H])([H])C1([H])C32[H]

$$$$
103:0:0
     RDKit          3D

 26 27  0  0  1  0  0  0  0  0999 V2000
  -10.4257   -8.6367   -9.9835 C   0  0  0  0  0  0  0  0  0  0  0  0
  -11.0227   -7.3747   -9.5615 N   0  0  0  0  0  0  0  0  0  0  0  0
  -12.3175   -7.1923  -10.2089 C   0  0  0  0  0  0  0  0  0  0  0  0
  -10.5605   -6.3878   -8.6826 C   0  0  0  0  0  0  0  0  0  0  0  0
   -9.4836   -6.2315   -7.8635 C   0  0  0  0  0  0  0  0  0  0  0  0
   -8.3156   -7.1040   -7.5386 C   0  0  0  0  0  0  0  0  0  0  0  0
   -8.0376   -8.2234   -7.9612 O   0  0  0  0  0  0  0  0  0  0  0  0
   -7.5119   -6.3830   -6.5430 C   0  0  0  0  0  0  0  0  0  0  0  0
   -6.3158   -6.7811   -5.9189 C   0  0  0  0  0  0  0  0  0  0  0  0
   -5.7188   -5.8896   -4.9996 C   0  0  0  0  0  0  0  0  0  0  0  0
   -6.3159   -4.6377   -4.7166 C   0  0  0  0  0  0  0  0  0  0  0  0
   -7.5288   -4.2609   -5.3367 C   0  0  0  0  0  0  0  0  0  0  0  0
   -8.1037   -5.1555   -6.2552 C   0  0  0  0  0  0  0  0  0  0  0  0
   -9.3264   -5.0033   -7.0472 C   0  0  0  0  0  0  0  0  0  0  0  0
  -10.0710   -4.0223   -7.0408 O   0  0  0  0  0  0  0  0  0  0  0  0
   -9.4544   -8.8574   -9.5743 H   0  0  0  0  0  0  0  0  0  0  0  0
  -10.3151   -8.6455  -11.0680 H   0  0  0  0  0  0  0  0  0  0  0  0
  -11.0881   -9.4646   -9.7257 H   0  0  0  0  0  0  0  0  0  0  0  0
  -12.8004   -6.2587   -9.9255 H   0  0  0  0  0  0  0  0  0  0  0  0
  -13.0005   -8.0025   -9.9416 H   0  0  0  0  0  0  0  0  0  0  0  0
  -12.2047   -7.1804  -11.2949 H   0  0  0  0  0  0  0  0  0  0  0  0
  -11.2638   -5.5646   -8.6740 H   0  0  0  0  0  0  0  0  0  0  0  0
   -5.8611   -7.7367   -6.1474 H   0  0  0  0  0  0  0  0  0  0  0  0
   -4.7956   -6.1614   -4.5161 H   0  0  0  0  0  0  0  0  0  0  0  0
   -5.8428   -3.9556   -4.0251 H   0  0  0  0  0  0  0  0  0  0  0  0
   -7.9996   -3.3134   -5.1191 H   0  0  0  0  0  0  0  0  0  0  0  0
  1  2  1  0
  1 16  1  0
  1 17  1  0
  1 18  1  0
  2  3  1  0
  2  4  1  0
  3 19  1  0
  3 20  1  0
  3 21  1  0
  4  5  2  3
  4 22  1  0
  5 14  1  0
  5  6  1  0
  6  7  2  0
  6  8  1  0
  8 13  2  0
  8  9  1  0
  9 10  2  0
  9 23  1  0
 10 11  1  0
 10 24  1  0
 11 12  2  0
 11 25  1  0
 12 13  1  0
 12 26  1  0
 13 14  1  0
 14 15  2  0
M  END
>  <i_m_ct_stereo_status>  (322) 
1

>  <s_m_source_file>  (322) 
/var/tmp/pbs.5076255.sched01/tmpycp4azd_/132pnz8hy5b.sdf

>  <i_m_source_file_index>  (322) 
26

>  <i_lp_mmshare_version>  (322) 
48012

>  <i_f3d_flags>  (322) 
0

>  <s_epik_input>  (322) 
W0NIM11OKFtDSDNdKVtDSF09QyhDMT1PKUMoPU8pYyhjMTIpW2NIXVtjSF1bY0hdW2NIXTI=

>  <s_epik_cmdline>  (322) 
J2VwaWtfcHl0aG9uJywgJy1waHQnLCAnMi4wJywgJy1waCcsICc3LjAnLCAnLXRuJywgJzgnLCAnLW1hJywgJzIwMCcsICctaW1hZScsICc8aW5maWxlLm1hZT4nLCAnLW9tYWUnLCAnPG91dGZpbGUubWFlPic=

>  <r_lp_tautomer_probability>  (322) 
1

>  <r_epik_Ionization_Penalty>  (322) 
6.96139e-06

>  <r_epik_Ionization_Penalty_Charging>  (322) 
3.33179e-10

>  <r_epik_Ionization_Penalty_Neutral>  (322) 
6.96106e-06

>  <r_epik_State_Penalty>  (322) 
-0

>  <r_epik_Charging_Adjusted_Penalty>  (322) 
3.33179e-10

>  <i_epik_Tot_Q>  (322) 
0

>  <i_epik_Tot_abs_Q>  (322) 
0

>  <s_epik_Chemistry_Notes>  (322) 
This compound has an imine and may undergo hydrolysis.

>  <s_lp_Force_Field>  (322) 
OPLS3e

>  <r_lp_Energy>  (322) 
24.2402

>  <b_lp_Chiralities_Consistent>  (322) 
1

>  <s_lp_Variant>  (322) 
103:0-1

>  <s_i_glide_gridfile>  (322) 
pfpi4k_grid

>  <i_i_glide_lignum>  (322) 
26

>  <i_i_glide_rotatable_bonds>  (322) 
1

>  <r_i_docking_score>  (322) 
-5.17144

>  <r_i_glide_ligand_efficiency>  (322) 
-0.344762

>  <r_i_glide_ligand_efficiency_sa>  (322) 
-0.850257

>  <r_i_glide_ligand_efficiency_ln>  (322) 
-1.39465

>  <r_i_glide_gscore>  (322) 
-5.17144

>  <r_i_glide_lipo>  (322) 
-1.76383

>  <r_i_glide_hbond>  (322) 
0

>  <r_i_glide_metal>  (322) 
-0

>  <r_i_glide_rewards>  (322) 
-2.52028

>  <r_i_glide_evdw>  (322) 
-22.8568

>  <r_i_glide_ecoul>  (322) 
-0.851238

>  <r_i_glide_erotb>  (322) 
0.40421

>  <r_i_glide_esite>  (322) 
-0.0210036

>  <r_i_glide_emodel>  (322) 
-30.7971

>  <r_i_glide_energy>  (322) 
-23.7081

>  <r_i_glide_einternal>  (322) 
0.162951

>  <r_i_glide_intrahb_reward>  (322) 
-0

>  <i_i_glide_confnum>  (322) 
2

>  <i_i_glide_posenum>  (322) 
8

>  <r_i_glide_eff_state_penalty>  (322) 
0

>  <ligand_id>  (322) 
103

>  <original_smiles>  (322) 
CN(C)C=C1C(=O)c2ccccc2C1=O

>  <smiles>  (322) 
[H]C(=C1C(=O)c2c([H])c([H])c([H])c([H])c2C1=O)N(C([H])([H])[H])C([H])([H])[H]

$$$$
103:0:1
     RDKit          3D

 26 27  0  0  1  0  0  0  0  0999 V2000
    2.5965   -3.8934    0.3727 C   0  0  0  0  0  0  0  0  0  0  0  0
    3.6481   -4.8530    0.0811 N   0  0  0  0  0  0  0  0  0  0  0  0
    4.6037   -4.3060   -0.8729 C   0  0  0  0  0  0  0  0  0  0  0  0
    3.8872   -6.1095    0.6345 C   0  0  0  0  0  0  0  0  0  0  0  0
    3.1223   -7.0356    1.2722 C   0  0  0  0  0  0  0  0  0  0  0  0
    1.6689   -7.0851    1.6039 C   0  0  0  0  0  0  0  0  0  0  0  0
    0.7913   -6.2580    1.3426 O   0  0  0  0  0  0  0  0  0  0  0  0
    1.4527   -8.3863    2.2697 C   0  0  0  0  0  0  0  0  0  0  0  0
    0.2650   -8.9250    2.7882 C   0  0  0  0  0  0  0  0  0  0  0  0
    0.3216  -10.2219    3.3472 C   0  0  0  0  0  0  0  0  0  0  0  0
    1.5330  -10.9549    3.3888 C   0  0  0  0  0  0  0  0  0  0  0  0
    2.7163  -10.4079    2.8652 C   0  0  0  0  0  0  0  0  0  0  0  0
    2.6433   -9.1122    2.3114 C   0  0  0  0  0  0  0  0  0  0  0  0
    3.7108   -8.3273    1.6964 C   0  0  0  0  0  0  0  0  0  0  0  0
    4.8736   -8.6966    1.5476 O   0  0  0  0  0  0  0  0  0  0  0  0
    1.9082   -4.2319    1.1367 H   0  0  0  0  0  0  0  0  0  0  0  0
    2.0528   -3.6263   -0.5387 H   0  0  0  0  0  0  0  0  0  0  0  0
    3.0309   -2.9641    0.7375 H   0  0  0  0  0  0  0  0  0  0  0  0
    5.4001   -5.0220   -1.0829 H   0  0  0  0  0  0  0  0  0  0  0  0
    5.0616   -3.3943   -0.4774 H   0  0  0  0  0  0  0  0  0  0  0  0
    4.1256   -4.0629   -1.8288 H   0  0  0  0  0  0  0  0  0  0  0  0
    4.9310   -6.3590    0.5004 H   0  0  0  0  0  0  0  0  0  0  0  0
   -0.6636   -8.3784    2.7521 H   0  0  0  0  0  0  0  0  0  0  0  0
   -0.5832  -10.6490    3.7389 H   0  0  0  0  0  0  0  0  0  0  0  0
    1.5439  -11.9460    3.8188 H   0  0  0  0  0  0  0  0  0  0  0  0
    3.6452  -10.9636    2.8654 H   0  0  0  0  0  0  0  0  0  0  0  0
  1  2  1  0
  1 16  1  0
  1 17  1  0
  1 18  1  0
  2  3  1  0
  2  4  1  0
  3 19  1  0
  3 20  1  0
  3 21  1  0
  4  5  2  3
  4 22  1  0
  5 14  1  0
  5  6  1  0
  6  7  2  0
  6  8  1  0
  8 13  2  0
  8  9  1  0
  9 10  2  0
  9 23  1  0
 10 11  1  0
 10 24  1  0
 11 12  2  0
 11 25  1  0
 12 13  1  0
 12 26  1  0
 13 14  1  0
 14 15  2  0
M  END
>  <i_m_ct_stereo_status>  (323) 
1

>  <s_m_source_file>  (323) 
/var/tmp/pbs.5076255.sched01/tmpycp4azd_/132pnz8hy5b.sdf

>  <i_m_source_file_index>  (323) 
26

>  <i_lp_mmshare_version>  (323) 
48012

>  <i_f3d_flags>  (323) 
0

>  <s_epik_input>  (323) 
W0NIM11OKFtDSDNdKVtDSF09QyhDMT1PKUMoPU8pYyhjMTIpW2NIXVtjSF1bY0hdW2NIXTI=

>  <s_epik_cmdline>  (323) 
J2VwaWtfcHl0aG9uJywgJy1waHQnLCAnMi4wJywgJy1waCcsICc3LjAnLCAnLXRuJywgJzgnLCAnLW1hJywgJzIwMCcsICctaW1hZScsICc8aW5maWxlLm1hZT4nLCAnLW9tYWUnLCAnPG91dGZpbGUubWFlPic=

>  <r_lp_tautomer_probability>  (323) 
1

>  <r_epik_Ionization_Penalty>  (323) 
6.96139e-06

>  <r_epik_Ionization_Penalty_Charging>  (323) 
3.33179e-10

>  <r_epik_Ionization_Penalty_Neutral>  (323) 
6.96106e-06

>  <r_epik_State_Penalty>  (323) 
-0

>  <r_epik_Charging_Adjusted_Penalty>  (323) 
3.33179e-10

>  <i_epik_Tot_Q>  (323) 
0

>  <i_epik_Tot_abs_Q>  (323) 
0

>  <s_epik_Chemistry_Notes>  (323) 
This compound has an imine and may undergo hydrolysis.

>  <s_lp_Force_Field>  (323) 
OPLS3e

>  <r_lp_Energy>  (323) 
24.2402

>  <b_lp_Chiralities_Consistent>  (323) 
1

>  <s_lp_Variant>  (323) 
103:0-1

>  <s_i_glide_gridfile>  (323) 
pfpi4k_grid

>  <i_i_glide_lignum>  (323) 
26

>  <i_i_glide_rotatable_bonds>  (323) 
1

>  <r_i_docking_score>  (323) 
-3.53334

>  <r_i_glide_ligand_efficiency>  (323) 
-0.235556

>  <r_i_glide_ligand_efficiency_sa>  (323) 
-0.580932

>  <r_i_glide_ligand_efficiency_ln>  (323) 
-0.952884

>  <r_i_glide_gscore>  (323) 
-3.53334

>  <r_i_glide_lipo>  (323) 
-0.297974

>  <r_i_glide_hbond>  (323) 
-0.16

>  <r_i_glide_metal>  (323) 
-0

>  <r_i_glide_rewards>  (323) 
-2.03713

>  <r_i_glide_evdw>  (323) 
-18.801

>  <r_i_glide_ecoul>  (323) 
-2.90328

>  <r_i_glide_erotb>  (323) 
0.40421

>  <r_i_glide_esite>  (323) 
-0.0669076

>  <r_i_glide_emodel>  (323) 
-25.5657

>  <r_i_glide_energy>  (323) 
-21.7043

>  <r_i_glide_einternal>  (323) 
0.649945

>  <r_i_glide_intrahb_reward>  (323) 
-0

>  <i_i_glide_confnum>  (323) 
4

>  <i_i_glide_posenum>  (323) 
25

>  <r_i_glide_eff_state_penalty>  (323) 
0

>  <ligand_id>  (323) 
103

>  <original_smiles>  (323) 
CN(C)C=C1C(=O)c2ccccc2C1=O

>  <smiles>  (323) 
[H]C(=C1C(=O)c2c([H])c([H])c([H])c([H])c2C1=O)N(C([H])([H])[H])C([H])([H])[H]

$$$$
103:0:2
     RDKit          3D

 26 27  0  0  1  0  0  0  0  0999 V2000
   -4.0657    3.4188    9.1013 C   0  0  0  0  0  0  0  0  0  0  0  0
   -2.9212    3.4338    8.1918 N   0  0  0  0  0  0  0  0  0  0  0  0
   -2.1210    4.6282    8.4377 C   0  0  0  0  0  0  0  0  0  0  0  0
   -2.5540    2.3133    7.4256 C   0  0  0  0  0  0  0  0  0  0  0  0
   -1.7969    2.1483    6.2945 C   0  0  0  0  0  0  0  0  0  0  0  0
   -1.0710    3.1487    5.4606 C   0  0  0  0  0  0  0  0  0  0  0  0
   -1.0748    4.3734    5.5628 O   0  0  0  0  0  0  0  0  0  0  0  0
   -0.3413    2.3703    4.4369 C   0  0  0  0  0  0  0  0  0  0  0  0
    0.5139    2.8415    3.4296 C   0  0  0  0  0  0  0  0  0  0  0  0
    1.0105    1.9069    2.5016 C   0  0  0  0  0  0  0  0  0  0  0  0
    0.6624    0.5401    2.5948 C   0  0  0  0  0  0  0  0  0  0  0  0
   -0.1718    0.0719    3.6307 C   0  0  0  0  0  0  0  0  0  0  0  0
   -0.6534    1.0157    4.5489 C   0  0  0  0  0  0  0  0  0  0  0  0
   -1.5491    0.8206    5.6943 C   0  0  0  0  0  0  0  0  0  0  0  0
   -2.0178   -0.2602    6.0806 O   0  0  0  0  0  0  0  0  0  0  0  0
   -4.6679    2.5434    8.9884 H   0  0  0  0  0  0  0  0  0  0  0  0
   -4.7172    4.2668    8.8766 H   0  0  0  0  0  0  0  0  0  0  0  0
   -3.7331    3.5168   10.1429 H   0  0  0  0  0  0  0  0  0  0  0  0
   -1.1394    4.6305    7.9520 H   0  0  0  0  0  0  0  0  0  0  0  0
   -1.9519    4.7506    9.5178 H   0  0  0  0  0  0  0  0  0  0  0  0
   -2.7158    5.4927    8.1173 H   0  0  0  0  0  0  0  0  0  0  0  0
   -2.9395    1.4174    7.8955 H   0  0  0  0  0  0  0  0  0  0  0  0
    0.7377    3.8976    3.3536 H   0  0  0  0  0  0  0  0  0  0  0  0
    1.6332    2.2627    1.6908 H   0  0  0  0  0  0  0  0  0  0  0  0
    1.0348   -0.1447    1.8464 H   0  0  0  0  0  0  0  0  0  0  0  0
   -0.4619   -0.9708    3.7214 H   0  0  0  0  0  0  0  0  0  0  0  0
  1  2  1  0
  1 16  1  0
  1 17  1  0
  1 18  1  0
  2  3  1  0
  2  4  1  0
  3 19  1  0
  3 20  1  0
  3 21  1  0
  4  5  2  3
  4 22  1  0
  5 14  1  0
  5  6  1  0
  6  7  2  0
  6  8  1  0
  8 13  2  0
  8  9  1  0
  9 10  2  0
  9 23  1  0
 10 11  1  0
 10 24  1  0
 11 12  2  0
 11 25  1  0
 12 13  1  0
 12 26  1  0
 13 14  1  0
 14 15  2  0
M  END
>  <i_m_ct_stereo_status>  (324) 
1

>  <s_m_source_file>  (324) 
/var/tmp/pbs.5076255.sched01/tmpycp4azd_/132pnz8hy5b.sdf

>  <i_m_source_file_index>  (324) 
26

>  <i_lp_mmshare_version>  (324) 
48012

>  <i_f3d_flags>  (324) 
0

>  <s_epik_input>  (324) 
W0NIM11OKFtDSDNdKVtDSF09QyhDMT1PKUMoPU8pYyhjMTIpW2NIXVtjSF1bY0hdW2NIXTI=

>  <s_epik_cmdline>  (324) 
J2VwaWtfcHl0aG9uJywgJy1waHQnLCAnMi4wJywgJy1waCcsICc3LjAnLCAnLXRuJywgJzgnLCAnLW1hJywgJzIwMCcsICctaW1hZScsICc8aW5maWxlLm1hZT4nLCAnLW9tYWUnLCAnPG91dGZpbGUubWFlPic=

>  <r_lp_tautomer_probability>  (324) 
1

>  <r_epik_Ionization_Penalty>  (324) 
6.96139e-06

>  <r_epik_Ionization_Penalty_Charging>  (324) 
3.33179e-10

>  <r_epik_Ionization_Penalty_Neutral>  (324) 
6.96106e-06

>  <r_epik_State_Penalty>  (324) 
-0

>  <r_epik_Charging_Adjusted_Penalty>  (324) 
3.33179e-10

>  <i_epik_Tot_Q>  (324) 
0

>  <i_epik_Tot_abs_Q>  (324) 
0

>  <s_epik_Chemistry_Notes>  (324) 
This compound has an imine and may undergo hydrolysis.

>  <s_lp_Force_Field>  (324) 
OPLS3e

>  <r_lp_Energy>  (324) 
24.2402

>  <b_lp_Chiralities_Consistent>  (324) 
1

>  <s_lp_Variant>  (324) 
103:0-1

>  <s_i_glide_gridfile>  (324) 
pfpi4k_grid

>  <i_i_glide_lignum>  (324) 
26

>  <i_i_glide_rotatable_bonds>  (324) 
1

>  <r_i_docking_score>  (324) 
-3.38035

>  <r_i_glide_ligand_efficiency>  (324) 
-0.225356

>  <r_i_glide_ligand_efficiency_sa>  (324) 
-0.555777

>  <r_i_glide_ligand_efficiency_ln>  (324) 
-0.911623

>  <r_i_glide_gscore>  (324) 
-3.38035

>  <r_i_glide_lipo>  (324) 
-0.126092

>  <r_i_glide_hbond>  (324) 
-0.14617

>  <r_i_glide_metal>  (324) 
-0

>  <r_i_glide_rewards>  (324) 
-2.03713

>  <r_i_glide_evdw>  (324) 
-16.623

>  <r_i_glide_ecoul>  (324) 
-3.95904

>  <r_i_glide_erotb>  (324) 
0.40421

>  <r_i_glide_esite>  (324) 
-0.0501592

>  <r_i_glide_emodel>  (324) 
-24.566

>  <r_i_glide_energy>  (324) 
-20.582

>  <r_i_glide_einternal>  (324) 
0.623201

>  <r_i_glide_intrahb_reward>  (324) 
-0

>  <i_i_glide_confnum>  (324) 
1

>  <i_i_glide_posenum>  (324) 
11

>  <r_i_glide_eff_state_penalty>  (324) 
0

>  <ligand_id>  (324) 
103

>  <original_smiles>  (324) 
CN(C)C=C1C(=O)c2ccccc2C1=O

>  <smiles>  (324) 
[H]C(=C1C(=O)c2c([H])c([H])c([H])c([H])c2C1=O)N(C([H])([H])[H])C([H])([H])[H]

$$$$
104:0:0
     RDKit          3D

 69 74  0  0  1  0  0  0  0  0999 V2000
    3.0011   -2.8816   -1.7513 C   0  0  0  0  0  0  0  0  0  0  0  0
    4.2902   -2.6904   -0.9467 C   0  0  2  0  0  0  0  0  0  0  0  0
    5.5101   -2.7234   -1.9173 C   0  0  0  0  0  0  0  0  0  0  0  0
    6.9208   -2.7540   -1.2661 C   0  0  0  0  0  0  0  0  0  0  0  0
    6.9848   -3.5171    0.0639 C   0  0  0  0  0  0  0  0  0  0  0  0
    7.9709   -4.1813    0.3600 O   0  0  0  0  0  0  0  0  0  0  0  0
    5.7761   -3.3145    0.9961 C   0  0  2  0  0  0  0  0  0  0  0  0
    5.8301   -1.8277    1.4671 C   0  0  0  0  0  0  0  0  0  0  0  0
    5.6938   -4.2435    2.2326 C   0  0  0  0  0  0  0  0  0  0  0  0
    4.5250   -5.2680    2.0588 C   0  0  2  0  0  0  0  0  0  0  0  0
    5.1636   -6.2995    1.3183 O   0  0  0  0  0  0  0  0  0  0  0  0
    3.5604   -4.4469    1.1213 C   0  0  1  0  0  0  0  0  0  0  0  0
    2.5609   -5.3521    0.3550 C   0  0  0  0  0  0  0  0  0  0  0  0
    2.7760   -3.4232    1.9681 C   0  0  0  0  0  0  0  0  0  0  0  0
    1.9403   -4.0449    3.0877 C   0  0  0  0  0  0  0  0  0  0  0  0
    2.6916   -5.0651    3.9695 C   0  0  1  0  0  0  0  0  0  0  0  0
    3.7195   -4.4757    4.8267 O   0  0  0  0  0  0  0  0  0  0  0  0
    4.3906   -5.7696    4.8155 C   0  0  1  0  0  0  0  0  0  0  0  0
    5.9319   -5.6898    5.0315 C   0  0  0  0  0  0  0  0  0  0  0  0
    6.3177   -4.6558    5.9113 O   0  0  0  0  0  0  0  0  0  0  0  0
    3.7575   -6.5810    6.0277 C   0  0  1  0  0  0  0  0  0  0  0  0
    4.2283   -8.0578    6.1209 C   0  0  0  0  0  0  0  0  0  0  0  0
    4.2153   -6.0704    7.2661 O   0  0  0  0  0  0  0  0  0  0  0  0
    2.1950   -6.5443    6.0278 C   0  0  1  0  0  0  0  0  0  0  0  0
    1.5069   -5.9414    7.2631 C   0  0  0  0  0  0  0  0  0  0  0  0
    0.2536   -5.3061    6.6881 C   0  0  0  0  0  0  0  0  0  0  0  0
    0.7305   -4.7717    5.4643 O   0  0  0  0  0  0  0  0  0  0  0  0
    1.6182   -5.7200    4.8784 C   0  0  1  0  0  0  0  0  0  0  0  0
    3.8173   -5.9374    3.3497 C   0  0  2  0  0  0  0  0  0  0  0  0
    3.3969   -7.3872    2.9850 C   0  0  0  0  0  0  0  0  0  0  0  0
    4.5655   -3.7562    0.1474 C   0  0  1  0  0  0  0  0  0  0  0  0
    2.9450   -3.8546   -2.2230 H   0  0  0  0  0  0  0  0  0  0  0  0
    2.9331   -2.1233   -2.5336 H   0  0  0  0  0  0  0  0  0  0  0  0
    2.1366   -2.7469   -1.1067 H   0  0  0  0  0  0  0  0  0  0  0  0
    4.2046   -1.6988   -0.4991 H   0  0  0  0  0  0  0  0  0  0  0  0
    5.4208   -3.6030   -2.5580 H   0  0  0  0  0  0  0  0  0  0  0  0
    5.4545   -1.8631   -2.5844 H   0  0  0  0  0  0  0  0  0  0  0  0
    7.6564   -3.1608   -1.9587 H   0  0  0  0  0  0  0  0  0  0  0  0
    7.2426   -1.7478   -1.0373 H   0  0  0  0  0  0  0  0  0  0  0  0
    4.9019   -1.4407    1.8766 H   0  0  0  0  0  0  0  0  0  0  0  0
    6.1140   -1.1288    0.6817 H   0  0  0  0  0  0  0  0  0  0  0  0
    6.5922   -1.7059    2.2352 H   0  0  0  0  0  0  0  0  0  0  0  0
    6.6633   -4.7127    2.3350 H   0  0  0  0  0  0  0  0  0  0  0  0
    5.5250   -3.6375    3.1155 H   0  0  0  0  0  0  0  0  0  0  0  0
    4.5118   -6.9320    1.0711 H   0  0  0  0  0  0  0  0  0  0  0  0
    1.9004   -4.7713   -0.2778 H   0  0  0  0  0  0  0  0  0  0  0  0
    1.9096   -5.9157    1.0166 H   0  0  0  0  0  0  0  0  0  0  0  0
    3.0849   -6.0556   -0.2902 H   0  0  0  0  0  0  0  0  0  0  0  0
    3.4512   -2.7505    2.4827 H   0  0  0  0  0  0  0  0  0  0  0  0
    2.1569   -2.7920    1.3258 H   0  0  0  0  0  0  0  0  0  0  0  0
    1.5159   -3.2450    3.6924 H   0  0  0  0  0  0  0  0  0  0  0  0
    1.0844   -4.5343    2.6278 H   0  0  0  0  0  0  0  0  0  0  0  0
    6.3226   -6.6177    5.4129 H   0  0  0  0  0  0  0  0  0  0  0  0
    6.5154   -5.5979    4.1465 H   0  0  0  0  0  0  0  0  0  0  0  0
    5.9739   -3.8461    5.5962 H   0  0  0  0  0  0  0  0  0  0  0  0
    3.9586   -8.6641    5.2565 H   0  0  0  0  0  0  0  0  0  0  0  0
    3.8211   -8.5537    7.0026 H   0  0  0  0  0  0  0  0  0  0  0  0
    5.3065   -8.1596    6.2384 H   0  0  0  0  0  0  0  0  0  0  0  0
    4.0728   -5.1376    7.2488 H   0  0  0  0  0  0  0  0  0  0  0  0
    1.8101   -7.5611    5.9254 H   0  0  0  0  0  0  0  0  0  0  0  0
    1.2970   -6.6753    8.0473 H   0  0  0  0  0  0  0  0  0  0  0  0
    2.0671   -5.1202    7.7133 H   0  0  0  0  0  0  0  0  0  0  0  0
   -0.5132   -6.0643    6.5134 H   0  0  0  0  0  0  0  0  0  0  0  0
   -0.1480   -4.5169    7.3314 H   0  0  0  0  0  0  0  0  0  0  0  0
    0.9803   -6.3766    4.2877 H   0  0  0  0  0  0  0  0  0  0  0  0
    2.6877   -7.7973    3.6887 H   0  0  0  0  0  0  0  0  0  0  0  0
    4.2492   -8.0603    2.9866 H   0  0  0  0  0  0  0  0  0  0  0  0
    2.9044   -7.4789    2.0280 H   0  0  0  0  0  0  0  0  0  0  0  0
    4.8700   -4.6098   -0.4630 H   0  0  0  0  0  0  0  0  0  0  0  0
  1  2  1  0
  1 32  1  0
  1 33  1  0
  1 34  1  0
  2 31  1  0
  2  3  1  0
  2 35  1  1
  3  4  1  0
  3 36  1  0
  3 37  1  0
  4  5  1  0
  4 38  1  0
  4 39  1  0
  5  6  2  0
  5  7  1  0
  7 31  1  0
  7  8  1  1
  7  9  1  0
  8 40  1  0
  8 41  1  0
  8 42  1  0
  9 10  1  0
  9 43  1  0
  9 44  1  0
 10 29  1  0
 10 11  1  6
 10 12  1  0
 11 45  1  0
 12 13  1  6
 12 14  1  0
 12 31  1  0
 13 46  1  0
 13 47  1  0
 13 48  1  0
 14 15  1  0
 14 49  1  0
 14 50  1  0
 16 15  1  6
 15 51  1  0
 15 52  1  0
 16 28  1  0
 16 29  1  0
 16 17  1  0
 17 18  1  0
 18 19  1  6
 18 21  1  0
 18 29  1  0
 19 20  1  0
 19 53  1  0
 19 54  1  0
 20 55  1  0
 21 22  1  0
 21 23  1  1
 21 24  1  0
 22 56  1  0
 22 57  1  0
 22 58  1  0
 23 59  1  0
 24 28  1  0
 24 25  1  0
 24 60  1  6
 25 26  1  0
 25 61  1  0
 25 62  1  0
 26 27  1  0
 26 63  1  0
 26 64  1  0
 27 28  1  0
 28 65  1  6
 29 30  1  6
 30 66  1  0
 30 67  1  0
 30 68  1  0
 31 69  1  6
M  END
>  <i_m_ct_stereo_status>  (325) 
1

>  <s_m_source_file>  (325) 
/var/tmp/pbs.5076255.sched01/tmpycp4azd_/132pnz8hy5b.sdf

>  <i_m_source_file_index>  (325) 
27

>  <i_lp_mmshare_version>  (325) 
48012

>  <i_f3d_flags>  (325) 
0

>  <s_epik_input>  (325) 
W0NIM11bQ0BASF0xW0NIMl1bQ0gyXUMoPU8pW0NAXShbQ0gzXSkoW0NIMl0yKVtDQEhdMVtDQF0oW0NIM10pKFtDSDJdW0NIMl0zKVtDQF0yKFtPSF0pW0NAQF00KFtDSDNdKVtDQF0oTzUpKFtDSDJdW09IXSlbQ0BAXShbQ0gzXSkoW09IXSlbQ0BIXShbQ0BASF02W0NAXTM0NSlbQ0gyXVtDSDJdTzY=

>  <s_epik_cmdline>  (325) 
J2VwaWtfcHl0aG9uJywgJy1waHQnLCAnMi4wJywgJy1waCcsICc3LjAnLCAnLXRuJywgJzgnLCAnLW1hJywgJzIwMCcsICctaW1hZScsICc8aW5maWxlLm1hZT4nLCAnLW9tYWUnLCAnPG91dGZpbGUubWFlPic=

>  <r_lp_tautomer_probability>  (325) 
1

>  <r_epik_Ionization_Penalty>  (325) 
2.07903e-07

>  <r_epik_Ionization_Penalty_Charging>  (325) 
0

>  <r_epik_Ionization_Penalty_Neutral>  (325) 
2.07903e-07

>  <r_epik_State_Penalty>  (325) 
-0

>  <r_epik_Charging_Adjusted_Penalty>  (325) 
0

>  <i_epik_Tot_Q>  (325) 
0

>  <i_epik_Tot_abs_Q>  (325) 
0

>  <s_lp_Force_Field>  (325) 
OPLS3e

>  <r_lp_Energy>  (325) 
80.7122

>  <b_lp_Chiralities_Consistent>  (325) 
1

>  <s_lp_Variant>  (325) 
104:0-1

>  <s_i_glide_gridfile>  (325) 
pfpi4k_grid

>  <i_i_glide_lignum>  (325) 
27

>  <i_i_glide_rotatable_bonds>  (325) 
4

>  <r_i_docking_score>  (325) 
-1.91607

>  <r_i_glide_ligand_efficiency>  (325) 
-0.0618088

>  <r_i_glide_ligand_efficiency_sa>  (325) 
-0.194165

>  <r_i_glide_ligand_efficiency_ln>  (325) 
-0.432133

>  <r_i_glide_gscore>  (325) 
-1.91607

>  <r_i_glide_lipo>  (325) 
-0.310127

>  <r_i_glide_hbond>  (325) 
0

>  <r_i_glide_metal>  (325) 
-0

>  <r_i_glide_rewards>  (325) 
-0.626358

>  <r_i_glide_evdw>  (325) 
-19.9235

>  <r_i_glide_ecoul>  (325) 
-0.592527

>  <r_i_glide_erotb>  (325) 
0.105465

>  <r_i_glide_esite>  (325) 
0

>  <r_i_glide_emodel>  (325) 
-19.6584

>  <r_i_glide_energy>  (325) 
-20.516

>  <r_i_glide_einternal>  (325) 
5.82458

>  <r_i_glide_intrahb_reward>  (325) 
-0

>  <i_i_glide_confnum>  (325) 
4

>  <i_i_glide_posenum>  (325) 
8

>  <r_i_glide_eff_state_penalty>  (325) 
0

>  <ligand_id>  (325) 
104

>  <original_smiles>  (325) 
CC1CCC(=O)C2(C)CC3(O)C(C)(CCC45OC(CO)(C(C)(O)C6CCOC64)C53C)C12

>  <smiles>  (325) 
[H]OC([H])([H])C12OC3(C([H])([H])C([H])([H])C4(C([H])([H])[H])C5([H])C([H])(C([H])([H])[H])C([H])([H])C([H])([H])C(=O)C5(C([H])([H])[H])C([H])([H])C4(O[H])C31C([H])([H])[H])C1([H])OC([H])([H])C([H])([H])C1([H])C2(O[H])C([H])([H])[H]

$$$$
105:0:0
     RDKit          3D

 54 57  0  0  1  0  0  0  0  0999 V2000
    5.0836   -6.2984    1.0984 C   0  0  0  0  0  0  0  0  0  0  0  0
    4.5761   -4.8550    0.8126 C   0  0  2  0  0  0  0  0  0  0  0  0
    5.5612   -4.2945   -0.3427 C   0  0  1  0  0  0  0  0  0  0  0  0
    5.1912   -4.1128   -1.9072 C   0  0  0  0  0  0  0  0  0  0  0  0
    4.3817   -2.7428   -2.3417 C   0  0  1  0  0  0  0  0  0  0  0  0
    3.2389   -3.0249   -1.5433 C   0  0  0  0  0  0  0  0  0  0  0  0
    4.0348   -2.5762   -0.3115 C   0  0  2  0  0  0  0  0  0  0  0  0
    3.8715   -1.2150   -0.1924 C   0  0  2  0  0  0  0  0  0  0  0  0
    4.5248   -1.2171   -1.6694 C   0  0  0  0  0  0  0  0  0  0  0  0
    4.4193   -1.0887    1.3028 N   0  0  2  0  0  0  0  0  0  0  0  0
    4.0120    0.1196    1.7230 O   0  0  0  0  0  0  0  0  0  0  0  0
    5.9172   -1.0545    1.3950 C   0  0  0  0  0  0  0  0  0  0  0  0
    6.3848   -2.4523    1.1752 C   0  0  0  0  0  0  0  0  0  0  0  0
    5.7167   -2.8977   -0.1206 C   0  0  1  0  0  0  0  0  0  0  0  0
    6.9593   -2.4333   -1.0443 C   0  0  0  0  0  0  0  0  0  0  0  0
    3.8124   -2.2571    2.3543 C   0  0  0  0  0  0  0  0  0  0  0  0
    4.2714   -1.8062    3.7746 C   0  0  0  0  0  0  0  0  0  0  0  0
    2.2671   -1.9274    2.4051 C   0  0  0  0  0  0  0  0  0  0  0  0
    4.0893   -3.9867    2.1969 C   0  0  0  0  0  0  0  0  0  0  0  0
    2.7083   -4.6734    2.4710 C   0  0  0  0  0  0  0  0  0  0  0  0
    4.8832   -4.5688    3.4388 C   0  0  0  0  0  0  0  0  0  0  0  0
    6.0486   -6.3031    1.6128 H   0  0  0  0  0  0  0  0  0  0  0  0
    5.2222   -6.8392    0.1614 H   0  0  0  0  0  0  0  0  0  0  0  0
    4.3882   -6.9005    1.6850 H   0  0  0  0  0  0  0  0  0  0  0  0
    3.6608   -5.0867    0.2747 H   0  0  0  0  0  0  0  0  0  0  0  0
    6.5220   -4.8114   -0.2564 H   0  0  0  0  0  0  0  0  0  0  0  0
    6.0546   -4.2123   -2.5461 H   0  0  0  0  0  0  0  0  0  0  0  0
    4.6945   -5.0166   -2.2270 H   0  0  0  0  0  0  0  0  0  0  0  0
    4.1486   -2.7275   -3.4059 H   0  0  0  0  0  0  0  0  0  0  0  0
    2.3804   -2.3968   -1.7916 H   0  0  0  0  0  0  0  0  0  0  0  0
    2.8818   -4.0526   -1.5306 H   0  0  0  0  0  0  0  0  0  0  0  0
    3.2743   -3.0069    0.2840 H   0  0  0  0  0  0  0  0  0  0  0  0
    2.8143   -0.8998   -0.1867 H   0  0  0  0  0  0  0  0  0  0  0  0
    5.4708   -0.6799   -1.7797 H   0  0  0  0  0  0  0  0  0  0  0  0
    3.8764   -0.5838   -2.2772 H   0  0  0  0  0  0  0  0  0  0  0  0
    6.2540   -0.3222    0.6697 H   0  0  0  0  0  0  0  0  0  0  0  0
    6.2040   -0.6813    2.3745 H   0  0  0  0  0  0  0  0  0  0  0  0
    7.4780   -2.4374    1.1523 H   0  0  0  0  0  0  0  0  0  0  0  0
    6.2550   -3.0612    2.0340 H   0  0  0  0  0  0  0  0  0  0  0  0
    7.3108   -1.4554   -0.7520 H   0  0  0  0  0  0  0  0  0  0  0  0
    6.8633   -2.3454   -2.1204 H   0  0  0  0  0  0  0  0  0  0  0  0
    7.8291   -3.0771   -0.9150 H   0  0  0  0  0  0  0  0  0  0  0  0
    3.6867   -2.2799    4.5679 H   0  0  0  0  0  0  0  0  0  0  0  0
    4.1254   -0.7359    3.9396 H   0  0  0  0  0  0  0  0  0  0  0  0
    5.3241   -2.0049    3.9756 H   0  0  0  0  0  0  0  0  0  0  0  0
    1.7512   -2.3948    3.2386 H   0  0  0  0  0  0  0  0  0  0  0  0
    1.7331   -2.1882    1.4913 H   0  0  0  0  0  0  0  0  0  0  0  0
    2.0738   -0.8689    2.5585 H   0  0  0  0  0  0  0  0  0  0  0  0
    2.3039   -4.4211    3.4491 H   0  0  0  0  0  0  0  0  0  0  0  0
    2.7640   -5.7632    2.4756 H   0  0  0  0  0  0  0  0  0  0  0  0
    1.9642   -4.4316    1.7127 H   0  0  0  0  0  0  0  0  0  0  0  0
    4.4761   -4.2464    4.3929 H   0  0  0  0  0  0  0  0  0  0  0  0
    5.9464   -4.3731    3.4692 H   0  0  0  0  0  0  0  0  0  0  0  0
    4.8106   -5.6542    3.5153 H   0  0  0  0  0  0  0  0  0  0  0  0
  1  2  1  0
  1 22  1  0
  1 23  1  0
  1 24  1  0
  2 19  1  0
  2  3  1  0
  2 25  1  6
  3 14  1  0
  3  4  1  0
  3 26  1  6
  4  5  1  0
  4 27  1  0
  4 28  1  0
  5  9  1  0
  5  6  1  0
  5 29  1  6
  6  7  1  0
  6 30  1  0
  6 31  1  0
  7 14  1  0
  7  8  1  0
  7 32  1  1
  8  9  1  0
  8 10  1  0
  8 33  1  6
  9 34  1  0
  9 35  1  0
 10 11  1  1
 10 12  1  0
 10 16  1  0
 12 13  1  0
 12 36  1  0
 12 37  1  0
 13 14  1  0
 13 38  1  0
 13 39  1  0
 14 15  1  6
 15 40  1  0
 15 41  1  0
 15 42  1  0
 16 17  1  0
 16 18  1  0
 16 19  1  0
 17 43  1  0
 17 44  1  0
 17 45  1  0
 18 46  1  0
 18 47  1  0
 18 48  1  0
 19 20  1  0
 19 21  1  0
 20 49  1  0
 20 50  1  0
 20 51  1  0
 21 52  1  0
 21 53  1  0
 21 54  1  0
M  CHG  2  10   1  11  -1
M  END
>  <i_m_ct_stereo_status>  (326) 
1

>  <s_m_source_file>  (326) 
/var/tmp/pbs.5076255.sched01/tmpycp4azd_/132pnz8hy5b.sdf

>  <i_m_source_file_index>  (326) 
28

>  <i_lp_mmshare_version>  (326) 
48012

>  <i_f3d_flags>  (326) 
0

>  <s_epik_input>  (326) 
W0NIM11DMShbQ0gzXSlDKFtDSDNdKShbQ0gzXSlbQ0BIXShbQ0gzXSlbQ0BASF0oW0NIMl1bQ0BASF0oW0NIMl0yKVtDSDJdMylbQ0BdKFtDSDNdKShbQ0gyXVtDSDJdNClbQ0BIXTJbQ0BIXTNbTkBAK10xNFtPLV0=

>  <s_epik_cmdline>  (326) 
J2VwaWtfcHl0aG9uJywgJy1waHQnLCAnMi4wJywgJy1waCcsICc3LjAnLCAnLXRuJywgJzgnLCAnLW1hJywgJzIwMCcsICctaW1hZScsICc8aW5maWxlLm1hZT4nLCAnLW9tYWUnLCAnPG91dGZpbGUubWFlPic=

>  <r_epik_Ionization_Penalty>  (326) 
0.151792

>  <r_epik_Ionization_Penalty_Charging>  (326) 
0.151792

>  <r_epik_Ionization_Penalty_Neutral>  (326) 
0

>  <r_epik_State_Penalty>  (326) 
0.141082

>  <r_epik_Charging_Adjusted_Penalty>  (326) 
0.292874

>  <i_epik_Tot_Q>  (326) 
0

>  <i_epik_Tot_abs_Q>  (326) 
2

>  <s_lp_Force_Field>  (326) 
OPLS3e

>  <r_lp_Energy>  (326) 
347.355

>  <b_lp_Chiralities_Consistent>  (326) 
1

>  <s_lp_Variant>  (326) 
105:0-1

>  <s_i_glide_gridfile>  (326) 
pfpi4k_grid

>  <i_i_glide_lignum>  (326) 
28

>  <i_i_glide_rotatable_bonds>  (326) 
0

>  <r_i_docking_score>  (326) 
-3.05187

>  <r_i_glide_ligand_efficiency>  (326) 
-0.145327

>  <r_i_glide_ligand_efficiency_sa>  (326) 
-0.400947

>  <r_i_glide_ligand_efficiency_ln>  (326) 
-0.75457

>  <r_i_glide_gscore>  (326) 
-3.05187

>  <r_i_glide_lipo>  (326) 
-0.507392

>  <r_i_glide_hbond>  (326) 
0

>  <r_i_glide_metal>  (326) 
-0

>  <r_i_glide_rewards>  (326) 
-1.42179

>  <r_i_glide_evdw>  (326) 
-21.5542

>  <r_i_glide_ecoul>  (326) 
-0.299897

>  <r_i_glide_erotb>  (326) 
0

>  <r_i_glide_esite>  (326) 
0

>  <r_i_glide_emodel>  (326) 
-26.3661

>  <r_i_glide_energy>  (326) 
-21.8541

>  <r_i_glide_einternal>  (326) 
0

>  <r_i_glide_intrahb_reward>  (326) 
-0

>  <i_i_glide_confnum>  (326) 
2

>  <i_i_glide_posenum>  (326) 
26

>  <r_i_glide_eff_state_penalty>  (326) 
0

>  <ligand_id>  (326) 
105

>  <original_smiles>  (326) 
CC1C2CC3CC4C(C3)[N+]([O-])(CCC24C)C(C)(C)C1(C)C

>  <smiles>  (326) 
[H]C([H])([H])C1([H])C2([H])C([H])([H])C3([H])C([H])([H])C4([H])C2(C([H])([H])[H])C([H])([H])C([H])([H])[N+]([O-])(C4([H])C3([H])[H])C(C([H])([H])[H])(C([H])([H])[H])C1(C([H])([H])[H])C([H])([H])[H]

$$$$
105:0:1
     RDKit          3D

 54 57  0  0  1  0  0  0  0  0999 V2000
    8.4002   -5.1044    1.1950 C   0  0  0  0  0  0  0  0  0  0  0  0
    6.8680   -4.8880    1.0623 C   0  0  2  0  0  0  0  0  0  0  0  0
    6.7036   -3.2982    0.8021 C   0  0  1  0  0  0  0  0  0  0  0  0
    6.3876   -2.6177   -0.6444 C   0  0  0  0  0  0  0  0  0  0  0  0
    4.7762   -2.5161   -1.0653 C   0  0  1  0  0  0  0  0  0  0  0  0
    4.5959   -3.9317   -1.1171 C   0  0  0  0  0  0  0  0  0  0  0  0
    4.5205   -3.9415    0.4230 C   0  0  2  0  0  0  0  0  0  0  0  0
    3.1833   -3.7477    0.7464 C   0  0  2  0  0  0  0  0  0  0  0  0
    3.4254   -2.3701   -0.0734 C   0  0  0  0  0  0  0  0  0  0  0  0
    3.3153   -4.2098    2.2844 N   0  0  2  0  0  0  0  0  0  0  0  0
    2.0352   -4.4025    2.6879 O   0  0  0  0  0  0  0  0  0  0  0  0
    3.8500   -3.1338    3.1914 C   0  0  0  0  0  0  0  0  0  0  0  0
    5.3204   -3.0309    2.9361 C   0  0  0  0  0  0  0  0  0  0  0  0
    5.4651   -2.8910    1.4154 C   0  0  1  0  0  0  0  0  0  0  0  0
    5.4619   -1.2649    1.4599 C   0  0  0  0  0  0  0  0  0  0  0  0
    4.1986   -5.6382    2.5107 C   0  0  0  0  0  0  0  0  0  0  0  0
    3.9887   -6.0098    4.0135 C   0  0  0  0  0  0  0  0  0  0  0  0
    3.3054   -6.7127    1.7843 C   0  0  0  0  0  0  0  0  0  0  0  0
    5.9089   -5.8298    2.1123 C   0  0  0  0  0  0  0  0  0  0  0  0
    6.0141   -7.2239    1.4157 C   0  0  0  0  0  0  0  0  0  0  0  0
    6.7747   -6.1542    3.3925 C   0  0  0  0  0  0  0  0  0  0  0  0
    8.7872   -4.6987    2.1314 H   0  0  0  0  0  0  0  0  0  0  0  0
    8.9279   -4.5931    0.3898 H   0  0  0  0  0  0  0  0  0  0  0  0
    8.6990   -6.1495    1.1326 H   0  0  0  0  0  0  0  0  0  0  0  0
    6.7067   -5.3212    0.0774 H   0  0  0  0  0  0  0  0  0  0  0  0
    7.5395   -2.7707    1.2628 H   0  0  0  0  0  0  0  0  0  0  0  0
    6.8236   -1.6204   -0.6810 H   0  0  0  0  0  0  0  0  0  0  0  0
    6.9684   -3.1319   -1.4154 H   0  0  0  0  0  0  0  0  0  0  0  0
    4.6379   -2.0470   -2.0385 H   0  0  0  0  0  0  0  0  0  0  0  0
    3.6777   -4.2401   -1.6214 H   0  0  0  0  0  0  0  0  0  0  0  0
    5.3935   -4.5248   -1.5670 H   0  0  0  0  0  0  0  0  0  0  0  0
    4.6467   -5.0009    0.3800 H   0  0  0  0  0  0  0  0  0  0  0  0
    2.5154   -4.4494    0.2445 H   0  0  0  0  0  0  0  0  0  0  0  0
    3.2718   -1.4508    0.4852 H   0  0  0  0  0  0  0  0  0  0  0  0
    2.5959   -2.3066   -0.7760 H   0  0  0  0  0  0  0  0  0  0  0  0
    3.2878   -2.2256    2.9784 H   0  0  0  0  0  0  0  0  0  0  0  0
    3.6440   -3.4087    4.2274 H   0  0  0  0  0  0  0  0  0  0  0  0
    5.7375   -2.2098    3.5236 H   0  0  0  0  0  0  0  0  0  0  0  0
    5.8243   -3.8444    3.3897 H   0  0  0  0  0  0  0  0  0  0  0  0
    4.6602   -0.8428    2.0637 H   0  0  0  0  0  0  0  0  0  0  0  0
    5.3728   -0.7021    0.5337 H   0  0  0  0  0  0  0  0  0  0  0  0
    6.3833   -0.8869    1.9061 H   0  0  0  0  0  0  0  0  0  0  0  0
    4.2282   -7.0549    4.2053 H   0  0  0  0  0  0  0  0  0  0  0  0
    2.9528   -5.9043    4.3304 H   0  0  0  0  0  0  0  0  0  0  0  0
    4.5856   -5.4063    4.6939 H   0  0  0  0  0  0  0  0  0  0  0  0
    3.5626   -7.7353    2.0543 H   0  0  0  0  0  0  0  0  0  0  0  0
    3.3248   -6.6446    0.6970 H   0  0  0  0  0  0  0  0  0  0  0  0
    2.2552   -6.6477    2.0648 H   0  0  0  0  0  0  0  0  0  0  0  0
    5.6578   -8.0412    2.0427 H   0  0  0  0  0  0  0  0  0  0  0  0
    7.0374   -7.5022    1.1605 H   0  0  0  0  0  0  0  0  0  0  0  0
    5.4617   -7.2523    0.4794 H   0  0  0  0  0  0  0  0  0  0  0  0
    6.3480   -6.9411    4.0100 H   0  0  0  0  0  0  0  0  0  0  0  0
    6.9896   -5.3229    4.0570 H   0  0  0  0  0  0  0  0  0  0  0  0
    7.7530   -6.5659    3.1438 H   0  0  0  0  0  0  0  0  0  0  0  0
  1  2  1  0
  1 22  1  0
  1 23  1  0
  1 24  1  0
  2 19  1  0
  2  3  1  0
  2 25  1  6
  3 14  1  0
  3  4  1  0
  3 26  1  1
  4  5  1  0
  4 27  1  0
  4 28  1  0
  5  9  1  0
  5  6  1  0
  5 29  1  6
  6  7  1  0
  6 30  1  0
  6 31  1  0
  7 14  1  0
  7  8  1  0
  7 32  1  1
  8  9  1  0
  8 10  1  0
  8 33  1  6
  9 34  1  0
  9 35  1  0
 10 11  1  1
 10 12  1  0
 10 16  1  0
 12 13  1  0
 12 36  1  0
 12 37  1  0
 13 14  1  0
 13 38  1  0
 13 39  1  0
 14 15  1  6
 15 40  1  0
 15 41  1  0
 15 42  1  0
 16 17  1  0
 16 18  1  0
 16 19  1  0
 17 43  1  0
 17 44  1  0
 17 45  1  0
 18 46  1  0
 18 47  1  0
 18 48  1  0
 19 20  1  0
 19 21  1  0
 20 49  1  0
 20 50  1  0
 20 51  1  0
 21 52  1  0
 21 53  1  0
 21 54  1  0
M  CHG  2  10   1  11  -1
M  END
>  <i_m_ct_stereo_status>  (327) 
1

>  <s_m_source_file>  (327) 
/var/tmp/pbs.5076255.sched01/tmpycp4azd_/132pnz8hy5b.sdf

>  <i_m_source_file_index>  (327) 
28

>  <i_lp_mmshare_version>  (327) 
48012

>  <i_f3d_flags>  (327) 
0

>  <s_epik_input>  (327) 
W0NIM11DMShbQ0gzXSlDKFtDSDNdKShbQ0gzXSlbQ0BIXShbQ0gzXSlbQ0BASF0oW0NIMl1bQ0BASF0oW0NIMl0yKVtDSDJdMylbQ0BdKFtDSDNdKShbQ0gyXVtDSDJdNClbQ0BIXTJbQ0BIXTNbTkBAK10xNFtPLV0=

>  <s_epik_cmdline>  (327) 
J2VwaWtfcHl0aG9uJywgJy1waHQnLCAnMi4wJywgJy1waCcsICc3LjAnLCAnLXRuJywgJzgnLCAnLW1hJywgJzIwMCcsICctaW1hZScsICc8aW5maWxlLm1hZT4nLCAnLW9tYWUnLCAnPG91dGZpbGUubWFlPic=

>  <r_epik_Ionization_Penalty>  (327) 
0.151792

>  <r_epik_Ionization_Penalty_Charging>  (327) 
0.151792

>  <r_epik_Ionization_Penalty_Neutral>  (327) 
0

>  <r_epik_State_Penalty>  (327) 
0.141082

>  <r_epik_Charging_Adjusted_Penalty>  (327) 
0.292874

>  <i_epik_Tot_Q>  (327) 
0

>  <i_epik_Tot_abs_Q>  (327) 
2

>  <s_lp_Force_Field>  (327) 
OPLS3e

>  <r_lp_Energy>  (327) 
347.355

>  <b_lp_Chiralities_Consistent>  (327) 
1

>  <s_lp_Variant>  (327) 
105:0-1

>  <s_i_glide_gridfile>  (327) 
pfpi4k_grid

>  <i_i_glide_lignum>  (327) 
28

>  <i_i_glide_rotatable_bonds>  (327) 
0

>  <r_i_docking_score>  (327) 
-3.03154

>  <r_i_glide_ligand_efficiency>  (327) 
-0.144359

>  <r_i_glide_ligand_efficiency_sa>  (327) 
-0.398276

>  <r_i_glide_ligand_efficiency_ln>  (327) 
-0.749543

>  <r_i_glide_gscore>  (327) 
-3.03154

>  <r_i_glide_lipo>  (327) 
-0.679407

>  <r_i_glide_hbond>  (327) 
0

>  <r_i_glide_metal>  (327) 
-0

>  <r_i_glide_rewards>  (327) 
-1.42179

>  <r_i_glide_evdw>  (327) 
-20.8742

>  <r_i_glide_ecoul>  (327) 
0.755734

>  <r_i_glide_erotb>  (327) 
0

>  <r_i_glide_esite>  (327) 
0

>  <r_i_glide_emodel>  (327) 
-24.6609

>  <r_i_glide_energy>  (327) 
-20.1185

>  <r_i_glide_einternal>  (327) 
0

>  <r_i_glide_intrahb_reward>  (327) 
-0

>  <i_i_glide_confnum>  (327) 
2

>  <i_i_glide_posenum>  (327) 
1

>  <r_i_glide_eff_state_penalty>  (327) 
0

>  <ligand_id>  (327) 
105

>  <original_smiles>  (327) 
CC1C2CC3CC4C(C3)[N+]([O-])(CCC24C)C(C)(C)C1(C)C

>  <smiles>  (327) 
[H]C([H])([H])C1([H])C2([H])C([H])([H])C3([H])C([H])([H])C4([H])C2(C([H])([H])[H])C([H])([H])C([H])([H])[N+]([O-])(C4([H])C3([H])[H])C(C([H])([H])[H])(C([H])([H])[H])C1(C([H])([H])[H])C([H])([H])[H]

$$$$
105:0:2
     RDKit          3D

 54 57  0  0  1  0  0  0  0  0999 V2000
    8.0316   -5.4810    0.8365 C   0  0  0  0  0  0  0  0  0  0  0  0
    6.5940   -4.9210    0.6466 C   0  0  2  0  0  0  0  0  0  0  0  0
    6.8122   -3.3651    0.2565 C   0  0  1  0  0  0  0  0  0  0  0  0
    6.6622   -2.7519   -1.2452 C   0  0  0  0  0  0  0  0  0  0  0  0
    5.1190   -2.3056   -1.7051 C   0  0  1  0  0  0  0  0  0  0  0  0
    4.6092   -3.6380   -1.6478 C   0  0  0  0  0  0  0  0  0  0  0  0
    4.5345   -3.5038   -0.1139 C   0  0  2  0  0  0  0  0  0  0  0  0
    3.2833   -2.9717    0.1748 C   0  0  2  0  0  0  0  0  0  0  0  0
    3.8386   -1.7624   -0.7536 C   0  0  0  0  0  0  0  0  0  0  0  0
    3.3138   -3.3251    1.7482 N   0  0  2  0  0  0  0  0  0  0  0  0
    2.0378   -3.1765    2.1655 O   0  0  0  0  0  0  0  0  0  0  0  0
    4.0882   -2.3364    2.5719 C   0  0  0  0  0  0  0  0  0  0  0  0
    5.5355   -2.6098    2.3337 C   0  0  0  0  0  0  0  0  0  0  0  0
    5.7029   -2.6321    0.8090 C   0  0  1  0  0  0  0  0  0  0  0  0
    6.0833   -1.0568    0.7248 C   0  0  0  0  0  0  0  0  0  0  0  0
    3.8282   -4.8998    2.0978 C   0  0  0  0  0  0  0  0  0  0  0  0
    3.5336   -5.0895    3.6211 C   0  0  0  0  0  0  0  0  0  0  0  0
    2.7035   -5.7870    1.4403 C   0  0  0  0  0  0  0  0  0  0  0  0
    5.4391   -5.5243    1.7443 C   0  0  0  0  0  0  0  0  0  0  0  0
    5.2120   -6.9556    1.1520 C   0  0  0  0  0  0  0  0  0  0  0  0
    6.2034   -5.9339    3.0648 C   0  0  0  0  0  0  0  0  0  0  0  0
    8.5009   -5.1043    1.7472 H   0  0  0  0  0  0  0  0  0  0  0  0
    8.6688   -5.1800    0.0043 H   0  0  0  0  0  0  0  0  0  0  0  0
    8.0751   -6.5689    0.8599 H   0  0  0  0  0  0  0  0  0  0  0  0
    6.3316   -5.3764   -0.3086 H   0  0  0  0  0  0  0  0  0  0  0  0
    7.7501   -3.0143    0.6927 H   0  0  0  0  0  0  0  0  0  0  0  0
    7.3289   -1.8982   -1.3533 H   0  0  0  0  0  0  0  0  0  0  0  0
    7.1060   -3.4500   -1.9607 H   0  0  0  0  0  0  0  0  0  0  0  0
    5.0991   -1.8994   -2.7158 H   0  0  0  0  0  0  0  0  0  0  0  0
    3.6445   -3.7631   -2.1469 H   0  0  0  0  0  0  0  0  0  0  0  0
    5.2463   -4.4368   -2.0327 H   0  0  0  0  0  0  0  0  0  0  0  0
    4.4062   -4.5615   -0.0700 H   0  0  0  0  0  0  0  0  0  0  0  0
    2.4630   -3.5321   -0.2803 H   0  0  0  0  0  0  0  0  0  0  0  0
    3.9173   -0.7920   -0.2706 H   0  0  0  0  0  0  0  0  0  0  0  0
    3.0267   -1.5530   -1.4549 H   0  0  0  0  0  0  0  0  0  0  0  0
    3.7540   -1.3431    2.2757 H   0  0  0  0  0  0  0  0  0  0  0  0
    3.8242   -2.4666    3.6219 H   0  0  0  0  0  0  0  0  0  0  0  0
    6.1323   -1.8623    2.8621 H   0  0  0  0  0  0  0  0  0  0  0  0
    5.8427   -3.4777    2.8584 H   0  0  0  0  0  0  0  0  0  0  0  0
    5.4068   -0.4082    1.2799 H   0  0  0  0  0  0  0  0  0  0  0  0
    6.1288   -0.5648   -0.2428 H   0  0  0  0  0  0  0  0  0  0  0  0
    7.0673   -0.8740    1.1585 H   0  0  0  0  0  0  0  0  0  0  0  0
    3.5163   -6.1423    3.9006 H   0  0  0  0  0  0  0  0  0  0  0  0
    2.5512   -4.7186    3.9112 H   0  0  0  0  0  0  0  0  0  0  0  0
    4.2540   -4.5887    4.2643 H   0  0  0  0  0  0  0  0  0  0  0  0
    2.7082   -6.8149    1.7953 H   0  0  0  0  0  0  0  0  0  0  0  0
    2.7385   -5.8157    0.3513 H   0  0  0  0  0  0  0  0  0  0  0  0
    1.7015   -5.4485    1.6963 H   0  0  0  0  0  0  0  0  0  0  0  0
    4.6637   -7.6101    1.8294 H   0  0  0  0  0  0  0  0  0  0  0  0
    6.1424   -7.4895    0.9600 H   0  0  0  0  0  0  0  0  0  0  0  0
    4.6928   -6.9373    0.1927 H   0  0  0  0  0  0  0  0  0  0  0  0
    5.6028   -6.5408    3.7383 H   0  0  0  0  0  0  0  0  0  0  0  0
    6.6134   -5.1233    3.6607 H   0  0  0  0  0  0  0  0  0  0  0  0
    7.0547   -6.5868    2.8729 H   0  0  0  0  0  0  0  0  0  0  0  0
  1  2  1  0
  1 22  1  0
  1 23  1  0
  1 24  1  0
  2 19  1  0
  2  3  1  0
  2 25  1  6
  3 14  1  0
  3  4  1  0
  3 26  1  1
  4  5  1  0
  4 27  1  0
  4 28  1  0
  5  9  1  0
  5  6  1  0
  5 29  1  6
  6  7  1  0
  6 30  1  0
  6 31  1  0
  7 14  1  0
  7  8  1  0
  7 32  1  1
  8  9  1  0
  8 10  1  0
  8 33  1  6
  9 34  1  0
  9 35  1  0
 10 11  1  1
 10 12  1  0
 10 16  1  0
 12 13  1  0
 12 36  1  0
 12 37  1  0
 13 14  1  0
 13 38  1  0
 13 39  1  0
 14 15  1  6
 15 40  1  0
 15 41  1  0
 15 42  1  0
 16 17  1  0
 16 18  1  0
 16 19  1  0
 17 43  1  0
 17 44  1  0
 17 45  1  0
 18 46  1  0
 18 47  1  0
 18 48  1  0
 19 20  1  0
 19 21  1  0
 20 49  1  0
 20 50  1  0
 20 51  1  0
 21 52  1  0
 21 53  1  0
 21 54  1  0
M  CHG  2  10   1  11  -1
M  END
>  <i_m_ct_stereo_status>  (328) 
1

>  <s_m_source_file>  (328) 
/var/tmp/pbs.5076255.sched01/tmpycp4azd_/132pnz8hy5b.sdf

>  <i_m_source_file_index>  (328) 
28

>  <i_lp_mmshare_version>  (328) 
48012

>  <i_f3d_flags>  (328) 
0

>  <s_epik_input>  (328) 
W0NIM11DMShbQ0gzXSlDKFtDSDNdKShbQ0gzXSlbQ0BIXShbQ0gzXSlbQ0BASF0oW0NIMl1bQ0BASF0oW0NIMl0yKVtDSDJdMylbQ0BdKFtDSDNdKShbQ0gyXVtDSDJdNClbQ0BIXTJbQ0BIXTNbTkBAK10xNFtPLV0=

>  <s_epik_cmdline>  (328) 
J2VwaWtfcHl0aG9uJywgJy1waHQnLCAnMi4wJywgJy1waCcsICc3LjAnLCAnLXRuJywgJzgnLCAnLW1hJywgJzIwMCcsICctaW1hZScsICc8aW5maWxlLm1hZT4nLCAnLW9tYWUnLCAnPG91dGZpbGUubWFlPic=

>  <r_epik_Ionization_Penalty>  (328) 
0.151792

>  <r_epik_Ionization_Penalty_Charging>  (328) 
0.151792

>  <r_epik_Ionization_Penalty_Neutral>  (328) 
0

>  <r_epik_State_Penalty>  (328) 
0.141082

>  <r_epik_Charging_Adjusted_Penalty>  (328) 
0.292874

>  <i_epik_Tot_Q>  (328) 
0

>  <i_epik_Tot_abs_Q>  (328) 
2

>  <s_lp_Force_Field>  (328) 
OPLS3e

>  <r_lp_Energy>  (328) 
347.355

>  <b_lp_Chiralities_Consistent>  (328) 
1

>  <s_lp_Variant>  (328) 
105:0-1

>  <s_i_glide_gridfile>  (328) 
pfpi4k_grid

>  <i_i_glide_lignum>  (328) 
28

>  <i_i_glide_rotatable_bonds>  (328) 
0

>  <r_i_docking_score>  (328) 
-2.90219

>  <r_i_glide_ligand_efficiency>  (328) 
-0.1382

>  <r_i_glide_ligand_efficiency_sa>  (328) 
-0.381282

>  <r_i_glide_ligand_efficiency_ln>  (328) 
-0.717561

>  <r_i_glide_gscore>  (328) 
-2.90219

>  <r_i_glide_lipo>  (328) 
-0.736588

>  <r_i_glide_hbond>  (328) 
0

>  <r_i_glide_metal>  (328) 
-0

>  <r_i_glide_rewards>  (328) 
-1.42179

>  <r_i_glide_evdw>  (328) 
-23.6529

>  <r_i_glide_ecoul>  (328) 
2.9255

>  <r_i_glide_erotb>  (328) 
0

>  <r_i_glide_esite>  (328) 
0

>  <r_i_glide_emodel>  (328) 
-25.0786

>  <r_i_glide_energy>  (328) 
-20.7274

>  <r_i_glide_einternal>  (328) 
0

>  <r_i_glide_intrahb_reward>  (328) 
-0

>  <i_i_glide_confnum>  (328) 
2

>  <i_i_glide_posenum>  (328) 
18

>  <r_i_glide_eff_state_penalty>  (328) 
0

>  <ligand_id>  (328) 
105

>  <original_smiles>  (328) 
CC1C2CC3CC4C(C3)[N+]([O-])(CCC24C)C(C)(C)C1(C)C

>  <smiles>  (328) 
[H]C([H])([H])C1([H])C2([H])C([H])([H])C3([H])C([H])([H])C4([H])C2(C([H])([H])[H])C([H])([H])C([H])([H])[N+]([O-])(C4([H])C3([H])[H])C(C([H])([H])[H])(C([H])([H])[H])C1(C([H])([H])[H])C([H])([H])[H]

$$$$
105:1:0
     RDKit          3D

 55 58  0  0  1  0  0  0  0  0999 V2000
    4.5563   -1.6271    4.2559 C   0  0  0  0  0  0  0  0  0  0  0  0
    4.2392   -2.4760    2.9984 C   0  0  2  0  0  0  0  0  0  0  0  0
    4.6591   -3.9830    3.4147 C   0  0  1  0  0  0  0  0  0  0  0  0
    3.6102   -5.1668    3.8003 C   0  0  0  0  0  0  0  0  0  0  0  0
    2.9852   -6.0304    2.5127 C   0  0  1  0  0  0  0  0  0  0  0  0
    2.2952   -4.9198    1.9523 C   0  0  0  0  0  0  0  0  0  0  0  0
    3.6428   -4.4389    1.3922 C   0  0  2  0  0  0  0  0  0  0  0  0
    3.8062   -4.9900    0.1275 C   0  0  2  0  0  0  0  0  0  0  0  0
    3.6863   -6.3556    1.0154 C   0  0  0  0  0  0  0  0  0  0  0  0
    4.9418   -4.0471   -0.3525 N   0  0  2  0  0  0  0  0  0  0  0  0
    5.0112   -4.2740   -1.7905 O   0  0  0  0  0  0  0  0  0  0  0  0
    6.2782   -4.4377    0.1167 C   0  0  0  0  0  0  0  0  0  0  0  0
    6.4049   -4.0530    1.5546 C   0  0  0  0  0  0  0  0  0  0  0  0
    5.1464   -4.6283    2.2251 C   0  0  1  0  0  0  0  0  0  0  0  0
    5.8792   -6.0073    2.6755 C   0  0  0  0  0  0  0  0  0  0  0  0
    4.6991   -2.4814   -0.0991 C   0  0  0  0  0  0  0  0  0  0  0  0
    5.8018   -1.6988   -0.8986 C   0  0  0  0  0  0  0  0  0  0  0  0
    3.4306   -2.1249   -0.9659 C   0  0  0  0  0  0  0  0  0  0  0  0
    4.5746   -1.7211    1.5022 C   0  0  0  0  0  0  0  0  0  0  0  0
    3.3728   -0.7164    1.4324 C   0  0  0  0  0  0  0  0  0  0  0  0
    5.7287   -0.6705    1.7490 C   0  0  0  0  0  0  0  0  0  0  0  0
    5.6297   -1.5127    4.4070 H   0  0  0  0  0  0  0  0  0  0  0  0
    4.1613   -2.1129    5.1498 H   0  0  0  0  0  0  0  0  0  0  0  0
    4.1078   -0.6361    4.2354 H   0  0  0  0  0  0  0  0  0  0  0  0
    3.1519   -2.4981    3.0661 H   0  0  0  0  0  0  0  0  0  0  0  0
    5.4472   -3.9484    4.1695 H   0  0  0  0  0  0  0  0  0  0  0  0
    4.0756   -5.8630    4.5027 H   0  0  0  0  0  0  0  0  0  0  0  0
    2.8141   -4.7416    4.4195 H   0  0  0  0  0  0  0  0  0  0  0  0
    2.2962   -6.8097    2.8485 H   0  0  0  0  0  0  0  0  0  0  0  0
    1.5565   -5.2021    1.2035 H   0  0  0  0  0  0  0  0  0  0  0  0
    1.7906   -4.2419    2.6445 H   0  0  0  0  0  0  0  0  0  0  0  0
    3.1604   -3.4998    1.2234 H   0  0  0  0  0  0  0  0  0  0  0  0
    2.9163   -4.8593   -0.4988 H   0  0  0  0  0  0  0  0  0  0  0  0
    4.5324   -7.0379    0.9752 H   0  0  0  0  0  0  0  0  0  0  0  0
    2.9422   -6.9628    0.4978 H   0  0  0  0  0  0  0  0  0  0  0  0
    6.4308   -5.5076   -0.0334 H   0  0  0  0  0  0  0  0  0  0  0  0
    7.0732   -3.9510   -0.4567 H   0  0  0  0  0  0  0  0  0  0  0  0
    7.3549   -4.4235    1.9461 H   0  0  0  0  0  0  0  0  0  0  0  0
    6.5601   -3.0123    1.6736 H   0  0  0  0  0  0  0  0  0  0  0  0
    6.4427   -6.4909    1.8766 H   0  0  0  0  0  0  0  0  0  0  0  0
    5.2811   -6.8277    3.0671 H   0  0  0  0  0  0  0  0  0  0  0  0
    6.6124   -5.8231    3.4636 H   0  0  0  0  0  0  0  0  0  0  0  0
    5.5348   -0.6493   -1.0270 H   0  0  0  0  0  0  0  0  0  0  0  0
    5.9406   -2.0579   -1.9180 H   0  0  0  0  0  0  0  0  0  0  0  0
    6.7800   -1.7401   -0.4205 H   0  0  0  0  0  0  0  0  0  0  0  0
    3.2789   -1.0553   -1.0990 H   0  0  0  0  0  0  0  0  0  0  0  0
    2.5102   -2.5382   -0.5616 H   0  0  0  0  0  0  0  0  0  0  0  0
    3.4803   -2.4746   -1.9953 H   0  0  0  0  0  0  0  0  0  0  0  0
    3.5017    0.0488    0.6657 H   0  0  0  0  0  0  0  0  0  0  0  0
    3.2445   -0.1443    2.3509 H   0  0  0  0  0  0  0  0  0  0  0  0
    2.4120   -1.2094    1.2707 H   0  0  0  0  0  0  0  0  0  0  0  0
    5.8327    0.0505    0.9402 H   0  0  0  0  0  0  0  0  0  0  0  0
    6.7242   -1.0625    1.9428 H   0  0  0  0  0  0  0  0  0  0  0  0
    5.5282   -0.0237    2.6020 H   0  0  0  0  0  0  0  0  0  0  0  0
    4.3309   -4.9202   -1.9268 H   0  0  0  0  0  0  0  0  0  0  0  0
  1  2  1  0
  1 22  1  0
  1 23  1  0
  1 24  1  0
  2 19  1  0
  2  3  1  0
  2 25  1  6
  3 14  1  0
  3  4  1  0
  3 26  1  1
  4  5  1  0
  4 27  1  0
  4 28  1  0
  5  9  1  0
  5  6  1  0
  5 29  1  1
  6  7  1  0
  6 30  1  0
  6 31  1  0
  7 14  1  0
  7  8  1  0
  7 32  1  6
  8  9  1  0
  8 10  1  0
  8 33  1  6
  9 34  1  0
  9 35  1  0
 10 11  1  6
 10 12  1  0
 10 16  1  0
 11 55  1  0
 12 13  1  0
 12 36  1  0
 12 37  1  0
 13 14  1  0
 13 38  1  0
 13 39  1  0
 14 15  1  1
 15 40  1  0
 15 41  1  0
 15 42  1  0
 16 17  1  0
 16 18  1  0
 16 19  1  0
 17 43  1  0
 17 44  1  0
 17 45  1  0
 18 46  1  0
 18 47  1  0
 18 48  1  0
 19 20  1  0
 19 21  1  0
 20 49  1  0
 20 50  1  0
 20 51  1  0
 21 52  1  0
 21 53  1  0
 21 54  1  0
M  CHG  1  10   1
M  END
>  <i_m_ct_stereo_status>  (329) 
1

>  <s_m_source_file>  (329) 
/var/tmp/pbs.5076255.sched01/tmpycp4azd_/132pnz8hy5b.sdf

>  <i_m_source_file_index>  (329) 
29

>  <i_lp_mmshare_version>  (329) 
48012

>  <i_f3d_flags>  (329) 
0

>  <s_epik_input>  (329) 
W0NIM11DMShbQ0gzXSlDKFtDSDNdKShbQ0gzXSlbQ0BIXShbQ0gzXSlbQ0BASF0oW0NIMl1bQ0BASF0oW0NIMl0yKVtDSDJdMylbQ0BdKFtDSDNdKShbQ0gyXVtDSDJdNClbQ0BIXTJbQ0BIXTNbTkBAK10xNFtPLV0=

>  <s_epik_cmdline>  (329) 
J2VwaWtfcHl0aG9uJywgJy1waHQnLCAnMi4wJywgJy1waCcsICc3LjAnLCAnLXRuJywgJzgnLCAnLW1hJywgJzIwMCcsICctaW1hZScsICc8aW5maWxlLm1hZT4nLCAnLW9tYWUnLCAnPG91dGZpbGUubWFlPic=

>  <r_epik_Ionization_Penalty>  (329) 
0.881134

>  <r_epik_Ionization_Penalty_Charging>  (329) 
0

>  <r_epik_Ionization_Penalty_Neutral>  (329) 
0.881134

>  <r_epik_State_Penalty>  (329) 
0.91935

>  <r_epik_Charging_Adjusted_Penalty>  (329) 
0.91935

>  <i_epik_Tot_Q>  (329) 
1

>  <i_epik_Tot_abs_Q>  (329) 
1

>  <s_epik_Chemistry_Notes>  (329) 
This compound has a N-S or N-O group and may undergo hydrolysis at high or low pH.

>  <s_lp_Force_Field>  (329) 
OPLS3e

>  <r_lp_Energy>  (329) 
341.635

>  <b_lp_Chiralities_Consistent>  (329) 
1

>  <s_lp_Variant>  (329) 
105:0-2

>  <s_i_glide_gridfile>  (329) 
pfpi4k_grid

>  <i_i_glide_lignum>  (329) 
29

>  <i_i_glide_rotatable_bonds>  (329) 
1

>  <r_i_docking_score>  (329) 
-3.9426

>  <r_i_glide_ligand_efficiency>  (329) 
-0.187743

>  <r_i_glide_ligand_efficiency_sa>  (329) 
-0.517969

>  <r_i_glide_ligand_efficiency_ln>  (329) 
-0.974801

>  <r_i_glide_gscore>  (329) 
-3.9426

>  <r_i_glide_lipo>  (329) 
-0.411453

>  <r_i_glide_hbond>  (329) 
-0.32

>  <r_i_glide_metal>  (329) 
-0

>  <r_i_glide_rewards>  (329) 
-1.41491

>  <r_i_glide_evdw>  (329) 
-19.3827

>  <r_i_glide_ecoul>  (329) 
-5.51402

>  <r_i_glide_erotb>  (329) 
0

>  <r_i_glide_esite>  (329) 
0

>  <r_i_glide_emodel>  (329) 
-30.0016

>  <r_i_glide_energy>  (329) 
-24.8967

>  <r_i_glide_einternal>  (329) 
1.47988

>  <r_i_glide_intrahb_reward>  (329) 
-0

>  <i_i_glide_confnum>  (329) 
1

>  <i_i_glide_posenum>  (329) 
1

>  <r_i_glide_eff_state_penalty>  (329) 
0

>  <ligand_id>  (329) 
105

>  <original_smiles>  (329) 
CC1C2CC3CC4C(C3)[N+]([O-])(CCC24C)C(C)(C)C1(C)C

>  <smiles>  (329) 
[H]O[N+]12C([H])([H])C([H])([H])C3(C([H])([H])[H])C([H])(C([H])([H])C4([H])C([H])([H])C3([H])C1([H])C4([H])[H])C([H])(C([H])([H])[H])C(C([H])([H])[H])(C([H])([H])[H])C2(C([H])([H])[H])C([H])([H])[H]

$$$$
105:1:1
     RDKit          3D

 55 58  0  0  1  0  0  0  0  0999 V2000
    4.4249   -2.0070    4.3005 C   0  0  0  0  0  0  0  0  0  0  0  0
    4.2933   -2.7906    2.9668 C   0  0  2  0  0  0  0  0  0  0  0  0
    5.1765   -4.1244    3.1937 C   0  0  1  0  0  0  0  0  0  0  0  0
    4.5770   -5.6094    3.4836 C   0  0  0  0  0  0  0  0  0  0  0  0
    4.1569   -6.4923    2.1311 C   0  0  1  0  0  0  0  0  0  0  0  0
    3.1208   -5.6041    1.7316 C   0  0  0  0  0  0  0  0  0  0  0  0
    4.2175   -4.6722    1.1910 C   0  0  2  0  0  0  0  0  0  0  0  0
    4.4475   -5.0197   -0.1262 C   0  0  2  0  0  0  0  0  0  0  0  0
    4.8191   -6.4331    0.5856 C   0  0  0  0  0  0  0  0  0  0  0  0
    5.2132   -3.7451   -0.5623 N   0  0  2  0  0  0  0  0  0  0  0  0
    5.2479   -3.8272   -2.0183 O   0  0  0  0  0  0  0  0  0  0  0  0
    6.6280   -3.7169   -0.1812 C   0  0  0  0  0  0  0  0  0  0  0  0
    6.7225   -3.4573    1.2792 C   0  0  0  0  0  0  0  0  0  0  0  0
    5.7612   -4.4632    1.9277 C   0  0  1  0  0  0  0  0  0  0  0  0
    6.9118   -5.5856    2.1858 C   0  0  0  0  0  0  0  0  0  0  0  0
    4.5230   -2.3642   -0.1296 C   0  0  0  0  0  0  0  0  0  0  0  0
    5.2600   -1.2048   -0.8688 C   0  0  0  0  0  0  0  0  0  0  0  0
    3.1640   -2.3609   -0.8977 C   0  0  0  0  0  0  0  0  0  0  0  0
    4.2810   -1.8371    1.5558 C   0  0  0  0  0  0  0  0  0  0  0  0
    2.8268   -1.2535    1.6430 C   0  0  0  0  0  0  0  0  0  0  0  0
    5.0677   -0.5034    1.8733 C   0  0  0  0  0  0  0  0  0  0  0  0
    5.4185   -1.5770    4.4238 H   0  0  0  0  0  0  0  0  0  0  0  0
    4.2636   -2.6753    5.1477 H   0  0  0  0  0  0  0  0  0  0  0  0
    3.6944   -1.2098    4.4105 H   0  0  0  0  0  0  0  0  0  0  0  0
    3.2706   -3.1524    3.0755 H   0  0  0  0  0  0  0  0  0  0  0  0
    5.9418   -3.9257    3.9366 H   0  0  0  0  0  0  0  0  0  0  0  0
    5.2870   -6.1836    4.0804 H   0  0  0  0  0  0  0  0  0  0  0  0
    3.7379   -5.5148    4.1724 H   0  0  0  0  0  0  0  0  0  0  0  0
    3.7695   -7.4784    2.4014 H   0  0  0  0  0  0  0  0  0  0  0  0
    2.4539   -6.0255    0.9825 H   0  0  0  0  0  0  0  0  0  0  0  0
    2.4885   -5.1899    2.5168 H   0  0  0  0  0  0  0  0  0  0  0  0
    3.4591   -3.9264    1.1402 H   0  0  0  0  0  0  0  0  0  0  0  0
    3.5215   -5.0977   -0.6724 H   0  0  0  0  0  0  0  0  0  0  0  0
    5.8267   -6.8123    0.4536 H   0  0  0  0  0  0  0  0  0  0  0  0
    4.2677   -7.1839    0.0251 H   0  0  0  0  0  0  0  0  0  0  0  0
    7.1109   -4.6594   -0.4040 H   0  0  0  0  0  0  0  0  0  0  0  0
    7.1924   -2.9724   -0.7263 H   0  0  0  0  0  0  0  0  0  0  0  0
    7.7658   -3.5630    1.5770 H   0  0  0  0  0  0  0  0  0  0  0  0
    6.5738   -2.4326    1.5238 H   0  0  0  0  0  0  0  0  0  0  0  0
    7.5390   -5.7877    1.3189 H   0  0  0  0  0  0  0  0  0  0  0  0
    6.6237   -6.5846    2.5050 H   0  0  0  0  0  0  0  0  0  0  0  0
    7.6105   -5.2668    2.9556 H   0  0  0  0  0  0  0  0  0  0  0  0
    4.6710   -0.2820   -0.8683 H   0  0  0  0  0  0  0  0  0  0  0  0
    5.4325   -1.3964   -1.9286 H   0  0  0  0  0  0  0  0  0  0  0  0
    6.2265   -0.9643   -0.4323 H   0  0  0  0  0  0  0  0  0  0  0  0
    2.7277   -1.3686   -0.9116 H   0  0  0  0  0  0  0  0  0  0  0  0
    2.4125   -3.0436   -0.5060 H   0  0  0  0  0  0  0  0  0  0  0  0
    3.2361   -2.5707   -1.9649 H   0  0  0  0  0  0  0  0  0  0  0  0
    2.6531   -0.4175    0.9617 H   0  0  0  0  0  0  0  0  0  0  0  0
    2.5935   -0.8364    2.6260 H   0  0  0  0  0  0  0  0  0  0  0  0
    2.0526   -2.0011    1.4667 H   0  0  0  0  0  0  0  0  0  0  0  0
    4.8888    0.2883    1.1471 H   0  0  0  0  0  0  0  0  0  0  0  0
    6.1468   -0.5745    1.9916 H   0  0  0  0  0  0  0  0  0  0  0  0
    4.7342   -0.0301    2.7994 H   0  0  0  0  0  0  0  0  0  0  0  0
    4.6421   -4.5293   -2.1815 H   0  0  0  0  0  0  0  0  0  0  0  0
  1  2  1  0
  1 22  1  0
  1 23  1  0
  1 24  1  0
  2 19  1  0
  2  3  1  0
  2 25  1  1
  3 14  1  0
  3  4  1  0
  3 26  1  1
  4  5  1  0
  4 27  1  0
  4 28  1  0
  5  9  1  0
  5  6  1  0
  5 29  1  1
  6  7  1  0
  6 30  1  0
  6 31  1  0
  7 14  1  0
  7  8  1  0
  7 32  1  6
  8  9  1  0
  8 10  1  0
  8 33  1  6
  9 34  1  0
  9 35  1  0
 10 11  1  6
 10 12  1  0
 10 16  1  0
 11 55  1  0
 12 13  1  0
 12 36  1  0
 12 37  1  0
 13 14  1  0
 13 38  1  0
 13 39  1  0
 14 15  1  1
 15 40  1  0
 15 41  1  0
 15 42  1  0
 16 17  1  0
 16 18  1  0
 16 19  1  0
 17 43  1  0
 17 44  1  0
 17 45  1  0
 18 46  1  0
 18 47  1  0
 18 48  1  0
 19 20  1  0
 19 21  1  0
 20 49  1  0
 20 50  1  0
 20 51  1  0
 21 52  1  0
 21 53  1  0
 21 54  1  0
M  CHG  1  10   1
M  END
>  <i_m_ct_stereo_status>  (330) 
1

>  <s_m_source_file>  (330) 
/var/tmp/pbs.5076255.sched01/tmpycp4azd_/132pnz8hy5b.sdf

>  <i_m_source_file_index>  (330) 
29

>  <i_lp_mmshare_version>  (330) 
48012

>  <i_f3d_flags>  (330) 
0

>  <s_epik_input>  (330) 
W0NIM11DMShbQ0gzXSlDKFtDSDNdKShbQ0gzXSlbQ0BIXShbQ0gzXSlbQ0BASF0oW0NIMl1bQ0BASF0oW0NIMl0yKVtDSDJdMylbQ0BdKFtDSDNdKShbQ0gyXVtDSDJdNClbQ0BIXTJbQ0BIXTNbTkBAK10xNFtPLV0=

>  <s_epik_cmdline>  (330) 
J2VwaWtfcHl0aG9uJywgJy1waHQnLCAnMi4wJywgJy1waCcsICc3LjAnLCAnLXRuJywgJzgnLCAnLW1hJywgJzIwMCcsICctaW1hZScsICc8aW5maWxlLm1hZT4nLCAnLW9tYWUnLCAnPG91dGZpbGUubWFlPic=

>  <r_epik_Ionization_Penalty>  (330) 
0.881134

>  <r_epik_Ionization_Penalty_Charging>  (330) 
0

>  <r_epik_Ionization_Penalty_Neutral>  (330) 
0.881134

>  <r_epik_State_Penalty>  (330) 
0.91935

>  <r_epik_Charging_Adjusted_Penalty>  (330) 
0.91935

>  <i_epik_Tot_Q>  (330) 
1

>  <i_epik_Tot_abs_Q>  (330) 
1

>  <s_epik_Chemistry_Notes>  (330) 
This compound has a N-S or N-O group and may undergo hydrolysis at high or low pH.

>  <s_lp_Force_Field>  (330) 
OPLS3e

>  <r_lp_Energy>  (330) 
341.635

>  <b_lp_Chiralities_Consistent>  (330) 
1

>  <s_lp_Variant>  (330) 
105:0-2

>  <s_i_glide_gridfile>  (330) 
pfpi4k_grid

>  <i_i_glide_lignum>  (330) 
29

>  <i_i_glide_rotatable_bonds>  (330) 
1

>  <r_i_docking_score>  (330) 
-3.66541

>  <r_i_glide_ligand_efficiency>  (330) 
-0.174543

>  <r_i_glide_ligand_efficiency_sa>  (330) 
-0.481552

>  <r_i_glide_ligand_efficiency_ln>  (330) 
-0.906266

>  <r_i_glide_gscore>  (330) 
-3.66541

>  <r_i_glide_lipo>  (330) 
-0.638587

>  <r_i_glide_hbond>  (330) 
-0.0780408

>  <r_i_glide_metal>  (330) 
-0

>  <r_i_glide_rewards>  (330) 
-1.41491

>  <r_i_glide_evdw>  (330) 
-17.3322

>  <r_i_glide_ecoul>  (330) 
-4.44842

>  <r_i_glide_erotb>  (330) 
0

>  <r_i_glide_esite>  (330) 
0

>  <r_i_glide_emodel>  (330) 
-26.4498

>  <r_i_glide_energy>  (330) 
-21.7806

>  <r_i_glide_einternal>  (330) 
1.47994

>  <r_i_glide_intrahb_reward>  (330) 
-0

>  <i_i_glide_confnum>  (330) 
1

>  <i_i_glide_posenum>  (330) 
32

>  <r_i_glide_eff_state_penalty>  (330) 
0

>  <ligand_id>  (330) 
105

>  <original_smiles>  (330) 
CC1C2CC3CC4C(C3)[N+]([O-])(CCC24C)C(C)(C)C1(C)C

>  <smiles>  (330) 
[H]O[N+]12C([H])([H])C([H])([H])C3(C([H])([H])[H])C([H])(C([H])([H])C4([H])C([H])([H])C3([H])C1([H])C4([H])[H])C([H])(C([H])([H])[H])C(C([H])([H])[H])(C([H])([H])[H])C2(C([H])([H])[H])C([H])([H])[H]

$$$$
105:1:2
     RDKit          3D

 55 58  0  0  1  0  0  0  0  0999 V2000
    4.9992   -6.2555    1.1742 C   0  0  0  0  0  0  0  0  0  0  0  0
    4.4914   -4.8213    0.8791 C   0  0  2  0  0  0  0  0  0  0  0  0
    5.5062   -4.2549   -0.2432 C   0  0  1  0  0  0  0  0  0  0  0  0
    5.1577   -4.0901   -1.8226 C   0  0  0  0  0  0  0  0  0  0  0  0
    4.3754   -2.6930   -2.2669 C   0  0  1  0  0  0  0  0  0  0  0  0
    3.2024   -2.9781   -1.5244 C   0  0  0  0  0  0  0  0  0  0  0  0
    3.9696   -2.5556   -0.2662 C   0  0  2  0  0  0  0  0  0  0  0  0
    3.7969   -1.2051   -0.0785 C   0  0  2  0  0  0  0  0  0  0  0  0
    4.4871   -1.1733   -1.5530 C   0  0  0  0  0  0  0  0  0  0  0  0
    4.2503   -1.0923    1.3815 N   0  0  2  0  0  0  0  0  0  0  0  0
    3.8056    0.2116    1.8188 O   0  0  0  0  0  0  0  0  0  0  0  0
    5.6972   -1.0327    1.5358 C   0  0  0  0  0  0  0  0  0  0  0  0
    6.2586   -2.4014    1.3038 C   0  0  0  0  0  0  0  0  0  0  0  0
    5.6464   -2.8578   -0.0212 C   0  0  1  0  0  0  0  0  0  0  0  0
    6.9050   -2.3547   -0.9036 C   0  0  0  0  0  0  0  0  0  0  0  0
    3.6434   -2.1976    2.3512 C   0  0  0  0  0  0  0  0  0  0  0  0
    3.9950   -1.7847    3.8311 C   0  0  0  0  0  0  0  0  0  0  0  0
    2.0820   -1.9223    2.3777 C   0  0  0  0  0  0  0  0  0  0  0  0
    3.9320   -3.9440    2.2360 C   0  0  0  0  0  0  0  0  0  0  0  0
    2.5501   -4.6624    2.4548 C   0  0  0  0  0  0  0  0  0  0  0  0
    4.6773   -4.5239    3.5128 C   0  0  0  0  0  0  0  0  0  0  0  0
    5.9438   -6.2520    1.7219 H   0  0  0  0  0  0  0  0  0  0  0  0
    5.1783   -6.7898    0.2393 H   0  0  0  0  0  0  0  0  0  0  0  0
    4.2883   -6.8677    1.7272 H   0  0  0  0  0  0  0  0  0  0  0  0
    3.5985   -5.0622    0.3029 H   0  0  0  0  0  0  0  0  0  0  0  0
    6.4744   -4.7553   -0.1372 H   0  0  0  0  0  0  0  0  0  0  0  0
    6.0609   -4.1837   -2.4268 H   0  0  0  0  0  0  0  0  0  0  0  0
    4.6425   -4.9843   -2.1322 H   0  0  0  0  0  0  0  0  0  0  0  0
    4.1804   -2.6716   -3.3421 H   0  0  0  0  0  0  0  0  0  0  0  0
    2.3570   -2.3493   -1.7949 H   0  0  0  0  0  0  0  0  0  0  0  0
    2.8443   -4.0066   -1.5314 H   0  0  0  0  0  0  0  0  0  0  0  0
    3.1803   -3.0002    0.2906 H   0  0  0  0  0  0  0  0  0  0  0  0
    2.7536   -0.8780   -0.1594 H   0  0  0  0  0  0  0  0  0  0  0  0
    5.4131   -0.6121   -1.6647 H   0  0  0  0  0  0  0  0  0  0  0  0
    3.8334   -0.5500   -2.1813 H   0  0  0  0  0  0  0  0  0  0  0  0
    6.1269   -0.2850    0.8686 H   0  0  0  0  0  0  0  0  0  0  0  0
    6.0008   -0.6931    2.5311 H   0  0  0  0  0  0  0  0  0  0  0  0
    7.3567   -2.3560    1.2985 H   0  0  0  0  0  0  0  0  0  0  0  0
    6.1196   -3.0395    2.1387 H   0  0  0  0  0  0  0  0  0  0  0  0
    7.2072   -1.3590   -0.6250 H   0  0  0  0  0  0  0  0  0  0  0  0
    6.8326   -2.3003   -1.9882 H   0  0  0  0  0  0  0  0  0  0  0  0
    7.7931   -2.9678   -0.7338 H   0  0  0  0  0  0  0  0  0  0  0  0
    3.3772   -2.3046    4.5768 H   0  0  0  0  0  0  0  0  0  0  0  0
    3.8179   -0.7333    4.0488 H   0  0  0  0  0  0  0  0  0  0  0  0
    5.0370   -1.9758    4.0948 H   0  0  0  0  0  0  0  0  0  0  0  0
    1.5498   -2.4296    3.1898 H   0  0  0  0  0  0  0  0  0  0  0  0
    1.5811   -2.1932    1.4516 H   0  0  0  0  0  0  0  0  0  0  0  0
    1.8186   -0.8852    2.5582 H   0  0  0  0  0  0  0  0  0  0  0  0
    2.0985   -4.4352    3.4213 H   0  0  0  0  0  0  0  0  0  0  0  0
    2.6290   -5.7502    2.4556 H   0  0  0  0  0  0  0  0  0  0  0  0
    1.8292   -4.4350    1.6699 H   0  0  0  0  0  0  0  0  0  0  0  0
    4.2084   -4.2416    4.4532 H   0  0  0  0  0  0  0  0  0  0  0  0
    5.7339   -4.2903    3.6127 H   0  0  0  0  0  0  0  0  0  0  0  0
    4.6381   -5.6117    3.5644 H   0  0  0  0  0  0  0  0  0  0  0  0
    2.9253    0.2274    1.4647 H   0  0  0  0  0  0  0  0  0  0  0  0
  1  2  1  0
  1 22  1  0
  1 23  1  0
  1 24  1  0
  2 19  1  0
  2  3  1  0
  2 25  1  6
  3 14  1  0
  3  4  1  0
  3 26  1  6
  4  5  1  0
  4 27  1  0
  4 28  1  0
  5  9  1  0
  5  6  1  0
  5 29  1  6
  6  7  1  0
  6 30  1  0
  6 31  1  0
  7 14  1  0
  7  8  1  0
  7 32  1  1
  8  9  1  0
  8 10  1  0
  8 33  1  6
  9 34  1  0
  9 35  1  0
 10 11  1  1
 10 12  1  0
 10 16  1  0
 11 55  1  0
 12 13  1  0
 12 36  1  0
 12 37  1  0
 13 14  1  0
 13 38  1  0
 13 39  1  0
 14 15  1  6
 15 40  1  0
 15 41  1  0
 15 42  1  0
 16 17  1  0
 16 18  1  0
 16 19  1  0
 17 43  1  0
 17 44  1  0
 17 45  1  0
 18 46  1  0
 18 47  1  0
 18 48  1  0
 19 20  1  0
 19 21  1  0
 20 49  1  0
 20 50  1  0
 20 51  1  0
 21 52  1  0
 21 53  1  0
 21 54  1  0
M  CHG  1  10   1
M  END
>  <i_m_ct_stereo_status>  (331) 
1

>  <s_m_source_file>  (331) 
/var/tmp/pbs.5076255.sched01/tmpycp4azd_/132pnz8hy5b.sdf

>  <i_m_source_file_index>  (331) 
29

>  <i_lp_mmshare_version>  (331) 
48012

>  <i_f3d_flags>  (331) 
0

>  <s_epik_input>  (331) 
W0NIM11DMShbQ0gzXSlDKFtDSDNdKShbQ0gzXSlbQ0BIXShbQ0gzXSlbQ0BASF0oW0NIMl1bQ0BASF0oW0NIMl0yKVtDSDJdMylbQ0BdKFtDSDNdKShbQ0gyXVtDSDJdNClbQ0BIXTJbQ0BIXTNbTkBAK10xNFtPLV0=

>  <s_epik_cmdline>  (331) 
J2VwaWtfcHl0aG9uJywgJy1waHQnLCAnMi4wJywgJy1waCcsICc3LjAnLCAnLXRuJywgJzgnLCAnLW1hJywgJzIwMCcsICctaW1hZScsICc8aW5maWxlLm1hZT4nLCAnLW9tYWUnLCAnPG91dGZpbGUubWFlPic=

>  <r_epik_Ionization_Penalty>  (331) 
0.881134

>  <r_epik_Ionization_Penalty_Charging>  (331) 
0

>  <r_epik_Ionization_Penalty_Neutral>  (331) 
0.881134

>  <r_epik_State_Penalty>  (331) 
0.91935

>  <r_epik_Charging_Adjusted_Penalty>  (331) 
0.91935

>  <i_epik_Tot_Q>  (331) 
1

>  <i_epik_Tot_abs_Q>  (331) 
1

>  <s_epik_Chemistry_Notes>  (331) 
This compound has a N-S or N-O group and may undergo hydrolysis at high or low pH.

>  <s_lp_Force_Field>  (331) 
OPLS3e

>  <r_lp_Energy>  (331) 
341.635

>  <b_lp_Chiralities_Consistent>  (331) 
1

>  <s_lp_Variant>  (331) 
105:0-2

>  <s_i_glide_gridfile>  (331) 
pfpi4k_grid

>  <i_i_glide_lignum>  (331) 
29

>  <i_i_glide_rotatable_bonds>  (331) 
1

>  <r_i_docking_score>  (331) 
-3.39829

>  <r_i_glide_ligand_efficiency>  (331) 
-0.161824

>  <r_i_glide_ligand_efficiency_sa>  (331) 
-0.446459

>  <r_i_glide_ligand_efficiency_ln>  (331) 
-0.840221

>  <r_i_glide_gscore>  (331) 
-3.39829

>  <r_i_glide_lipo>  (331) 
-0.48119

>  <r_i_glide_hbond>  (331) 
0

>  <r_i_glide_metal>  (331) 
-0

>  <r_i_glide_rewards>  (331) 
-1.41491

>  <r_i_glide_evdw>  (331) 
-20.674

>  <r_i_glide_ecoul>  (331) 
-3.12327

>  <r_i_glide_erotb>  (331) 
0

>  <r_i_glide_esite>  (331) 
0

>  <r_i_glide_emodel>  (331) 
-28.0662

>  <r_i_glide_energy>  (331) 
-23.7973

>  <r_i_glide_einternal>  (331) 
1.48154

>  <r_i_glide_intrahb_reward>  (331) 
-0

>  <i_i_glide_confnum>  (331) 
1

>  <i_i_glide_posenum>  (331) 
13

>  <r_i_glide_eff_state_penalty>  (331) 
0

>  <ligand_id>  (331) 
105

>  <original_smiles>  (331) 
CC1C2CC3CC4C(C3)[N+]([O-])(CCC24C)C(C)(C)C1(C)C

>  <smiles>  (331) 
[H]O[N+]12C([H])([H])C([H])([H])C3(C([H])([H])[H])C([H])(C([H])([H])C4([H])C([H])([H])C3([H])C1([H])C4([H])[H])C([H])(C([H])([H])[H])C(C([H])([H])[H])(C([H])([H])[H])C2(C([H])([H])[H])C([H])([H])[H]

$$$$
106:0:0
     RDKit          3D

 40 43  0  0  1  0  0  0  0  0999 V2000
    6.2643   -5.1826    1.8792 C   0  0  0  0  0  0  0  0  0  0  0  0
    5.0950   -4.4346    1.1956 C   0  0  2  0  0  0  0  0  0  0  0  0
    4.8750   -4.9673   -0.3037 C   0  0  0  0  0  0  0  0  0  0  0  0
    4.6914   -3.8949   -1.5279 C   0  0  0  0  0  0  0  0  0  0  0  0
    4.4692   -2.3357   -1.1796 C   0  0  2  0  0  0  0  0  0  0  0  0
    3.3801   -1.7471   -2.1085 C   0  0  0  0  0  0  0  0  0  0  0  0
    5.7222   -1.4172   -1.3207 C   0  0  0  0  0  0  0  0  0  0  0  0
    6.7489   -1.5185   -0.3160 O   0  0  0  0  0  0  0  0  0  0  0  0
    6.5967   -2.5370    0.5811 C   0  0  0  0  0  0  0  0  0  0  0  0
    5.3831   -3.0515    0.8198 C   0  0  0  0  0  0  0  0  0  0  0  0
    4.0874   -2.4376    0.2686 C   0  0  2  0  0  0  0  0  0  0  0  0
    2.6921   -3.1702    0.4258 C   0  0  0  0  0  0  0  0  0  0  0  0
    2.9643   -3.0356    1.8790 C   0  0  1  0  0  0  0  0  0  0  0  0
    3.9079   -4.2320    2.2395 C   0  0  1  0  0  0  0  0  0  0  0  0
    3.1534   -5.4221    2.3681 O   0  0  0  0  0  0  0  0  0  0  0  0
    3.5424   -1.6047    1.4586 C   0  0  1  0  0  0  0  0  0  0  0  0
    4.4555   -0.9331    2.4939 C   0  0  0  0  0  0  0  0  0  0  0  0
    2.6230   -0.5680    1.1581 O   0  0  0  0  0  0  0  0  0  0  0  0
    5.9641   -6.2003    2.1369 H   0  0  0  0  0  0  0  0  0  0  0  0
    6.5669   -4.6858    2.8032 H   0  0  0  0  0  0  0  0  0  0  0  0
    7.1432   -5.2558    1.2363 H   0  0  0  0  0  0  0  0  0  0  0  0
    5.7477   -5.5618   -0.5695 H   0  0  0  0  0  0  0  0  0  0  0  0
    4.0630   -5.6968   -0.3136 H   0  0  0  0  0  0  0  0  0  0  0  0
    5.5140   -3.9974   -2.2376 H   0  0  0  0  0  0  0  0  0  0  0  0
    3.8174   -4.2301   -2.0842 H   0  0  0  0  0  0  0  0  0  0  0  0
    3.0892   -0.7409   -1.8011 H   0  0  0  0  0  0  0  0  0  0  0  0
    2.4774   -2.3593   -2.1374 H   0  0  0  0  0  0  0  0  0  0  0  0
    3.7527   -1.6815   -3.1334 H   0  0  0  0  0  0  0  0  0  0  0  0
    6.1821   -1.5924   -2.2905 H   0  0  0  0  0  0  0  0  0  0  0  0
    5.4036   -0.3741   -1.3168 H   0  0  0  0  0  0  0  0  0  0  0  0
    7.5354   -3.0167    0.8153 H   0  0  0  0  0  0  0  0  0  0  0  0
    1.8172   -2.6405    0.0879 H   0  0  0  0  0  0  0  0  0  0  0  0
    2.5626   -4.1976    0.0877 H   0  0  0  0  0  0  0  0  0  0  0  0
    2.0564   -2.9593    2.4755 H   0  0  0  0  0  0  0  0  0  0  0  0
    4.3350   -4.0276    3.2232 H   0  0  0  0  0  0  0  0  0  0  0  0
    3.7249   -6.1149    2.6662 H   0  0  0  0  0  0  0  0  0  0  0  0
    5.1010   -1.6523    3.0012 H   0  0  0  0  0  0  0  0  0  0  0  0
    3.8699   -0.4608    3.2829 H   0  0  0  0  0  0  0  0  0  0  0  0
    5.0935   -0.1702    2.0465 H   0  0  0  0  0  0  0  0  0  0  0  0
    2.0682   -0.8509    0.4311 H   0  0  0  0  0  0  0  0  0  0  0  0
  2  1  1  1
  1 19  1  0
  1 20  1  0
  1 21  1  0
  2 10  1  0
  2 14  1  0
  2  3  1  0
  3  4  1  0
  3 22  1  0
  3 23  1  0
  4  5  1  0
  4 24  1  0
  4 25  1  0
  5 11  1  0
  5  6  1  6
  5  7  1  0
  6 26  1  0
  6 27  1  0
  6 28  1  0
  7  8  1  0
  7 29  1  0
  7 30  1  0
  8  9  1  0
  9 10  2  0
  9 31  1  0
 10 11  1  0
 11 16  1  0
 11 12  1  6
 12 13  1  0
 12 32  1  0
 12 33  1  0
 13 14  1  0
 13 16  1  0
 13 34  1  1
 14 15  1  0
 14 35  1  1
 15 36  1  0
 16 17  1  0
 16 18  1  6
 17 37  1  0
 17 38  1  0
 17 39  1  0
 18 40  1  0
M  END
>  <i_m_ct_stereo_status>  (332) 
1

>  <s_m_source_file>  (332) 
/var/tmp/pbs.5076255.sched01/tmpycp4azd_/132pnz8hy5b.sdf

>  <i_m_source_file_index>  (332) 
30

>  <i_lp_mmshare_version>  (332) 
48012

>  <i_f3d_flags>  (332) 
0

>  <s_epik_input>  (332) 
W0NIMl0xT1tDSF09QzJbQ0BdKFtDSDNdKShbQ0gyXVtDSDJdW0NAXTEoQzIzNClbQ0gzXSlbQ0BIXShbT0hdKVtDQEhdKFtDSDJdMylbQ0BdNChbQ0gzXSlbT0hd

>  <s_epik_cmdline>  (332) 
J2VwaWtfcHl0aG9uJywgJy1waHQnLCAnMi4wJywgJy1waCcsICc3LjAnLCAnLXRuJywgJzgnLCAnLW1hJywgJzIwMCcsICctaW1hZScsICc8aW5maWxlLm1hZT4nLCAnLW9tYWUnLCAnPG91dGZpbGUubWFlPic=

>  <r_lp_tautomer_probability>  (332) 
1

>  <r_epik_Ionization_Penalty>  (332) 
8.33634e-07

>  <r_epik_Ionization_Penalty_Charging>  (332) 
0

>  <r_epik_Ionization_Penalty_Neutral>  (332) 
8.33634e-07

>  <r_epik_State_Penalty>  (332) 
-0

>  <r_epik_Charging_Adjusted_Penalty>  (332) 
0

>  <i_epik_Tot_Q>  (332) 
0

>  <i_epik_Tot_abs_Q>  (332) 
0

>  <s_lp_Force_Field>  (332) 
OPLS3e

>  <r_lp_Energy>  (332) 
128.543

>  <b_lp_Chiralities_Consistent>  (332) 
1

>  <s_lp_Variant>  (332) 
106:0-1

>  <s_i_glide_gridfile>  (332) 
pfpi4k_grid

>  <i_i_glide_lignum>  (332) 
30

>  <i_i_glide_rotatable_bonds>  (332) 
2

>  <r_i_docking_score>  (332) 
-3.54119

>  <r_i_glide_ligand_efficiency>  (332) 
-0.196733

>  <r_i_glide_ligand_efficiency_sa>  (332) 
-0.515586

>  <r_i_glide_ligand_efficiency_ln>  (332) 
-0.910244

>  <r_i_glide_gscore>  (332) 
-3.54119

>  <r_i_glide_lipo>  (332) 
-0.290828

>  <r_i_glide_hbond>  (332) 
-0.281664

>  <r_i_glide_metal>  (332) 
-0

>  <r_i_glide_rewards>  (332) 
-1.70227

>  <r_i_glide_evdw>  (332) 
-14.0924

>  <r_i_glide_ecoul>  (332) 
-3.74535

>  <r_i_glide_erotb>  (332) 
0

>  <r_i_glide_esite>  (332) 
0

>  <r_i_glide_emodel>  (332) 
-22.0056

>  <r_i_glide_energy>  (332) 
-17.8378

>  <r_i_glide_einternal>  (332) 
0.352878

>  <r_i_glide_intrahb_reward>  (332) 
-0

>  <i_i_glide_confnum>  (332) 
1

>  <i_i_glide_posenum>  (332) 
4

>  <r_i_glide_eff_state_penalty>  (332) 
0

>  <ligand_id>  (332) 
106

>  <original_smiles>  (332) 
CC12CCC3(C)COC=C1C31CC(C2O)C1(C)O

>  <smiles>  (332) 
[H]OC1([H])C2([H])C([H])([H])C3(C4=C([H])OC([H])([H])C3(C([H])([H])[H])C([H])([H])C([H])([H])C41C([H])([H])[H])C2(O[H])C([H])([H])[H]

$$$$
106:0:1
     RDKit          3D

 40 43  0  0  1  0  0  0  0  0999 V2000
    6.2747   -5.1602    1.9057 C   0  0  0  0  0  0  0  0  0  0  0  0
    5.1005   -4.4185    1.2246 C   0  0  2  0  0  0  0  0  0  0  0  0
    4.8773   -4.9574   -0.2731 C   0  0  0  0  0  0  0  0  0  0  0  0
    4.6866   -3.8886   -1.4995 C   0  0  0  0  0  0  0  0  0  0  0  0
    4.4585   -2.3285   -1.1547 C   0  0  2  0  0  0  0  0  0  0  0  0
    3.3637   -1.7465   -2.0794 C   0  0  0  0  0  0  0  0  0  0  0  0
    5.7084   -1.4061   -1.3037 C   0  0  0  0  0  0  0  0  0  0  0  0
    6.7416   -1.5045   -0.3077 O   0  0  0  0  0  0  0  0  0  0  0  0
    6.5946   -2.5179    0.5979 C   0  0  0  0  0  0  0  0  0  0  0  0
    5.3822   -3.0367    0.8447 C   0  0  0  0  0  0  0  0  0  0  0  0
    4.0826   -2.4276    0.2966 C   0  0  2  0  0  0  0  0  0  0  0  0
    2.6885   -3.1626    0.4598 C   0  0  0  0  0  0  0  0  0  0  0  0
    2.9651   -3.0279    1.9122 C   0  0  1  0  0  0  0  0  0  0  0  0
    3.9196   -4.2185    2.2749 C   0  0  1  0  0  0  0  0  0  0  0  0
    3.1918   -5.4206    2.4258 O   0  0  0  0  0  0  0  0  0  0  0  0
    3.5383   -1.5965    1.4887 C   0  0  1  0  0  0  0  0  0  0  0  0
    4.4560   -0.9186    2.5184 C   0  0  0  0  0  0  0  0  0  0  0  0
    2.6113   -0.5660    1.1934 O   0  0  0  0  0  0  0  0  0  0  0  0
    5.9754   -6.1781    2.1705 H   0  0  0  0  0  0  0  0  0  0  0  0
    6.5790   -4.6612    2.8288 H   0  0  0  0  0  0  0  0  0  0  0  0
    7.1532   -5.2350    1.2611 H   0  0  0  0  0  0  0  0  0  0  0  0
    5.7528   -5.5479   -0.5397 H   0  0  0  0  0  0  0  0  0  0  0  0
    4.0709   -5.6914   -0.2861 H   0  0  0  0  0  0  0  0  0  0  0  0
    5.5062   -3.9893   -2.2112 H   0  0  0  0  0  0  0  0  0  0  0  0
    3.8098   -4.2286   -2.0501 H   0  0  0  0  0  0  0  0  0  0  0  0
    3.0707   -0.7417   -1.7731 H   0  0  0  0  0  0  0  0  0  0  0  0
    2.4638   -2.3610   -2.1035 H   0  0  0  0  0  0  0  0  0  0  0  0
    3.7309   -1.6820   -3.1050 H   0  0  0  0  0  0  0  0  0  0  0  0
    6.1625   -1.5807   -2.2767 H   0  0  0  0  0  0  0  0  0  0  0  0
    5.3882   -0.3634   -1.2990 H   0  0  0  0  0  0  0  0  0  0  0  0
    7.5373   -2.9945    0.8304 H   0  0  0  0  0  0  0  0  0  0  0  0
    1.8194   -2.6288    0.1130 H   0  0  0  0  0  0  0  0  0  0  0  0
    2.5638   -4.1899    0.1208 H   0  0  0  0  0  0  0  0  0  0  0  0
    2.0631   -2.9500    2.5141 H   0  0  0  0  0  0  0  0  0  0  0  0
    4.3468   -4.0063    3.2569 H   0  0  0  0  0  0  0  0  0  0  0  0
    2.9032   -5.7021    1.5701 H   0  0  0  0  0  0  0  0  0  0  0  0
    5.1068   -1.6328    3.0254 H   0  0  0  0  0  0  0  0  0  0  0  0
    3.8724   -0.4446    3.3087 H   0  0  0  0  0  0  0  0  0  0  0  0
    5.0902   -0.1529    2.0669 H   0  0  0  0  0  0  0  0  0  0  0  0
    2.0655   -0.8431    0.4563 H   0  0  0  0  0  0  0  0  0  0  0  0
  2  1  1  1
  1 19  1  0
  1 20  1  0
  1 21  1  0
  2 10  1  0
  2 14  1  0
  2  3  1  0
  3  4  1  0
  3 22  1  0
  3 23  1  0
  4  5  1  0
  4 24  1  0
  4 25  1  0
  5 11  1  0
  5  6  1  6
  5  7  1  0
  6 26  1  0
  6 27  1  0
  6 28  1  0
  7  8  1  0
  7 29  1  0
  7 30  1  0
  8  9  1  0
  9 10  2  0
  9 31  1  0
 10 11  1  0
 11 16  1  0
 11 12  1  6
 12 13  1  0
 12 32  1  0
 12 33  1  0
 13 14  1  0
 13 16  1  0
 13 34  1  1
 14 15  1  0
 14 35  1  1
 15 36  1  0
 16 17  1  0
 16 18  1  6
 17 37  1  0
 17 38  1  0
 17 39  1  0
 18 40  1  0
M  END
>  <i_m_ct_stereo_status>  (333) 
1

>  <s_m_source_file>  (333) 
/var/tmp/pbs.5076255.sched01/tmpycp4azd_/132pnz8hy5b.sdf

>  <i_m_source_file_index>  (333) 
30

>  <i_lp_mmshare_version>  (333) 
48012

>  <i_f3d_flags>  (333) 
0

>  <s_epik_input>  (333) 
W0NIMl0xT1tDSF09QzJbQ0BdKFtDSDNdKShbQ0gyXVtDSDJdW0NAXTEoQzIzNClbQ0gzXSlbQ0BIXShbT0hdKVtDQEhdKFtDSDJdMylbQ0BdNChbQ0gzXSlbT0hd

>  <s_epik_cmdline>  (333) 
J2VwaWtfcHl0aG9uJywgJy1waHQnLCAnMi4wJywgJy1waCcsICc3LjAnLCAnLXRuJywgJzgnLCAnLW1hJywgJzIwMCcsICctaW1hZScsICc8aW5maWxlLm1hZT4nLCAnLW9tYWUnLCAnPG91dGZpbGUubWFlPic=

>  <r_lp_tautomer_probability>  (333) 
1

>  <r_epik_Ionization_Penalty>  (333) 
8.33634e-07

>  <r_epik_Ionization_Penalty_Charging>  (333) 
0

>  <r_epik_Ionization_Penalty_Neutral>  (333) 
8.33634e-07

>  <r_epik_State_Penalty>  (333) 
-0

>  <r_epik_Charging_Adjusted_Penalty>  (333) 
0

>  <i_epik_Tot_Q>  (333) 
0

>  <i_epik_Tot_abs_Q>  (333) 
0

>  <s_lp_Force_Field>  (333) 
OPLS3e

>  <r_lp_Energy>  (333) 
128.543

>  <b_lp_Chiralities_Consistent>  (333) 
1

>  <s_lp_Variant>  (333) 
106:0-1

>  <s_i_glide_gridfile>  (333) 
pfpi4k_grid

>  <i_i_glide_lignum>  (333) 
30

>  <i_i_glide_rotatable_bonds>  (333) 
2

>  <r_i_docking_score>  (333) 
-3.53628

>  <r_i_glide_ligand_efficiency>  (333) 
-0.19646

>  <r_i_glide_ligand_efficiency_sa>  (333) 
-0.514871

>  <r_i_glide_ligand_efficiency_ln>  (333) 
-0.908982

>  <r_i_glide_gscore>  (333) 
-3.53628

>  <r_i_glide_lipo>  (333) 
-0.288333

>  <r_i_glide_hbond>  (333) 
-0.280071

>  <r_i_glide_metal>  (333) 
-0

>  <r_i_glide_rewards>  (333) 
-1.70227

>  <r_i_glide_evdw>  (333) 
-14.097

>  <r_i_glide_ecoul>  (333) 
-3.73836

>  <r_i_glide_erotb>  (333) 
0

>  <r_i_glide_esite>  (333) 
0

>  <r_i_glide_emodel>  (333) 
-22.0781

>  <r_i_glide_energy>  (333) 
-17.8353

>  <r_i_glide_einternal>  (333) 
0.148819

>  <r_i_glide_intrahb_reward>  (333) 
-0

>  <i_i_glide_confnum>  (333) 
1

>  <i_i_glide_posenum>  (333) 
29

>  <r_i_glide_eff_state_penalty>  (333) 
0

>  <ligand_id>  (333) 
106

>  <original_smiles>  (333) 
CC12CCC3(C)COC=C1C31CC(C2O)C1(C)O

>  <smiles>  (333) 
[H]OC1([H])C2([H])C([H])([H])C3(C4=C([H])OC([H])([H])C3(C([H])([H])[H])C([H])([H])C([H])([H])C41C([H])([H])[H])C2(O[H])C([H])([H])[H]

$$$$
106:0:2
     RDKit          3D

 40 43  0  0  1  0  0  0  0  0999 V2000
    4.3405   -2.9876   -2.9686 C   0  0  0  0  0  0  0  0  0  0  0  0
    3.9510   -2.7390   -1.4945 C   0  0  2  0  0  0  0  0  0  0  0  0
    4.0529   -1.1732   -1.1305 C   0  0  0  0  0  0  0  0  0  0  0  0
    4.7990   -0.6818    0.2451 C   0  0  0  0  0  0  0  0  0  0  0  0
    5.2437   -1.7879    1.3198 C   0  0  2  0  0  0  0  0  0  0  0  0
    4.9457   -1.2687    2.7504 C   0  0  0  0  0  0  0  0  0  0  0  0
    6.7420   -2.2027    1.2675 C   0  0  0  0  0  0  0  0  0  0  0  0
    7.1996   -3.0586    0.2183 O   0  0  0  0  0  0  0  0  0  0  0  0
    6.2844   -3.2925   -0.7704 C   0  0  0  0  0  0  0  0  0  0  0  0
    4.9756   -3.1542   -0.5267 C   0  0  0  0  0  0  0  0  0  0  0  0
    4.3980   -2.9452    0.8878 C   0  0  2  0  0  0  0  0  0  0  0  0
    2.8649   -2.6316    1.1396 C   0  0  0  0  0  0  0  0  0  0  0  0
    2.6753   -3.9470    0.4700 C   0  0  1  0  0  0  0  0  0  0  0  0
    2.7484   -3.7050   -1.0681 C   0  0  1  0  0  0  0  0  0  0  0  0
    1.4693   -3.4900   -1.6150 O   0  0  0  0  0  0  0  0  0  0  0  0
    3.9534   -4.3752    1.3165 C   0  0  1  0  0  0  0  0  0  0  0  0
    4.6401   -5.6604    0.8329 C   0  0  0  0  0  0  0  0  0  0  0  0
    3.7521   -4.6259    2.7013 O   0  0  0  0  0  0  0  0  0  0  0  0
    3.5351   -2.6579   -3.6217 H   0  0  0  0  0  0  0  0  0  0  0  0
    4.5088   -4.0472   -3.1658 H   0  0  0  0  0  0  0  0  0  0  0  0
    5.2417   -2.4493   -3.2691 H   0  0  0  0  0  0  0  0  0  0  0  0
    4.5748   -0.6620   -1.9458 H   0  0  0  0  0  0  0  0  0  0  0  0
    3.0514   -0.7561   -1.1734 H   0  0  0  0  0  0  0  0  0  0  0  0
    5.6683   -0.0706    0.0105 H   0  0  0  0  0  0  0  0  0  0  0  0
    4.1025    0.0078    0.7308 H   0  0  0  0  0  0  0  0  0  0  0  0
    5.0736   -2.0453    3.5098 H   0  0  0  0  0  0  0  0  0  0  0  0
    3.9331   -0.8683    2.8552 H   0  0  0  0  0  0  0  0  0  0  0  0
    5.6260   -0.4526    3.0072 H   0  0  0  0  0  0  0  0  0  0  0  0
    7.3863   -1.3252    1.3143 H   0  0  0  0  0  0  0  0  0  0  0  0
    6.9169   -2.8115    2.1352 H   0  0  0  0  0  0  0  0  0  0  0  0
    6.7537   -3.2907   -1.7422 H   0  0  0  0  0  0  0  0  0  0  0  0
    2.5255   -2.5934    2.1836 H   0  0  0  0  0  0  0  0  0  0  0  0
    2.3872   -1.8121    0.6034 H   0  0  0  0  0  0  0  0  0  0  0  0
    1.8129   -4.4989    0.7987 H   0  0  0  0  0  0  0  0  0  0  0  0
    2.9326   -4.6517   -1.5147 H   0  0  0  0  0  0  0  0  0  0  0  0
    1.5507   -3.3488   -2.5429 H   0  0  0  0  0  0  0  0  0  0  0  0
    4.6528   -5.7385   -0.2532 H   0  0  0  0  0  0  0  0  0  0  0  0
    4.1108   -6.5523    1.1734 H   0  0  0  0  0  0  0  0  0  0  0  0
    5.6670   -5.7254    1.1832 H   0  0  0  0  0  0  0  0  0  0  0  0
    3.3399   -3.8536    3.0516 H   0  0  0  0  0  0  0  0  0  0  0  0
  2  1  1  6
  1 19  1  0
  1 20  1  0
  1 21  1  0
  2 10  1  0
  2 14  1  0
  2  3  1  0
  3  4  1  0
  3 22  1  0
  3 23  1  0
  4  5  1  0
  4 24  1  0
  4 25  1  0
  5 11  1  0
  5  6  1  1
  5  7  1  0
  6 26  1  0
  6 27  1  0
  6 28  1  0
  7  8  1  0
  7 29  1  0
  7 30  1  0
  8  9  1  0
  9 10  2  0
  9 31  1  0
 10 11  1  0
 11 16  1  0
 11 12  1  6
 12 13  1  0
 12 32  1  0
 12 33  1  0
 13 14  1  0
 13 16  1  0
 13 34  1  6
 14 15  1  0
 14 35  1  6
 15 36  1  0
 16 17  1  0
 16 18  1  1
 17 37  1  0
 17 38  1  0
 17 39  1  0
 18 40  1  0
M  END
>  <i_m_ct_stereo_status>  (334) 
1

>  <s_m_source_file>  (334) 
/var/tmp/pbs.5076255.sched01/tmpycp4azd_/132pnz8hy5b.sdf

>  <i_m_source_file_index>  (334) 
30

>  <i_lp_mmshare_version>  (334) 
48012

>  <i_f3d_flags>  (334) 
0

>  <s_epik_input>  (334) 
W0NIMl0xT1tDSF09QzJbQ0BdKFtDSDNdKShbQ0gyXVtDSDJdW0NAXTEoQzIzNClbQ0gzXSlbQ0BIXShbT0hdKVtDQEhdKFtDSDJdMylbQ0BdNChbQ0gzXSlbT0hd

>  <s_epik_cmdline>  (334) 
J2VwaWtfcHl0aG9uJywgJy1waHQnLCAnMi4wJywgJy1waCcsICc3LjAnLCAnLXRuJywgJzgnLCAnLW1hJywgJzIwMCcsICctaW1hZScsICc8aW5maWxlLm1hZT4nLCAnLW9tYWUnLCAnPG91dGZpbGUubWFlPic=

>  <r_lp_tautomer_probability>  (334) 
1

>  <r_epik_Ionization_Penalty>  (334) 
8.33634e-07

>  <r_epik_Ionization_Penalty_Charging>  (334) 
0

>  <r_epik_Ionization_Penalty_Neutral>  (334) 
8.33634e-07

>  <r_epik_State_Penalty>  (334) 
-0

>  <r_epik_Charging_Adjusted_Penalty>  (334) 
0

>  <i_epik_Tot_Q>  (334) 
0

>  <i_epik_Tot_abs_Q>  (334) 
0

>  <s_lp_Force_Field>  (334) 
OPLS3e

>  <r_lp_Energy>  (334) 
128.543

>  <b_lp_Chiralities_Consistent>  (334) 
1

>  <s_lp_Variant>  (334) 
106:0-1

>  <s_i_glide_gridfile>  (334) 
pfpi4k_grid

>  <i_i_glide_lignum>  (334) 
30

>  <i_i_glide_rotatable_bonds>  (334) 
2

>  <r_i_docking_score>  (334) 
-3.23418

>  <r_i_glide_ligand_efficiency>  (334) 
-0.179677

>  <r_i_glide_ligand_efficiency_sa>  (334) 
-0.470886

>  <r_i_glide_ligand_efficiency_ln>  (334) 
-0.831329

>  <r_i_glide_gscore>  (334) 
-3.23418

>  <r_i_glide_lipo>  (334) 
-0.618604

>  <r_i_glide_hbond>  (334) 
-0.0256242

>  <r_i_glide_metal>  (334) 
-0

>  <r_i_glide_rewards>  (334) 
-1.70227

>  <r_i_glide_evdw>  (334) 
-9.99839

>  <r_i_glide_ecoul>  (334) 
-2.58507

>  <r_i_glide_erotb>  (334) 
0

>  <r_i_glide_esite>  (334) 
0

>  <r_i_glide_emodel>  (334) 
-15.8082

>  <r_i_glide_energy>  (334) 
-12.5835

>  <r_i_glide_einternal>  (334) 
0.554563

>  <r_i_glide_intrahb_reward>  (334) 
-0

>  <i_i_glide_confnum>  (334) 
1

>  <i_i_glide_posenum>  (334) 
1

>  <r_i_glide_eff_state_penalty>  (334) 
0

>  <ligand_id>  (334) 
106

>  <original_smiles>  (334) 
CC12CCC3(C)COC=C1C31CC(C2O)C1(C)O

>  <smiles>  (334) 
[H]OC1([H])C2([H])C([H])([H])C3(C4=C([H])OC([H])([H])C3(C([H])([H])[H])C([H])([H])C([H])([H])C41C([H])([H])[H])C2(O[H])C([H])([H])[H]

$$$$
107:0:0
     RDKit          3D

 28 30  0  0  1  0  0  0  0  0999 V2000
    2.7898   -2.9739    1.0102 C   0  0  0  0  0  0  0  0  0  0  0  0
    3.0879   -4.0047   -0.0945 C   0  0  2  0  0  0  0  0  0  0  0  0
    3.2701   -5.4343    0.4648 C   0  0  0  0  0  0  0  0  0  0  0  0
    2.0974   -5.8934    1.1720 N   0  0  0  0  0  0  0  0  0  0  0  0
    1.8256   -5.9541    2.4771 C   0  0  0  0  0  0  0  0  0  0  0  0
    0.5991   -6.3987    2.6932 N   0  0  0  0  0  0  0  0  0  0  0  0
    0.1256   -6.6552    1.4212 N   0  0  0  0  0  0  0  0  0  0  0  0
    1.0003   -6.3314    0.5123 N   0  0  0  0  0  0  0  0  0  0  0  0
    4.2410   -3.5848   -0.8808 N   0  0  0  0  0  0  0  0  0  0  0  0
    4.2271   -3.1055   -2.1428 C   0  0  0  0  0  0  0  0  0  0  0  0
    5.3980   -2.7585   -2.6827 N   0  0  0  0  0  0  0  0  0  0  0  0
    6.2708   -3.0385   -1.6457 C   0  0  0  0  0  0  0  0  0  0  0  0
    7.6715   -2.8981   -1.5140 C   0  0  0  0  0  0  0  0  0  0  0  0
    8.2792   -3.2501   -0.2947 C   0  0  0  0  0  0  0  0  0  0  0  0
    7.4857   -3.7647    0.7499 C   0  0  0  0  0  0  0  0  0  0  0  0
    6.1452   -3.9189    0.6823 N   0  0  0  0  0  0  0  0  0  0  0  0
    5.5834   -3.5505   -0.5068 C   0  0  0  0  0  0  0  0  0  0  0  0
    1.8628   -3.1939    1.5416 H   0  0  0  0  0  0  0  0  0  0  0  0
    2.6882   -1.9699    0.5958 H   0  0  0  0  0  0  0  0  0  0  0  0
    3.5938   -2.9529    1.7486 H   0  0  0  0  0  0  0  0  0  0  0  0
    2.2362   -4.0286   -0.7751 H   0  0  0  0  0  0  0  0  0  0  0  0
    3.4986   -6.1513   -0.3209 H   0  0  0  0  0  0  0  0  0  0  0  0
    4.1013   -5.4754    1.1675 H   0  0  0  0  0  0  0  0  0  0  0  0
    2.4997   -5.6422    3.2605 H   0  0  0  0  0  0  0  0  0  0  0  0
    3.3049   -3.0081   -2.7008 H   0  0  0  0  0  0  0  0  0  0  0  0
    8.2814   -2.5275   -2.3204 H   0  0  0  0  0  0  0  0  0  0  0  0
    9.3424   -3.1232   -0.1668 H   0  0  0  0  0  0  0  0  0  0  0  0
    7.9362   -4.0621    1.6849 H   0  0  0  0  0  0  0  0  0  0  0  0
  1  2  1  0
  1 18  1  0
  1 19  1  0
  1 20  1  0
  2  3  1  0
  2  9  1  0
  2 21  1  6
  3  4  1  0
  3 22  1  0
  3 23  1  0
  4  8  1  0
  4  5  1  0
  5  6  2  0
  5 24  1  0
  6  7  1  0
  7  8  2  0
  9 17  1  0
  9 10  1  0
 10 11  2  0
 10 25  1  0
 11 12  1  0
 12 17  2  0
 12 13  1  0
 13 14  2  0
 13 26  1  0
 14 15  1  0
 14 27  1  0
 15 16  2  0
 15 28  1  0
 16 17  1  0
M  END
>  <i_m_ct_stereo_status>  (335) 
1

>  <s_m_source_file>  (335) 
/var/tmp/pbs.5076255.sched01/tmpycp4azd_/132pnz8hy5b.sdf

>  <i_m_source_file_index>  (335) 
31

>  <i_lp_mmshare_version>  (335) 
48012

>  <i_f3d_flags>  (335) 
0

>  <s_epik_input>  (335) 
W2NIXTFbY0hdW2NIXW5jKGMxMiluKFtjSF1uMilbQ0BIXShbQ0gzXSlbQ0gyXW4zW2NIXW5ubjM=

>  <s_epik_cmdline>  (335) 
J2VwaWtfcHl0aG9uJywgJy1waHQnLCAnMi4wJywgJy1waCcsICc3LjAnLCAnLXRuJywgJzgnLCAnLW1hJywgJzIwMCcsICctaW1hZScsICc8aW5maWxlLm1hZT4nLCAnLW9tYWUnLCAnPG91dGZpbGUubWFlPic=

>  <r_lp_tautomer_probability>  (335) 
1

>  <r_epik_Ionization_Penalty>  (335) 
0.000785793

>  <r_epik_Ionization_Penalty_Charging>  (335) 
0.000780824

>  <r_epik_Ionization_Penalty_Neutral>  (335) 
4.9692e-06

>  <r_epik_State_Penalty>  (335) 
0.000500582

>  <r_epik_Charging_Adjusted_Penalty>  (335) 
0.00128141

>  <i_epik_Tot_Q>  (335) 
0

>  <i_epik_Tot_abs_Q>  (335) 
0

>  <s_lp_Force_Field>  (335) 
OPLS3e

>  <r_lp_Energy>  (335) 
18.2369

>  <b_lp_Chiralities_Consistent>  (335) 
1

>  <s_lp_Variant>  (335) 
107:0-1

>  <s_i_glide_gridfile>  (335) 
pfpi4k_grid

>  <i_i_glide_lignum>  (335) 
31

>  <i_i_glide_rotatable_bonds>  (335) 
3

>  <r_i_docking_score>  (335) 
-3.68389

>  <r_i_glide_ligand_efficiency>  (335) 
-0.216699

>  <r_i_glide_ligand_efficiency_sa>  (335) 
-0.557195

>  <r_i_glide_ligand_efficiency_ln>  (335) 
-0.961045

>  <r_i_glide_gscore>  (335) 
-3.68389

>  <r_i_glide_lipo>  (335) 
-0.338864

>  <r_i_glide_hbond>  (335) 
0

>  <r_i_glide_metal>  (335) 
-0

>  <r_i_glide_rewards>  (335) 
-1.93198

>  <r_i_glide_evdw>  (335) 
-23.9128

>  <r_i_glide_ecoul>  (335) 
-5.62028

>  <r_i_glide_erotb>  (335) 
0.973824

>  <r_i_glide_esite>  (335) 
-0.348185

>  <r_i_glide_emodel>  (335) 
-36.096

>  <r_i_glide_energy>  (335) 
-29.5331

>  <r_i_glide_einternal>  (335) 
0.902143

>  <r_i_glide_intrahb_reward>  (335) 
-0

>  <i_i_glide_confnum>  (335) 
5

>  <i_i_glide_posenum>  (335) 
23

>  <r_i_glide_eff_state_penalty>  (335) 
0

>  <ligand_id>  (335) 
107

>  <original_smiles>  (335) 
CC(Cn1cnnn1)n1cnc2cccnc21

>  <smiles>  (335) 
[H]c1nc2c(nc([H])n2C([H])(C([H])([H])[H])C([H])([H])n2nnnc2[H])c([H])c1[H]

$$$$
107:0:1
     RDKit          3D

 28 30  0  0  1  0  0  0  0  0999 V2000
    3.7814   -4.0703    2.6122 C   0  0  0  0  0  0  0  0  0  0  0  0
    3.2163   -4.4362    1.2233 C   0  0  2  0  0  0  0  0  0  0  0  0
    3.0487   -5.9607    1.0525 C   0  0  0  0  0  0  0  0  0  0  0  0
    1.8189   -6.4325    1.6529 N   0  0  0  0  0  0  0  0  0  0  0  0
    1.5079   -6.7251    2.9192 C   0  0  0  0  0  0  0  0  0  0  0  0
    0.2418   -7.0812    3.0403 N   0  0  0  0  0  0  0  0  0  0  0  0
   -0.2194   -7.0497    1.7393 N   0  0  0  0  0  0  0  0  0  0  0  0
    0.6994   -6.6396    0.9121 N   0  0  0  0  0  0  0  0  0  0  0  0
    4.0181   -3.8765    0.1450 N   0  0  0  0  0  0  0  0  0  0  0  0
    5.3552   -3.6894    0.1021 C   0  0  0  0  0  0  0  0  0  0  0  0
    5.8742   -3.1647   -1.0050 N   0  0  0  0  0  0  0  0  0  0  0  0
    4.7447   -3.0327   -1.7942 C   0  0  0  0  0  0  0  0  0  0  0  0
    4.5705   -2.5734   -3.1136 C   0  0  0  0  0  0  0  0  0  0  0  0
    3.2738   -2.5654   -3.6652 C   0  0  0  0  0  0  0  0  0  0  0  0
    2.1974   -3.0246   -2.8757 C   0  0  0  0  0  0  0  0  0  0  0  0
    2.3014   -3.4553   -1.6014 N   0  0  0  0  0  0  0  0  0  0  0  0
    3.5731   -3.4573   -1.1067 C   0  0  0  0  0  0  0  0  0  0  0  0
    3.1230   -4.3864    3.4229 H   0  0  0  0  0  0  0  0  0  0  0  0
    3.9150   -2.9926    2.7056 H   0  0  0  0  0  0  0  0  0  0  0  0
    4.7502   -4.5410    2.7854 H   0  0  0  0  0  0  0  0  0  0  0  0
    2.2331   -3.9711    1.1330 H   0  0  0  0  0  0  0  0  0  0  0  0
    3.0303   -6.2462    0.0001 H   0  0  0  0  0  0  0  0  0  0  0  0
    3.8919   -6.4957    1.4972 H   0  0  0  0  0  0  0  0  0  0  0  0
    2.1932   -6.6548    3.7516 H   0  0  0  0  0  0  0  0  0  0  0  0
    5.9909   -3.9338    0.9393 H   0  0  0  0  0  0  0  0  0  0  0  0
    5.4207   -2.2437   -3.6761 H   0  0  0  0  0  0  0  0  0  0  0  0
    3.0742   -2.2055   -4.6626 H   0  0  0  0  0  0  0  0  0  0  0  0
    1.1961   -3.0229   -3.2866 H   0  0  0  0  0  0  0  0  0  0  0  0
  1  2  1  0
  1 18  1  0
  1 19  1  0
  1 20  1  0
  2  3  1  0
  2  9  1  0
  2 21  1  1
  3  4  1  0
  3 22  1  0
  3 23  1  0
  4  8  1  0
  4  5  1  0
  5  6  2  0
  5 24  1  0
  6  7  1  0
  7  8  2  0
  9 17  1  0
  9 10  1  0
 10 11  2  0
 10 25  1  0
 11 12  1  0
 12 17  2  0
 12 13  1  0
 13 14  2  0
 13 26  1  0
 14 15  1  0
 14 27  1  0
 15 16  2  0
 15 28  1  0
 16 17  1  0
M  END
>  <i_m_ct_stereo_status>  (336) 
1

>  <s_m_source_file>  (336) 
/var/tmp/pbs.5076255.sched01/tmpycp4azd_/132pnz8hy5b.sdf

>  <i_m_source_file_index>  (336) 
31

>  <i_lp_mmshare_version>  (336) 
48012

>  <i_f3d_flags>  (336) 
0

>  <s_epik_input>  (336) 
W2NIXTFbY0hdW2NIXW5jKGMxMiluKFtjSF1uMilbQ0BIXShbQ0gzXSlbQ0gyXW4zW2NIXW5ubjM=

>  <s_epik_cmdline>  (336) 
J2VwaWtfcHl0aG9uJywgJy1waHQnLCAnMi4wJywgJy1waCcsICc3LjAnLCAnLXRuJywgJzgnLCAnLW1hJywgJzIwMCcsICctaW1hZScsICc8aW5maWxlLm1hZT4nLCAnLW9tYWUnLCAnPG91dGZpbGUubWFlPic=

>  <r_lp_tautomer_probability>  (336) 
1

>  <r_epik_Ionization_Penalty>  (336) 
0.000785793

>  <r_epik_Ionization_Penalty_Charging>  (336) 
0.000780824

>  <r_epik_Ionization_Penalty_Neutral>  (336) 
4.9692e-06

>  <r_epik_State_Penalty>  (336) 
0.000500582

>  <r_epik_Charging_Adjusted_Penalty>  (336) 
0.00128141

>  <i_epik_Tot_Q>  (336) 
0

>  <i_epik_Tot_abs_Q>  (336) 
0

>  <s_lp_Force_Field>  (336) 
OPLS3e

>  <r_lp_Energy>  (336) 
18.2369

>  <b_lp_Chiralities_Consistent>  (336) 
1

>  <s_lp_Variant>  (336) 
107:0-1

>  <s_i_glide_gridfile>  (336) 
pfpi4k_grid

>  <i_i_glide_lignum>  (336) 
31

>  <i_i_glide_rotatable_bonds>  (336) 
3

>  <r_i_docking_score>  (336) 
-3.28205

>  <r_i_glide_ligand_efficiency>  (336) 
-0.193062

>  <r_i_glide_ligand_efficiency_sa>  (336) 
-0.496416

>  <r_i_glide_ligand_efficiency_ln>  (336) 
-0.856214

>  <r_i_glide_gscore>  (336) 
-3.28205

>  <r_i_glide_lipo>  (336) 
-0.497635

>  <r_i_glide_hbond>  (336) 
0

>  <r_i_glide_metal>  (336) 
-0

>  <r_i_glide_rewards>  (336) 
-1.97285

>  <r_i_glide_evdw>  (336) 
-24.4796

>  <r_i_glide_ecoul>  (336) 
-1.6801

>  <r_i_glide_erotb>  (336) 
0.973824

>  <r_i_glide_esite>  (336) 
-0.30939

>  <r_i_glide_emodel>  (336) 
-31.1061

>  <r_i_glide_energy>  (336) 
-26.1597

>  <r_i_glide_einternal>  (336) 
2.54067

>  <r_i_glide_intrahb_reward>  (336) 
-0

>  <i_i_glide_confnum>  (336) 
5

>  <i_i_glide_posenum>  (336) 
8

>  <r_i_glide_eff_state_penalty>  (336) 
0

>  <ligand_id>  (336) 
107

>  <original_smiles>  (336) 
CC(Cn1cnnn1)n1cnc2cccnc21

>  <smiles>  (336) 
[H]c1nc2c(nc([H])n2C([H])(C([H])([H])[H])C([H])([H])n2nnnc2[H])c([H])c1[H]

$$$$
107:0:2
     RDKit          3D

 28 30  0  0  1  0  0  0  0  0999 V2000
    3.4094   -4.6342    2.8039 C   0  0  0  0  0  0  0  0  0  0  0  0
    3.0621   -4.7777    1.3036 C   0  0  2  0  0  0  0  0  0  0  0  0
    2.6132   -6.2012    0.9021 C   0  0  0  0  0  0  0  0  0  0  0  0
    1.4641   -6.6622    1.6646 N   0  0  0  0  0  0  0  0  0  0  0  0
    1.3552   -7.1011    2.9220 C   0  0  0  0  0  0  0  0  0  0  0  0
    0.0918   -7.3219    3.2507 N   0  0  0  0  0  0  0  0  0  0  0  0
   -0.5911   -7.0513    2.0775 N   0  0  0  0  0  0  0  0  0  0  0  0
    0.2166   -6.6564    1.1378 N   0  0  0  0  0  0  0  0  0  0  0  0
    4.1775   -4.3405    0.4676 N   0  0  0  0  0  0  0  0  0  0  0  0
    5.4905   -4.5995    0.6454 C   0  0  0  0  0  0  0  0  0  0  0  0
    6.3417   -4.0787   -0.2350 N   0  0  0  0  0  0  0  0  0  0  0  0
    5.4765   -3.4623   -1.1211 C   0  0  0  0  0  0  0  0  0  0  0  0
    5.7135   -2.7670   -2.3211 C   0  0  0  0  0  0  0  0  0  0  0  0
    4.6060   -2.2186   -3.0076 C   0  0  0  0  0  0  0  0  0  0  0  0
    3.3067   -2.4026   -2.4849 C   0  0  0  0  0  0  0  0  0  0  0  0
    3.0298   -3.0856   -1.3513 N   0  0  0  0  0  0  0  0  0  0  0  0
    4.1228   -3.5947   -0.7110 C   0  0  0  0  0  0  0  0  0  0  0  0
    2.5437   -4.7763    3.4467 H   0  0  0  0  0  0  0  0  0  0  0  0
    3.7798   -3.6358    3.0374 H   0  0  0  0  0  0  0  0  0  0  0  0
    4.1682   -5.3623    3.1014 H   0  0  0  0  0  0  0  0  0  0  0  0
    2.2334   -4.0976    1.0961 H   0  0  0  0  0  0  0  0  0  0  0  0
    2.3502   -6.2177   -0.1588 H   0  0  0  0  0  0  0  0  0  0  0  0
    3.4241   -6.9130    1.0408 H   0  0  0  0  0  0  0  0  0  0  0  0
    2.1810   -7.1941    3.6163 H   0  0  0  0  0  0  0  0  0  0  0  0
    5.8482   -5.1863    1.4864 H   0  0  0  0  0  0  0  0  0  0  0  0
    6.7223   -2.6787   -2.6992 H   0  0  0  0  0  0  0  0  0  0  0  0
    4.7395   -1.6643   -3.9213 H   0  0  0  0  0  0  0  0  0  0  0  0
    2.4443   -1.9946   -2.9954 H   0  0  0  0  0  0  0  0  0  0  0  0
  1  2  1  0
  1 18  1  0
  1 19  1  0
  1 20  1  0
  2  3  1  0
  2  9  1  0
  2 21  1  6
  3  4  1  0
  3 22  1  0
  3 23  1  0
  4  8  1  0
  4  5  1  0
  5  6  2  0
  5 24  1  0
  6  7  1  0
  7  8  2  0
  9 17  1  0
  9 10  1  0
 10 11  2  0
 10 25  1  0
 11 12  1  0
 12 17  2  0
 12 13  1  0
 13 14  2  0
 13 26  1  0
 14 15  1  0
 14 27  1  0
 15 16  2  0
 15 28  1  0
 16 17  1  0
M  END
>  <i_m_ct_stereo_status>  (337) 
1

>  <s_m_source_file>  (337) 
/var/tmp/pbs.5076255.sched01/tmpycp4azd_/132pnz8hy5b.sdf

>  <i_m_source_file_index>  (337) 
31

>  <i_lp_mmshare_version>  (337) 
48012

>  <i_f3d_flags>  (337) 
0

>  <s_epik_input>  (337) 
W2NIXTFbY0hdW2NIXW5jKGMxMiluKFtjSF1uMilbQ0BIXShbQ0gzXSlbQ0gyXW4zW2NIXW5ubjM=

>  <s_epik_cmdline>  (337) 
J2VwaWtfcHl0aG9uJywgJy1waHQnLCAnMi4wJywgJy1waCcsICc3LjAnLCAnLXRuJywgJzgnLCAnLW1hJywgJzIwMCcsICctaW1hZScsICc8aW5maWxlLm1hZT4nLCAnLW9tYWUnLCAnPG91dGZpbGUubWFlPic=

>  <r_lp_tautomer_probability>  (337) 
1

>  <r_epik_Ionization_Penalty>  (337) 
0.000785793

>  <r_epik_Ionization_Penalty_Charging>  (337) 
0.000780824

>  <r_epik_Ionization_Penalty_Neutral>  (337) 
4.9692e-06

>  <r_epik_State_Penalty>  (337) 
0.000500582

>  <r_epik_Charging_Adjusted_Penalty>  (337) 
0.00128141

>  <i_epik_Tot_Q>  (337) 
0

>  <i_epik_Tot_abs_Q>  (337) 
0

>  <s_lp_Force_Field>  (337) 
OPLS3e

>  <r_lp_Energy>  (337) 
18.2369

>  <b_lp_Chiralities_Consistent>  (337) 
1

>  <s_lp_Variant>  (337) 
107:0-1

>  <s_i_glide_gridfile>  (337) 
pfpi4k_grid

>  <i_i_glide_lignum>  (337) 
31

>  <i_i_glide_rotatable_bonds>  (337) 
3

>  <r_i_docking_score>  (337) 
-2.99463

>  <r_i_glide_ligand_efficiency>  (337) 
-0.176154

>  <r_i_glide_ligand_efficiency_sa>  (337) 
-0.452943

>  <r_i_glide_ligand_efficiency_ln>  (337) 
-0.781231

>  <r_i_glide_gscore>  (337) 
-2.99463

>  <r_i_glide_lipo>  (337) 
-0.265379

>  <r_i_glide_hbond>  (337) 
0

>  <r_i_glide_metal>  (337) 
-0

>  <r_i_glide_rewards>  (337) 
-1.98953

>  <r_i_glide_evdw>  (337) 
-23.3678

>  <r_i_glide_ecoul>  (337) 
-1.53376

>  <r_i_glide_erotb>  (337) 
0.973824

>  <r_i_glide_esite>  (337) 
-0.315091

>  <r_i_glide_emodel>  (337) 
-30.2343

>  <r_i_glide_energy>  (337) 
-24.9015

>  <r_i_glide_einternal>  (337) 
0.460091

>  <r_i_glide_intrahb_reward>  (337) 
-0

>  <i_i_glide_confnum>  (337) 
5

>  <i_i_glide_posenum>  (337) 
17

>  <r_i_glide_eff_state_penalty>  (337) 
0

>  <ligand_id>  (337) 
107

>  <original_smiles>  (337) 
CC(Cn1cnnn1)n1cnc2cccnc21

>  <smiles>  (337) 
[H]c1nc2c(nc([H])n2C([H])(C([H])([H])[H])C([H])([H])n2nnnc2[H])c([H])c1[H]

$$$$
108:0:0
     RDKit          3D

 62 68  0  0  1  0  0  0  0  0999 V2000
    5.0099  -10.4086    2.6100 C   0  0  0  0  0  0  0  0  0  0  0  0
    4.1999  -10.3979    3.9264 C   0  0  2  0  0  0  0  0  0  0  0  0
    2.7945  -11.0501    3.7040 C   0  0  0  0  0  0  0  0  0  0  0  0
    1.9085  -10.9825    4.9097 N   0  0  2  0  0  0  0  0  0  0  0  0
    0.6323  -11.7058    4.7301 C   0  0  0  0  0  0  0  0  0  0  0  0
    1.7939   -9.5558    5.3039 C   0  0  2  0  0  0  0  0  0  0  0  0
    3.2161   -9.0428    5.8076 C   0  0  2  0  0  0  0  0  0  0  0  0
    3.1853   -7.8119    6.8172 C   0  0  0  0  0  0  0  0  0  0  0  0
    1.8049   -7.9196    7.4712 C   0  0  1  0  0  0  0  0  0  0  0  0
    1.7074   -9.2979    8.1719 C   0  0  0  0  0  0  0  0  0  0  0  0
    0.3348   -9.3677    7.7157 C   0  0  1  0  0  0  0  0  0  0  0  0
   -0.0952   -8.1490    8.4571 O   0  0  0  0  0  0  0  0  0  0  0  0
    0.9825   -7.0924    8.4154 C   0  0  2  0  0  0  0  0  0  0  0  0
    0.6300   -5.6887    7.8173 C   0  0  0  0  0  0  0  0  0  0  0  0
    0.3799   -4.7216    8.7152 N   0  0  0  0  0  0  0  0  0  0  0  0
    0.1405   -3.4720    8.2678 C   0  0  0  0  0  0  0  0  0  0  0  0
    0.1134   -3.0911    6.9036 C   0  0  0  0  0  0  0  0  0  0  0  0
   -0.1844   -1.7042    6.4857 C   0  0  0  0  0  0  0  0  0  0  0  0
   -0.8791   -1.4481    5.2800 C   0  0  0  0  0  0  0  0  0  0  0  0
   -1.1675   -0.1362    4.8647 C   0  0  0  0  0  0  0  0  0  0  0  0
   -0.7648    0.9530    5.6525 C   0  0  0  0  0  0  0  0  0  0  0  0
   -1.0433    2.2193    5.2559 F   0  0  0  0  0  0  0  0  0  0  0  0
   -0.0764    0.7248    6.8568 C   0  0  0  0  0  0  0  0  0  0  0  0
    0.2139   -0.5916    7.2675 C   0  0  0  0  0  0  0  0  0  0  0  0
    0.3879   -4.1119    5.9632 C   0  0  0  0  0  0  0  0  0  0  0  0
    0.6537   -5.4276    6.3991 C   0  0  0  0  0  0  0  0  0  0  0  0
    0.8958   -6.5636    5.3852 C   0  0  0  0  0  0  0  0  0  0  0  0
    0.8320   -7.7811    6.2916 C   0  0  1  0  0  0  0  0  0  0  0  0
    0.5723   -9.1482    6.1464 N   0  0  0  0  0  0  0  0  0  0  0  0
    4.1400   -8.9691    4.5709 C   0  0  1  0  0  0  0  0  0  0  0  0
    5.5386   -8.4403    4.9448 C   0  0  0  0  0  0  0  0  0  0  0  0
    4.6036   -9.7167    1.8671 H   0  0  0  0  0  0  0  0  0  0  0  0
    5.0214  -11.4034    2.1602 H   0  0  0  0  0  0  0  0  0  0  0  0
    6.0559  -10.1434    2.7783 H   0  0  0  0  0  0  0  0  0  0  0  0
    4.7350  -11.0530    4.6175 H   0  0  0  0  0  0  0  0  0  0  0  0
    2.2969  -10.5588    2.8684 H   0  0  0  0  0  0  0  0  0  0  0  0
    2.9256  -12.0893    3.3992 H   0  0  0  0  0  0  0  0  0  0  0  0
    0.0008  -11.2404    3.9741 H   0  0  0  0  0  0  0  0  0  0  0  0
    0.0918  -11.7820    5.6751 H   0  0  0  0  0  0  0  0  0  0  0  0
    0.8327  -12.7279    4.4239 H   0  0  0  0  0  0  0  0  0  0  0  0
    1.5828   -9.0282    4.3742 H   0  0  0  0  0  0  0  0  0  0  0  0
    3.6705   -9.8475    6.3895 H   0  0  0  0  0  0  0  0  0  0  0  0
    3.9527   -7.9350    7.5819 H   0  0  0  0  0  0  0  0  0  0  0  0
    3.3786   -6.8504    6.3328 H   0  0  0  0  0  0  0  0  0  0  0  0
    2.2365  -10.1731    7.8216 H   0  0  0  0  0  0  0  0  0  0  0  0
    1.7803   -9.2665    9.2647 H   0  0  0  0  0  0  0  0  0  0  0  0
   -0.2058  -10.3019    7.8617 H   0  0  0  0  0  0  0  0  0  0  0  0
    1.4788   -6.9739    9.3788 H   0  0  0  0  0  0  0  0  0  0  0  0
   -0.0703   -2.7551    9.0479 H   0  0  0  0  0  0  0  0  0  0  0  0
   -1.1948   -2.2650    4.6542 H   0  0  0  0  0  0  0  0  0  0  0  0
   -1.6899    0.0363    3.9348 H   0  0  0  0  0  0  0  0  0  0  0  0
    0.2391    1.5621    7.4613 H   0  0  0  0  0  0  0  0  0  0  0  0
    0.7589   -0.7345    8.1897 H   0  0  0  0  0  0  0  0  0  0  0  0
    0.3922   -3.8909    4.9037 H   0  0  0  0  0  0  0  0  0  0  0  0
    0.1083   -6.5631    4.6300 H   0  0  0  0  0  0  0  0  0  0  0  0
    1.8504   -6.4455    4.8721 H   0  0  0  0  0  0  0  0  0  0  0  0
   -0.2248   -7.5782    6.4752 H   0  0  0  0  0  0  0  0  0  0  0  0
    3.7000   -8.2762    3.8526 H   0  0  0  0  0  0  0  0  0  0  0  0
    6.0386   -9.1075    5.6458 H   0  0  0  0  0  0  0  0  0  0  0  0
    5.4751   -7.4568    5.4052 H   0  0  0  0  0  0  0  0  0  0  0  0
    6.1736   -8.3297    4.0688 H   0  0  0  0  0  0  0  0  0  0  0  0
    2.3689  -11.4715    5.6649 H   0  0  0  0  0  0  0  0  0  0  0  0
  1  2  1  0
  1 32  1  0
  1 33  1  0
  1 34  1  0
  2 30  1  0
  2  3  1  0
  2 35  1  1
  3  4  1  0
  3 36  1  0
  3 37  1  0
  4  5  1  0
  4  6  1  0
  4 62  1  1
  5 38  1  0
  5 39  1  0
  5 40  1  0
  6 29  1  0
  6  7  1  0
  6 41  1  6
  7  8  1  0
  7 30  1  0
  7 42  1  1
  9  8  1  6
  8 43  1  0
  8 44  1  0
  9 13  1  0
  9 28  1  0
  9 10  1  0
 10 11  1  0
 10 45  1  0
 10 46  1  0
 11 29  1  0
 11 12  1  0
 11 47  1  6
 12 13  1  0
 13 14  1  0
 13 48  1  1
 14 26  2  0
 14 15  1  0
 15 16  2  0
 16 17  1  0
 16 49  1  0
 17 18  1  0
 17 25  2  0
 18 24  1  0
 18 19  2  0
 19 20  1  0
 19 50  1  0
 20 21  2  0
 20 51  1  0
 21 22  1  0
 21 23  1  0
 23 24  2  0
 23 52  1  0
 24 53  1  0
 25 26  1  0
 25 54  1  0
 26 27  1  0
 27 28  1  0
 27 55  1  0
 27 56  1  0
 28 29  1  0
 28 57  1  1
 30 31  1  0
 30 58  1  6
 31 59  1  0
 31 60  1  0
 31 61  1  0
M  CHG  1   4   1
M  END
>  <i_m_ct_stereo_status>  (338) 
1

>  <s_m_source_file>  (338) 
/var/tmp/pbs.5076255.sched01/tmpycp4azd_/132pnz8hy5b.sdf

>  <i_m_source_file_index>  (338) 
32

>  <i_lp_mmshare_version>  (338) 
48012

>  <i_f3d_flags>  (338) 
0

>  <s_epik_input>  (338) 
W0NIM11OMVtDSDJdW0NAQEhdKFtDSDNdKVtDQEhdKFtDSDNdKVtDQEBIXShbQ0gyXTIpW0NAQEhdMU4oW0NASF0oTzMpW0NIMl00KVtDQEBIXTVbQ0gyXWMoYzZbQ0BASF0zW0NAQF0yNDUpW2NIXWMoW2NIXW42KS1jN1tjSF1bY0hdYyhGKVtjSF1bY0hdNw==

>  <s_epik_cmdline>  (338) 
J2VwaWtfcHl0aG9uJywgJy1waHQnLCAnMi4wJywgJy1waCcsICc3LjAnLCAnLXRuJywgJzgnLCAnLW1hJywgJzIwMCcsICctaW1hZScsICc8aW5maWxlLm1hZT4nLCAnLW9tYWUnLCAnPG91dGZpbGUubWFlPic=

>  <r_epik_Ionization_Penalty>  (338) 
0.0481713

>  <r_epik_Ionization_Penalty_Charging>  (338) 
0.00613404

>  <r_epik_Ionization_Penalty_Neutral>  (338) 
0.0420373

>  <r_epik_State_Penalty>  (338) 
0.0354833

>  <r_epik_Charging_Adjusted_Penalty>  (338) 
0.0416174

>  <i_epik_Tot_Q>  (338) 
1

>  <i_epik_Tot_abs_Q>  (338) 
1

>  <s_epik_Chemistry_Notes>  (338) 
This compound contains an acetal/aminal-like group ( X-CH(R)-Y where X, Y are N, S, or O) that may be acid/base labile, releasing an aldehyde.

>  <s_lp_Force_Field>  (338) 
OPLS3e

>  <r_lp_Energy>  (338) 
189.245

>  <b_lp_Chiralities_Consistent>  (338) 
1

>  <s_lp_Variant>  (338) 
108:0-1

>  <s_i_glide_gridfile>  (338) 
pfpi4k_grid

>  <i_i_glide_lignum>  (338) 
32

>  <i_i_glide_rotatable_bonds>  (338) 
1

>  <r_i_docking_score>  (338) 
-2.57431

>  <r_i_glide_ligand_efficiency>  (338) 
-0.0830422

>  <r_i_glide_ligand_efficiency_sa>  (338) 
-0.260867

>  <r_i_glide_ligand_efficiency_ln>  (338) 
-0.580586

>  <r_i_glide_gscore>  (338) 
-2.57431

>  <r_i_glide_lipo>  (338) 
0

>  <r_i_glide_hbond>  (338) 
-0.0362372

>  <r_i_glide_metal>  (338) 
-0

>  <r_i_glide_rewards>  (338) 
-0.541757

>  <r_i_glide_evdw>  (338) 
-20.9298

>  <r_i_glide_ecoul>  (338) 
-5.85141

>  <r_i_glide_erotb>  (338) 
0.111918

>  <r_i_glide_esite>  (338) 
-0.184032

>  <r_i_glide_emodel>  (338) 
-32.8788

>  <r_i_glide_energy>  (338) 
-26.7812

>  <r_i_glide_einternal>  (338) 
0.0299343

>  <r_i_glide_intrahb_reward>  (338) 
-0

>  <i_i_glide_confnum>  (338) 
4

>  <i_i_glide_posenum>  (338) 
16

>  <r_i_glide_eff_state_penalty>  (338) 
0

>  <ligand_id>  (338) 
108

>  <original_smiles>  (338) 
CC1CN(C)C2C(CC34CC5OC3c3ncc(-c6ccc(F)cc6)cc3CC4N52)C1C

>  <smiles>  (338) 
[H]c1nc2c(c([H])c1-c1c([H])c([H])c(F)c([H])c1[H])C([H])([H])C1([H])N3C4([H])OC2([H])C1(C4([H])[H])C([H])([H])C1([H])C([H])(C([H])([H])[H])C([H])(C([H])([H])[H])C([H])([H])[N+]([H])(C([H])([H])[H])C31[H]

$$$$
108:0:1
     RDKit          3D

 62 68  0  0  1  0  0  0  0  0999 V2000
    5.6448  -10.2438    1.9976 C   0  0  0  0  0  0  0  0  0  0  0  0
    4.6445  -10.3722    3.1737 C   0  0  2  0  0  0  0  0  0  0  0  0
    3.2583  -10.9156    2.6910 C   0  0  0  0  0  0  0  0  0  0  0  0
    2.2127  -10.9602    3.7500 N   0  0  2  0  0  0  0  0  0  0  0  0
    0.9594  -11.6062    3.2877 C   0  0  0  0  0  0  0  0  0  0  0  0
    2.0866   -9.5907    4.3028 C   0  0  2  0  0  0  0  0  0  0  0  0
    3.4393   -9.2212    5.0609 C   0  0  2  0  0  0  0  0  0  0  0  0
    3.3021   -8.1273    6.2047 C   0  0  0  0  0  0  0  0  0  0  0  0
    1.8380   -8.2559    6.6433 C   0  0  1  0  0  0  0  0  0  0  0  0
    1.6132   -9.7046    7.1306 C   0  0  0  0  0  0  0  0  0  0  0  0
    0.3045   -9.6564    6.5020 C   0  0  1  0  0  0  0  0  0  0  0  0
   -0.1680   -8.5303    7.3438 O   0  0  0  0  0  0  0  0  0  0  0  0
    0.9219   -7.5201    7.5794 C   0  0  2  0  0  0  0  0  0  0  0  0
    0.6951   -6.0357    7.1279 C   0  0  0  0  0  0  0  0  0  0  0  0
    0.3424   -5.1826    8.1023 N   0  0  0  0  0  0  0  0  0  0  0  0
    0.2002   -3.8729    7.7930 C   0  0  0  0  0  0  0  0  0  0  0  0
    0.3851   -3.3250    6.5038 C   0  0  0  0  0  0  0  0  0  0  0  0
    0.1928   -1.8781    6.2345 C   0  0  0  0  0  0  0  0  0  0  0  0
    0.4730   -0.8962    7.2189 C   0  0  0  0  0  0  0  0  0  0  0  0
    0.2945    0.4764    6.9465 C   0  0  0  0  0  0  0  0  0  0  0  0
   -0.1641    0.8933    5.6837 C   0  0  0  0  0  0  0  0  0  0  0  0
   -0.3338    2.2107    5.4211 F   0  0  0  0  0  0  0  0  0  0  0  0
   -0.4474   -0.0672    4.6949 C   0  0  0  0  0  0  0  0  0  0  0  0
   -0.2733   -1.4368    4.9738 C   0  0  0  0  0  0  0  0  0  0  0  0
    0.7643   -4.2256    5.4795 C   0  0  0  0  0  0  0  0  0  0  0  0
    0.9245   -5.5955    5.7682 C   0  0  0  0  0  0  0  0  0  0  0  0
    1.2738   -6.6056    4.6590 C   0  0  0  0  0  0  0  0  0  0  0  0
    1.0289   -7.9212    5.3805 C   0  0  1  0  0  0  0  0  0  0  0  0
    0.7719   -9.2483    5.0221 N   0  0  0  0  0  0  0  0  0  0  0  0
    4.5311   -9.0360    3.9850 C   0  0  1  0  0  0  0  0  0  0  0  0
    5.8774   -8.6310    4.6173 C   0  0  0  0  0  0  0  0  0  0  0  0
    5.3600   -9.4523    1.2985 H   0  0  0  0  0  0  0  0  0  0  0  0
    5.7582  -11.1662    1.4289 H   0  0  0  0  0  0  0  0  0  0  0  0
    6.6547  -10.0351    2.3515 H   0  0  0  0  0  0  0  0  0  0  0  0
    5.0515  -11.1382    3.8369 H   0  0  0  0  0  0  0  0  0  0  0  0
    2.9032  -10.3169    1.8511 H   0  0  0  0  0  0  0  0  0  0  0  0
    3.3760  -11.9362    2.3392 H   0  0  0  0  0  0  0  0  0  0  0  0
    0.4492  -11.0167    2.5287 H   0  0  0  0  0  0  0  0  0  0  0  0
    0.2821  -11.7929    4.1218 H   0  0  0  0  0  0  0  0  0  0  0  0
    1.1655  -12.5775    2.8415 H   0  0  0  0  0  0  0  0  0  0  0  0
    2.0264   -8.9425    3.4272 H   0  0  0  0  0  0  0  0  0  0  0  0
    3.7883  -10.1165    5.5839 H   0  0  0  0  0  0  0  0  0  0  0  0
    3.9399   -8.3894    7.0462 H   0  0  0  0  0  0  0  0  0  0  0  0
    3.5951   -7.1242    5.8893 H   0  0  0  0  0  0  0  0  0  0  0  0
    2.1775  -10.5391    6.7395 H   0  0  0  0  0  0  0  0  0  0  0  0
    1.5302   -9.8260    8.2175 H   0  0  0  0  0  0  0  0  0  0  0  0
   -0.3026  -10.5689    6.4521 H   0  0  0  0  0  0  0  0  0  0  0  0
    1.2930   -7.5451    8.6067 H   0  0  0  0  0  0  0  0  0  0  0  0
   -0.0960   -3.2545    8.6255 H   0  0  0  0  0  0  0  0  0  0  0  0
    0.8497   -1.1793    8.1903 H   0  0  0  0  0  0  0  0  0  0  0  0
    0.5217    1.2122    7.7040 H   0  0  0  0  0  0  0  0  0  0  0  0
   -0.7913    0.2460    3.7210 H   0  0  0  0  0  0  0  0  0  0  0  0
   -0.4995   -2.1486    4.1951 H   0  0  0  0  0  0  0  0  0  0  0  0
    0.9329   -3.8725    4.4713 H   0  0  0  0  0  0  0  0  0  0  0  0
    0.6069   -6.4643    3.8065 H   0  0  0  0  0  0  0  0  0  0  0  0
    2.2977   -6.4708    4.3031 H   0  0  0  0  0  0  0  0  0  0  0  0
   -0.0418   -7.6982    5.4536 H   0  0  0  0  0  0  0  0  0  0  0  0
    4.2205   -8.2369    3.3105 H   0  0  0  0  0  0  0  0  0  0  0  0
    6.2509   -9.4063    5.2847 H   0  0  0  0  0  0  0  0  0  0  0  0
    5.7784   -7.7126    5.1908 H   0  0  0  0  0  0  0  0  0  0  0  0
    6.6348   -8.4399    3.8609 H   0  0  0  0  0  0  0  0  0  0  0  0
    2.5694  -11.5626    4.4808 H   0  0  0  0  0  0  0  0  0  0  0  0
  1  2  1  0
  1 32  1  0
  1 33  1  0
  1 34  1  0
  2 30  1  0
  2  3  1  0
  2 35  1  1
  3  4  1  0
  3 36  1  0
  3 37  1  0
  4  5  1  0
  4  6  1  0
  4 62  1  1
  5 38  1  0
  5 39  1  0
  5 40  1  0
  6 29  1  0
  6  7  1  0
  6 41  1  6
  7  8  1  0
  7 30  1  0
  7 42  1  1
  9  8  1  6
  8 43  1  0
  8 44  1  0
  9 13  1  0
  9 28  1  0
  9 10  1  0
 10 11  1  0
 10 45  1  0
 10 46  1  0
 11 29  1  0
 11 12  1  0
 11 47  1  6
 12 13  1  0
 13 14  1  0
 13 48  1  1
 14 26  2  0
 14 15  1  0
 15 16  2  0
 16 17  1  0
 16 49  1  0
 17 18  1  0
 17 25  2  0
 18 24  1  0
 18 19  2  0
 19 20  1  0
 19 50  1  0
 20 21  2  0
 20 51  1  0
 21 22  1  0
 21 23  1  0
 23 24  2  0
 23 52  1  0
 24 53  1  0
 25 26  1  0
 25 54  1  0
 26 27  1  0
 27 28  1  0
 27 55  1  0
 27 56  1  0
 28 29  1  0
 28 57  1  1
 30 31  1  0
 30 58  1  6
 31 59  1  0
 31 60  1  0
 31 61  1  0
M  CHG  1   4   1
M  END
>  <i_m_ct_stereo_status>  (339) 
1

>  <s_m_source_file>  (339) 
/var/tmp/pbs.5076255.sched01/tmpycp4azd_/132pnz8hy5b.sdf

>  <i_m_source_file_index>  (339) 
32

>  <i_lp_mmshare_version>  (339) 
48012

>  <i_f3d_flags>  (339) 
0

>  <s_epik_input>  (339) 
W0NIM11OMVtDSDJdW0NAQEhdKFtDSDNdKVtDQEhdKFtDSDNdKVtDQEBIXShbQ0gyXTIpW0NAQEhdMU4oW0NASF0oTzMpW0NIMl00KVtDQEBIXTVbQ0gyXWMoYzZbQ0BASF0zW0NAQF0yNDUpW2NIXWMoW2NIXW42KS1jN1tjSF1bY0hdYyhGKVtjSF1bY0hdNw==

>  <s_epik_cmdline>  (339) 
J2VwaWtfcHl0aG9uJywgJy1waHQnLCAnMi4wJywgJy1waCcsICc3LjAnLCAnLXRuJywgJzgnLCAnLW1hJywgJzIwMCcsICctaW1hZScsICc8aW5maWxlLm1hZT4nLCAnLW9tYWUnLCAnPG91dGZpbGUubWFlPic=

>  <r_epik_Ionization_Penalty>  (339) 
0.0481713

>  <r_epik_Ionization_Penalty_Charging>  (339) 
0.00613404

>  <r_epik_Ionization_Penalty_Neutral>  (339) 
0.0420373

>  <r_epik_State_Penalty>  (339) 
0.0354833

>  <r_epik_Charging_Adjusted_Penalty>  (339) 
0.0416174

>  <i_epik_Tot_Q>  (339) 
1

>  <i_epik_Tot_abs_Q>  (339) 
1

>  <s_epik_Chemistry_Notes>  (339) 
This compound contains an acetal/aminal-like group ( X-CH(R)-Y where X, Y are N, S, or O) that may be acid/base labile, releasing an aldehyde.

>  <s_lp_Force_Field>  (339) 
OPLS3e

>  <r_lp_Energy>  (339) 
189.245

>  <b_lp_Chiralities_Consistent>  (339) 
1

>  <s_lp_Variant>  (339) 
108:0-1

>  <s_i_glide_gridfile>  (339) 
pfpi4k_grid

>  <i_i_glide_lignum>  (339) 
32

>  <i_i_glide_rotatable_bonds>  (339) 
1

>  <r_i_docking_score>  (339) 
-2.5073

>  <r_i_glide_ligand_efficiency>  (339) 
-0.0808806

>  <r_i_glide_ligand_efficiency_sa>  (339) 
-0.254077

>  <r_i_glide_ligand_efficiency_ln>  (339) 
-0.565473

>  <r_i_glide_gscore>  (339) 
-2.5073

>  <r_i_glide_lipo>  (339) 
-0.115055

>  <r_i_glide_hbond>  (339) 
0

>  <r_i_glide_metal>  (339) 
-0

>  <r_i_glide_rewards>  (339) 
-0.541757

>  <r_i_glide_evdw>  (339) 
-18.4825

>  <r_i_glide_ecoul>  (339) 
-6.2829

>  <r_i_glide_erotb>  (339) 
0.111918

>  <r_i_glide_esite>  (339) 
-0.0958415

>  <r_i_glide_emodel>  (339) 
-30.6661

>  <r_i_glide_energy>  (339) 
-24.7654

>  <r_i_glide_einternal>  (339) 
0.00743365

>  <r_i_glide_intrahb_reward>  (339) 
-0

>  <i_i_glide_confnum>  (339) 
1

>  <i_i_glide_posenum>  (339) 
25

>  <r_i_glide_eff_state_penalty>  (339) 
0

>  <ligand_id>  (339) 
108

>  <original_smiles>  (339) 
CC1CN(C)C2C(CC34CC5OC3c3ncc(-c6ccc(F)cc6)cc3CC4N52)C1C

>  <smiles>  (339) 
[H]c1nc2c(c([H])c1-c1c([H])c([H])c(F)c([H])c1[H])C([H])([H])C1([H])N3C4([H])OC2([H])C1(C4([H])[H])C([H])([H])C1([H])C([H])(C([H])([H])[H])C([H])(C([H])([H])[H])C([H])([H])[N+]([H])(C([H])([H])[H])C31[H]

$$$$
108:0:2
     RDKit          3D

 62 68  0  0  1  0  0  0  0  0999 V2000
    5.1680   -9.2356    1.1487 C   0  0  0  0  0  0  0  0  0  0  0  0
    4.4117   -9.1778    2.4944 C   0  0  2  0  0  0  0  0  0  0  0  0
    3.0290   -9.9017    2.3722 C   0  0  0  0  0  0  0  0  0  0  0  0
    2.1935   -9.8046    3.6116 N   0  0  2  0  0  0  0  0  0  0  0  0
    0.9536  -10.6125    3.5263 C   0  0  0  0  0  0  0  0  0  0  0  0
    2.0248   -8.3603    3.9278 C   0  0  2  0  0  0  0  0  0  0  0  0
    3.4412   -7.7531    4.3353 C   0  0  2  0  0  0  0  0  0  0  0  0
    3.3964   -6.4690    5.2729 C   0  0  0  0  0  0  0  0  0  0  0  0
    2.0479   -6.5935    5.9908 C   0  0  1  0  0  0  0  0  0  0  0  0
    2.0423   -7.9313    6.7765 C   0  0  0  0  0  0  0  0  0  0  0  0
    0.6547   -8.0815    6.3929 C   0  0  1  0  0  0  0  0  0  0  0  0
    0.2153   -6.8324    7.0760 O   0  0  0  0  0  0  0  0  0  0  0  0
    1.2430   -5.7386    6.9245 C   0  0  2  0  0  0  0  0  0  0  0  0
    0.8011   -4.3910    6.2631 C   0  0  0  0  0  0  0  0  0  0  0  0
    0.5288   -3.3824    7.1118 N   0  0  0  0  0  0  0  0  0  0  0  0
    0.2196   -2.1728    6.6004 C   0  0  0  0  0  0  0  0  0  0  0  0
    0.1312   -1.8772    5.2192 C   0  0  0  0  0  0  0  0  0  0  0  0
   -0.2446   -0.5342    4.7242 C   0  0  0  0  0  0  0  0  0  0  0  0
   -1.0851    0.3224    5.4788 C   0  0  0  0  0  0  0  0  0  0  0  0
   -1.4434    1.5969    5.0008 C   0  0  0  0  0  0  0  0  0  0  0  0
   -0.9769    2.0408    3.7536 C   0  0  0  0  0  0  0  0  0  0  0  0
   -1.3293    3.2689    3.3008 F   0  0  0  0  0  0  0  0  0  0  0  0
   -0.1445    1.2089    2.9854 C   0  0  0  0  0  0  0  0  0  0  0  0
    0.2191   -0.0615    3.4721 C   0  0  0  0  0  0  0  0  0  0  0  0
    0.4237   -2.9427    4.3356 C   0  0  0  0  0  0  0  0  0  0  0  0
    0.7624   -4.2179    4.8339 C   0  0  0  0  0  0  0  0  0  0  0  0
    1.0116   -5.4042    3.8761 C   0  0  0  0  0  0  0  0  0  0  0  0
    1.0095   -6.5679    4.8537 C   0  0  1  0  0  0  0  0  0  0  0  0
    0.8194   -7.9567    4.7998 N   0  0  0  0  0  0  0  0  0  0  0  0
    4.3131   -7.7170    3.0582 C   0  0  1  0  0  0  0  0  0  0  0  0
    5.7015   -7.1063    3.3400 C   0  0  0  0  0  0  0  0  0  0  0  0
    4.7031   -8.6059    0.3857 H   0  0  0  0  0  0  0  0  0  0  0  0
    5.2092  -10.2558    0.7615 H   0  0  0  0  0  0  0  0  0  0  0  0
    6.2064   -8.9169    1.2560 H   0  0  0  0  0  0  0  0  0  0  0  0
    5.0030   -9.7668    3.1984 H   0  0  0  0  0  0  0  0  0  0  0  0
    2.4691   -9.4879    1.5337 H   0  0  0  0  0  0  0  0  0  0  0  0
    3.1938  -10.9518    2.1262 H   0  0  0  0  0  0  0  0  0  0  0  0
    0.2670  -10.2189    2.7783 H   0  0  0  0  0  0  0  0  0  0  0  0
    0.4451  -10.6590    4.4912 H   0  0  0  0  0  0  0  0  0  0  0  0
    1.1942  -11.6418    3.2527 H   0  0  0  0  0  0  0  0  0  0  0  0
    1.7496   -7.9047    2.9774 H   0  0  0  0  0  0  0  0  0  0  0  0
    3.9572   -8.4983    4.9436 H   0  0  0  0  0  0  0  0  0  0  0  0
    4.2011   -6.5098    6.0080 H   0  0  0  0  0  0  0  0  0  0  0  0
    3.5260   -5.5295    4.7304 H   0  0  0  0  0  0  0  0  0  0  0  0
    2.6003   -8.8000    6.4557 H   0  0  0  0  0  0  0  0  0  0  0  0
    2.1613   -7.8262    7.8605 H   0  0  0  0  0  0  0  0  0  0  0  0
    0.1335   -9.0100    6.6362 H   0  0  0  0  0  0  0  0  0  0  0  0
    1.7739   -5.5441    7.8556 H   0  0  0  0  0  0  0  0  0  0  0  0
    0.0295   -1.4130    7.3446 H   0  0  0  0  0  0  0  0  0  0  0  0
   -1.4701    0.0152    6.4359 H   0  0  0  0  0  0  0  0  0  0  0  0
   -2.0822    2.2364    5.5906 H   0  0  0  0  0  0  0  0  0  0  0  0
    0.2230    1.5432    2.0257 H   0  0  0  0  0  0  0  0  0  0  0  0
    0.8692   -0.6718    2.8650 H   0  0  0  0  0  0  0  0  0  0  0  0
    0.3503   -2.7989    3.2675 H   0  0  0  0  0  0  0  0  0  0  0  0
    0.2113   -5.4807    3.1439 H   0  0  0  0  0  0  0  0  0  0  0  0
    1.9399   -5.2802    3.3196 H   0  0  0  0  0  0  0  0  0  0  0  0
   -0.0528   -6.3977    5.0696 H   0  0  0  0  0  0  0  0  0  0  0  0
    3.8167   -7.0871    2.3193 H   0  0  0  0  0  0  0  0  0  0  0  0
    6.2624   -7.7054    4.0569 H   0  0  0  0  0  0  0  0  0  0  0  0
    5.6137   -6.0993    3.7434 H   0  0  0  0  0  0  0  0  0  0  0  0
    6.2966   -7.0216    2.4329 H   0  0  0  0  0  0  0  0  0  0  0  0
    2.7350  -10.2195    4.3573 H   0  0  0  0  0  0  0  0  0  0  0  0
  1  2  1  0
  1 32  1  0
  1 33  1  0
  1 34  1  0
  2 30  1  0
  2  3  1  0
  2 35  1  1
  3  4  1  0
  3 36  1  0
  3 37  1  0
  4  5  1  0
  4  6  1  0
  4 62  1  1
  5 38  1  0
  5 39  1  0
  5 40  1  0
  6 29  1  0
  6  7  1  0
  6 41  1  6
  7  8  1  0
  7 30  1  0
  7 42  1  1
  9  8  1  6
  8 43  1  0
  8 44  1  0
  9 13  1  0
  9 28  1  0
  9 10  1  0
 10 11  1  0
 10 45  1  0
 10 46  1  0
 11 29  1  0
 11 12  1  0
 11 47  1  6
 12 13  1  0
 13 14  1  0
 13 48  1  1
 14 26  2  0
 14 15  1  0
 15 16  2  0
 16 17  1  0
 16 49  1  0
 17 18  1  0
 17 25  2  0
 18 24  1  0
 18 19  2  0
 19 20  1  0
 19 50  1  0
 20 21  2  0
 20 51  1  0
 21 22  1  0
 21 23  1  0
 23 24  2  0
 23 52  1  0
 24 53  1  0
 25 26  1  0
 25 54  1  0
 26 27  1  0
 27 28  1  0
 27 55  1  0
 27 56  1  0
 28 29  1  0
 28 57  1  1
 30 31  1  0
 30 58  1  6
 31 59  1  0
 31 60  1  0
 31 61  1  0
M  CHG  1   4   1
M  END
>  <i_m_ct_stereo_status>  (340) 
1

>  <s_m_source_file>  (340) 
/var/tmp/pbs.5076255.sched01/tmpycp4azd_/132pnz8hy5b.sdf

>  <i_m_source_file_index>  (340) 
32

>  <i_lp_mmshare_version>  (340) 
48012

>  <i_f3d_flags>  (340) 
0

>  <s_epik_input>  (340) 
W0NIM11OMVtDSDJdW0NAQEhdKFtDSDNdKVtDQEhdKFtDSDNdKVtDQEBIXShbQ0gyXTIpW0NAQEhdMU4oW0NASF0oTzMpW0NIMl00KVtDQEBIXTVbQ0gyXWMoYzZbQ0BASF0zW0NAQF0yNDUpW2NIXWMoW2NIXW42KS1jN1tjSF1bY0hdYyhGKVtjSF1bY0hdNw==

>  <s_epik_cmdline>  (340) 
J2VwaWtfcHl0aG9uJywgJy1waHQnLCAnMi4wJywgJy1waCcsICc3LjAnLCAnLXRuJywgJzgnLCAnLW1hJywgJzIwMCcsICctaW1hZScsICc8aW5maWxlLm1hZT4nLCAnLW9tYWUnLCAnPG91dGZpbGUubWFlPic=

>  <r_epik_Ionization_Penalty>  (340) 
0.0481713

>  <r_epik_Ionization_Penalty_Charging>  (340) 
0.00613404

>  <r_epik_Ionization_Penalty_Neutral>  (340) 
0.0420373

>  <r_epik_State_Penalty>  (340) 
0.0354833

>  <r_epik_Charging_Adjusted_Penalty>  (340) 
0.0416174

>  <i_epik_Tot_Q>  (340) 
1

>  <i_epik_Tot_abs_Q>  (340) 
1

>  <s_epik_Chemistry_Notes>  (340) 
This compound contains an acetal/aminal-like group ( X-CH(R)-Y where X, Y are N, S, or O) that may be acid/base labile, releasing an aldehyde.

>  <s_lp_Force_Field>  (340) 
OPLS3e

>  <r_lp_Energy>  (340) 
189.245

>  <b_lp_Chiralities_Consistent>  (340) 
1

>  <s_lp_Variant>  (340) 
108:0-1

>  <s_i_glide_gridfile>  (340) 
pfpi4k_grid

>  <i_i_glide_lignum>  (340) 
32

>  <i_i_glide_rotatable_bonds>  (340) 
1

>  <r_i_docking_score>  (340) 
-2.38512

>  <r_i_glide_ligand_efficiency>  (340) 
-0.0769394

>  <r_i_glide_ligand_efficiency_sa>  (340) 
-0.241696

>  <r_i_glide_ligand_efficiency_ln>  (340) 
-0.537918

>  <r_i_glide_gscore>  (340) 
-2.38512

>  <r_i_glide_lipo>  (340) 
-0.137755

>  <r_i_glide_hbond>  (340) 
0

>  <r_i_glide_metal>  (340) 
-0

>  <r_i_glide_rewards>  (340) 
-0.541757

>  <r_i_glide_evdw>  (340) 
-22.7117

>  <r_i_glide_ecoul>  (340) 
-3.80037

>  <r_i_glide_erotb>  (340) 
0.111918

>  <r_i_glide_esite>  (340) 
-0.111886

>  <r_i_glide_emodel>  (340) 
-32.1191

>  <r_i_glide_energy>  (340) 
-26.5121

>  <r_i_glide_einternal>  (340) 
0.0156894

>  <r_i_glide_intrahb_reward>  (340) 
-0

>  <i_i_glide_confnum>  (340) 
2

>  <i_i_glide_posenum>  (340) 
35

>  <r_i_glide_eff_state_penalty>  (340) 
0

>  <ligand_id>  (340) 
108

>  <original_smiles>  (340) 
CC1CN(C)C2C(CC34CC5OC3c3ncc(-c6ccc(F)cc6)cc3CC4N52)C1C

>  <smiles>  (340) 
[H]c1nc2c(c([H])c1-c1c([H])c([H])c(F)c([H])c1[H])C([H])([H])C1([H])N3C4([H])OC2([H])C1(C4([H])[H])C([H])([H])C1([H])C([H])(C([H])([H])[H])C([H])(C([H])([H])[H])C([H])([H])[N+]([H])(C([H])([H])[H])C31[H]

$$$$
108:1:0
     RDKit          3D

 63 69  0  0  1  0  0  0  0  0999 V2000
    5.3015  -12.4972    3.4538 C   0  0  0  0  0  0  0  0  0  0  0  0
    4.4837  -11.3759    4.1311 C   0  0  2  0  0  0  0  0  0  0  0  0
    2.9526  -11.6720    3.9995 C   0  0  0  0  0  0  0  0  0  0  0  0
    2.0864  -10.5862    4.5555 N   0  0  2  0  0  0  0  0  0  0  0  0
    0.6497  -10.9456    4.5498 C   0  0  0  0  0  0  0  0  0  0  0  0
    2.4529   -9.3203    3.8617 C   0  0  2  0  0  0  0  0  0  0  0  0
    3.9406   -8.9181    4.2753 C   0  0  2  0  0  0  0  0  0  0  0  0
    4.2916   -7.3691    4.1663 C   0  0  0  0  0  0  0  0  0  0  0  0
    2.9285   -6.6832    4.2970 C   0  0  1  0  0  0  0  0  0  0  0  0
    2.3192   -7.0795    5.6673 C   0  0  0  0  0  0  0  0  0  0  0  0
    1.0312   -7.1496    5.0046 C   0  0  1  0  0  0  0  0  0  0  0  0
    1.0343   -5.7178    4.5922 O   0  0  0  0  0  0  0  0  0  0  0  0
    2.4171   -5.2792    4.1881 C   0  0  2  0  0  0  0  0  0  0  0  0
    2.6137   -4.6930    2.7540 C   0  0  0  0  0  0  0  0  0  0  0  0
    2.6790   -3.3505    2.6217 N   0  0  0  0  0  0  0  0  0  0  0  0
    2.8878   -2.7293    1.4394 C   0  0  0  0  0  0  0  0  0  0  0  0
    3.0659   -3.4737    0.2494 C   0  0  0  0  0  0  0  0  0  0  0  0
    3.2872   -2.7922   -1.0382 C   0  0  0  0  0  0  0  0  0  0  0  0
    2.6138   -3.2203   -2.2040 C   0  0  0  0  0  0  0  0  0  0  0  0
    2.8174   -2.5842   -3.4428 C   0  0  0  0  0  0  0  0  0  0  0  0
    3.6884   -1.4870   -3.5262 C   0  0  0  0  0  0  0  0  0  0  0  0
    3.8931   -0.8727   -4.7191 F   0  0  0  0  0  0  0  0  0  0  0  0
    4.3522   -1.0316   -2.3727 C   0  0  0  0  0  0  0  0  0  0  0  0
    4.1531   -1.6813   -1.1379 C   0  0  0  0  0  0  0  0  0  0  0  0
    3.0176   -4.8862    0.3420 C   0  0  0  0  0  0  0  0  0  0  0  0
    2.7907   -5.5203    1.5873 C   0  0  0  0  0  0  0  0  0  0  0  0
    2.6636   -7.0628    1.6886 C   0  0  0  0  0  0  0  0  0  0  0  0
    2.1193   -7.2217    3.1044 C   0  0  1  0  0  0  0  0  0  0  0  0
    1.4073   -8.1863    3.8361 N   0  0  0  0  0  0  0  0  0  0  0  0
    4.8954   -9.9482    3.6267 C   0  0  1  0  0  0  0  0  0  0  0  0
    6.3702   -9.6222    3.9390 C   0  0  0  0  0  0  0  0  0  0  0  0
    5.2182  -12.4658    2.3663 H   0  0  0  0  0  0  0  0  0  0  0  0
    4.9726  -13.4865    3.7791 H   0  0  0  0  0  0  0  0  0  0  0  0
    6.3609  -12.4251    3.7023 H   0  0  0  0  0  0  0  0  0  0  0  0
    4.7139  -11.4318    5.1971 H   0  0  0  0  0  0  0  0  0  0  0  0
    2.6973  -11.8293    2.9506 H   0  0  0  0  0  0  0  0  0  0  0  0
    2.7248  -12.6084    4.5113 H   0  0  0  0  0  0  0  0  0  0  0  0
    0.2570  -11.0313    3.5370 H   0  0  0  0  0  0  0  0  0  0  0  0
    0.0630  -10.2091    5.1017 H   0  0  0  0  0  0  0  0  0  0  0  0
    0.4990  -11.9019    5.0538 H   0  0  0  0  0  0  0  0  0  0  0  0
    2.4844   -9.5887    2.8048 H   0  0  0  0  0  0  0  0  0  0  0  0
    4.0565   -9.1362    5.3389 H   0  0  0  0  0  0  0  0  0  0  0  0
    4.9309   -7.0707    4.9981 H   0  0  0  0  0  0  0  0  0  0  0  0
    4.8352   -7.1119    3.2538 H   0  0  0  0  0  0  0  0  0  0  0  0
    2.5288   -8.0255    6.1495 H   0  0  0  0  0  0  0  0  0  0  0  0
    2.3511   -6.2931    6.4294 H   0  0  0  0  0  0  0  0  0  0  0  0
    0.1681   -7.5194    5.5640 H   0  0  0  0  0  0  0  0  0  0  0  0
    2.8792   -4.6270    4.9290 H   0  0  0  0  0  0  0  0  0  0  0  0
    2.8905   -1.6463    1.4667 H   0  0  0  0  0  0  0  0  0  0  0  0
    1.9248   -4.0488   -2.1609 H   0  0  0  0  0  0  0  0  0  0  0  0
    2.2931   -2.9374   -4.3195 H   0  0  0  0  0  0  0  0  0  0  0  0
    5.0093   -0.1785   -2.4289 H   0  0  0  0  0  0  0  0  0  0  0  0
    4.6694   -1.3159   -0.2645 H   0  0  0  0  0  0  0  0  0  0  0  0
    3.1501   -5.4784   -0.5511 H   0  0  0  0  0  0  0  0  0  0  0  0
    1.9734   -7.4421    0.9343 H   0  0  0  0  0  0  0  0  0  0  0  0
    3.6229   -7.5579    1.5306 H   0  0  0  0  0  0  0  0  0  0  0  0
    1.1881   -6.7329    2.7967 H   0  0  0  0  0  0  0  0  0  0  0  0
    4.7654   -9.9067    2.5442 H   0  0  0  0  0  0  0  0  0  0  0  0
    6.5715   -9.6733    5.0087 H   0  0  0  0  0  0  0  0  0  0  0  0
    6.6351   -8.6231    3.5979 H   0  0  0  0  0  0  0  0  0  0  0  0
    7.0488  -10.3068    3.4343 H   0  0  0  0  0  0  0  0  0  0  0  0
    2.3331  -10.5004    5.5314 H   0  0  0  0  0  0  0  0  0  0  0  0
    2.5640   -2.7721    3.4596 H   0  0  0  0  0  0  0  0  0  0  0  0
  1  2  1  0
  1 32  1  0
  1 33  1  0
  1 34  1  0
  2 30  1  0
  2  3  1  0
  2 35  1  1
  3  4  1  0
  3 36  1  0
  3 37  1  0
  4  5  1  0
  4  6  1  0
  4 62  1  1
  5 38  1  0
  5 39  1  0
  5 40  1  0
  6 29  1  0
  6  7  1  0
  6 41  1  6
  7  8  1  0
  7 30  1  0
  7 42  1  1
  9  8  1  1
  8 43  1  0
  8 44  1  0
  9 13  1  0
  9 28  1  0
  9 10  1  0
 10 11  1  0
 10 45  1  0
 10 46  1  0
 11 29  1  0
 11 12  1  0
 11 47  1  1
 12 13  1  0
 13 14  1  0
 13 48  1  1
 14 26  2  0
 14 15  1  0
 15 16  2  0
 15 63  1  0
 16 17  1  0
 16 49  1  0
 17 18  1  0
 17 25  2  0
 18 24  1  0
 18 19  2  0
 19 20  1  0
 19 50  1  0
 20 21  2  0
 20 51  1  0
 21 22  1  0
 21 23  1  0
 23 24  2  0
 23 52  1  0
 24 53  1  0
 25 26  1  0
 25 54  1  0
 26 27  1  0
 27 28  1  0
 27 55  1  0
 27 56  1  0
 28 29  1  0
 28 57  1  6
 30 31  1  0
 30 58  1  6
 31 59  1  0
 31 60  1  0
 31 61  1  0
M  CHG  2   4   1  15   1
M  END
>  <i_m_ct_stereo_status>  (341) 
1

>  <s_m_source_file>  (341) 
/var/tmp/pbs.5076255.sched01/tmpycp4azd_/132pnz8hy5b.sdf

>  <i_m_source_file_index>  (341) 
33

>  <i_lp_mmshare_version>  (341) 
48012

>  <i_f3d_flags>  (341) 
0

>  <s_epik_input>  (341) 
W0NIM11OMVtDSDJdW0NAQEhdKFtDSDNdKVtDQEhdKFtDSDNdKVtDQEBIXShbQ0gyXTIpW0NAQEhdMU4oW0NASF0oTzMpW0NIMl00KVtDQEBIXTVbQ0gyXWMoYzZbQ0BASF0zW0NAQF0yNDUpW2NIXWMoW2NIXW42KS1jN1tjSF1bY0hdYyhGKVtjSF1bY0hdNw==

>  <s_epik_cmdline>  (341) 
J2VwaWtfcHl0aG9uJywgJy1waHQnLCAnMi4wJywgJy1waCcsICc3LjAnLCAnLXRuJywgJzgnLCAnLW1hJywgJzIwMCcsICctaW1hZScsICc8aW5maWxlLm1hZT4nLCAnLW9tYWUnLCAnPG91dGZpbGUubWFlPic=

>  <r_epik_Ionization_Penalty>  (341) 
1.59602

>  <r_epik_Ionization_Penalty_Charging>  (341) 
1.59602

>  <r_epik_Ionization_Penalty_Neutral>  (341) 
1.01998e-11

>  <r_epik_State_Penalty>  (341) 
1.68566

>  <r_epik_Charging_Adjusted_Penalty>  (341) 
3.28168

>  <i_epik_Tot_Q>  (341) 
2

>  <i_epik_Tot_abs_Q>  (341) 
2

>  <s_epik_Chemistry_Notes>  (341) 
This compound contains an acetal/aminal-like group ( X-CH(R)-Y where X, Y are N, S, or O) that may be acid/base labile, releasing an aldehyde.

>  <s_lp_Force_Field>  (341) 
OPLS3e

>  <r_lp_Energy>  (341) 
196.126

>  <b_lp_Chiralities_Consistent>  (341) 
1

>  <s_lp_Variant>  (341) 
108:0-2

>  <s_i_glide_gridfile>  (341) 
pfpi4k_grid

>  <i_i_glide_lignum>  (341) 
33

>  <i_i_glide_rotatable_bonds>  (341) 
1

>  <r_i_docking_score>  (341) 
-3.53965

>  <r_i_glide_ligand_efficiency>  (341) 
-0.114182

>  <r_i_glide_ligand_efficiency_sa>  (341) 
-0.35869

>  <r_i_glide_ligand_efficiency_ln>  (341) 
-0.7983

>  <r_i_glide_gscore>  (341) 
-3.53965

>  <r_i_glide_lipo>  (341) 
-0.464123

>  <r_i_glide_hbond>  (341) 
0

>  <r_i_glide_metal>  (341) 
-0

>  <r_i_glide_rewards>  (341) 
-0.568689

>  <r_i_glide_evdw>  (341) 
-26.8377

>  <r_i_glide_ecoul>  (341) 
-8.17102

>  <r_i_glide_erotb>  (341) 
0.111435

>  <r_i_glide_esite>  (341) 
-0.0507375

>  <r_i_glide_emodel>  (341) 
-44.8278

>  <r_i_glide_energy>  (341) 
-35.0087

>  <r_i_glide_einternal>  (341) 
0.305923

>  <r_i_glide_intrahb_reward>  (341) 
-0

>  <i_i_glide_confnum>  (341) 
1

>  <i_i_glide_posenum>  (341) 
22

>  <r_i_glide_eff_state_penalty>  (341) 
0

>  <ligand_id>  (341) 
108

>  <original_smiles>  (341) 
CC1CN(C)C2C(CC34CC5OC3c3ncc(-c6ccc(F)cc6)cc3CC4N52)C1C

>  <smiles>  (341) 
[H]c1c([H])c(-c2c([H])c3c([n+]([H])c2[H])C2([H])OC4([H])N5C([H])(C3([H])[H])C2(C4([H])[H])C([H])([H])C2([H])C([H])(C([H])([H])[H])C([H])(C([H])([H])[H])C([H])([H])[N+]([H])(C([H])([H])[H])C52[H])c([H])c([H])c1F

$$$$
108:1:1
     RDKit          3D

 63 69  0  0  1  0  0  0  0  0999 V2000
    1.0783  -11.5205    3.5974 C   0  0  0  0  0  0  0  0  0  0  0  0
    1.7579  -10.3278    4.3035 C   0  0  2  0  0  0  0  0  0  0  0  0
    0.6937   -9.5017    5.0934 C   0  0  0  0  0  0  0  0  0  0  0  0
    1.2581   -8.2698    5.7275 N   0  0  2  0  0  0  0  0  0  0  0  0
    0.2713   -7.5711    6.5834 C   0  0  0  0  0  0  0  0  0  0  0  0
    1.8856   -7.4510    4.6551 C   0  0  2  0  0  0  0  0  0  0  0  0
    3.1531   -8.2361    4.0940 C   0  0  2  0  0  0  0  0  0  0  0  0
    4.2815   -7.3351    3.4266 C   0  0  0  0  0  0  0  0  0  0  0  0
    4.0873   -5.9706    4.0937 C   0  0  1  0  0  0  0  0  0  0  0  0
    4.2664   -6.1485    5.6229 C   0  0  0  0  0  0  0  0  0  0  0  0
    3.1829   -5.2009    5.7972 C   0  0  1  0  0  0  0  0  0  0  0  0
    3.8901   -4.0897    5.1042 O   0  0  0  0  0  0  0  0  0  0  0  0
    4.6744   -4.6034    3.9282 C   0  0  2  0  0  0  0  0  0  0  0  0
    4.3653   -4.0058    2.5222 C   0  0  0  0  0  0  0  0  0  0  0  0
    5.1953   -3.0572    2.0478 N   0  0  0  0  0  0  0  0  0  0  0  0
    5.0559   -2.4953    0.8295 C   0  0  0  0  0  0  0  0  0  0  0  0
    4.0070   -2.8811   -0.0448 C   0  0  0  0  0  0  0  0  0  0  0  0
    3.8571   -2.2562   -1.3773 C   0  0  0  0  0  0  0  0  0  0  0  0
    3.1772   -2.9124   -2.4283 C   0  0  0  0  0  0  0  0  0  0  0  0
    3.0176   -2.3207   -3.6926 C   0  0  0  0  0  0  0  0  0  0  0  0
    3.5438   -1.0421   -3.9340 C   0  0  0  0  0  0  0  0  0  0  0  0
    3.4233   -0.4595   -5.1486 F   0  0  0  0  0  0  0  0  0  0  0  0
    4.2163   -0.3692   -2.9085 C   0  0  0  0  0  0  0  0  0  0  0  0
    4.3780   -0.9688   -1.6455 C   0  0  0  0  0  0  0  0  0  0  0  0
    3.1114   -3.8809    0.4170 C   0  0  0  0  0  0  0  0  0  0  0  0
    3.2778   -4.4634    1.6961 C   0  0  0  0  0  0  0  0  0  0  0  0
    2.2666   -5.5064    2.2323 C   0  0  0  0  0  0  0  0  0  0  0  0
    2.6569   -5.5593    3.7034 C   0  0  1  0  0  0  0  0  0  0  0  0
    2.0595   -5.9414    4.9159 N   0  0  0  0  0  0  0  0  0  0  0  0
    2.6226   -9.4628    3.3197 C   0  0  1  0  0  0  0  0  0  0  0  0
    3.7779  -10.2677    2.7004 C   0  0  0  0  0  0  0  0  0  0  0  0
    0.4535  -11.2042    2.7584 H   0  0  0  0  0  0  0  0  0  0  0  0
    0.4497  -12.0893    4.2876 H   0  0  0  0  0  0  0  0  0  0  0  0
    1.8166  -12.2250    3.2102 H   0  0  0  0  0  0  0  0  0  0  0  0
    2.4273  -10.7586    5.0512 H   0  0  0  0  0  0  0  0  0  0  0  0
   -0.1211   -9.2191    4.4281 H   0  0  0  0  0  0  0  0  0  0  0  0
    0.2456  -10.1372    5.8601 H   0  0  0  0  0  0  0  0  0  0  0  0
   -0.5395   -7.1488    5.9905 H   0  0  0  0  0  0  0  0  0  0  0  0
    0.7422   -6.7727    7.1610 H   0  0  0  0  0  0  0  0  0  0  0  0
   -0.1570   -8.2688    7.3059 H   0  0  0  0  0  0  0  0  0  0  0  0
    1.1462   -7.4366    3.8537 H   0  0  0  0  0  0  0  0  0  0  0  0
    3.6588   -8.7017    4.9424 H   0  0  0  0  0  0  0  0  0  0  0  0
    5.2686   -7.7241    3.6784 H   0  0  0  0  0  0  0  0  0  0  0  0
    4.2304   -7.3138    2.3348 H   0  0  0  0  0  0  0  0  0  0  0  0
    4.0276   -7.0698    6.1363 H   0  0  0  0  0  0  0  0  0  0  0  0
    5.2149   -5.7694    6.0199 H   0  0  0  0  0  0  0  0  0  0  0  0
    2.8004   -5.0110    6.8029 H   0  0  0  0  0  0  0  0  0  0  0  0
    5.7488   -4.6006    4.1101 H   0  0  0  0  0  0  0  0  0  0  0  0
    5.8015   -1.7488    0.5916 H   0  0  0  0  0  0  0  0  0  0  0  0
    2.7521   -3.8876   -2.2839 H   0  0  0  0  0  0  0  0  0  0  0  0
    2.4899   -2.8619   -4.4646 H   0  0  0  0  0  0  0  0  0  0  0  0
    4.5968    0.6283   -3.0858 H   0  0  0  0  0  0  0  0  0  0  0  0
    4.8800   -0.3915   -0.8844 H   0  0  0  0  0  0  0  0  0  0  0  0
    2.2788   -4.1984   -0.1948 H   0  0  0  0  0  0  0  0  0  0  0  0
    1.2457   -5.1541    2.0957 H   0  0  0  0  0  0  0  0  0  0  0  0
    2.3597   -6.4607    1.7125 H   0  0  0  0  0  0  0  0  0  0  0  0
    2.3193   -4.5237    3.8301 H   0  0  0  0  0  0  0  0  0  0  0  0
    1.9880   -9.1141    2.5043 H   0  0  0  0  0  0  0  0  0  0  0  0
    4.4374  -10.6806    3.4629 H   0  0  0  0  0  0  0  0  0  0  0  0
    4.3776   -9.6596    2.0266 H   0  0  0  0  0  0  0  0  0  0  0  0
    3.3936  -11.0869    2.1018 H   0  0  0  0  0  0  0  0  0  0  0  0
    1.9921   -8.5827    6.3444 H   0  0  0  0  0  0  0  0  0  0  0  0
    5.9726   -2.7477    2.6397 H   0  0  0  0  0  0  0  0  0  0  0  0
  1  2  1  0
  1 32  1  0
  1 33  1  0
  1 34  1  0
  2 30  1  0
  2  3  1  0
  2 35  1  1
  3  4  1  0
  3 36  1  0
  3 37  1  0
  4  5  1  0
  4  6  1  0
  4 62  1  1
  5 38  1  0
  5 39  1  0
  5 40  1  0
  6 29  1  0
  6  7  1  0
  6 41  1  6
  7  8  1  0
  7 30  1  0
  7 42  1  1
  9  8  1  6
  8 43  1  0
  8 44  1  0
  9 13  1  0
  9 28  1  0
  9 10  1  0
 10 11  1  0
 10 45  1  0
 10 46  1  0
 11 29  1  0
 11 12  1  0
 11 47  1  1
 12 13  1  0
 13 14  1  0
 13 48  1  1
 14 26  2  0
 14 15  1  0
 15 16  2  0
 15 63  1  0
 16 17  1  0
 16 49  1  0
 17 18  1  0
 17 25  2  0
 18 24  1  0
 18 19  2  0
 19 20  1  0
 19 50  1  0
 20 21  2  0
 20 51  1  0
 21 22  1  0
 21 23  1  0
 23 24  2  0
 23 52  1  0
 24 53  1  0
 25 26  1  0
 25 54  1  0
 26 27  1  0
 27 28  1  0
 27 55  1  0
 27 56  1  0
 28 29  1  0
 28 57  1  1
 30 31  1  0
 30 58  1  6
 31 59  1  0
 31 60  1  0
 31 61  1  0
M  CHG  2   4   1  15   1
M  END
>  <i_m_ct_stereo_status>  (342) 
1

>  <s_m_source_file>  (342) 
/var/tmp/pbs.5076255.sched01/tmpycp4azd_/132pnz8hy5b.sdf

>  <i_m_source_file_index>  (342) 
33

>  <i_lp_mmshare_version>  (342) 
48012

>  <i_f3d_flags>  (342) 
0

>  <s_epik_input>  (342) 
W0NIM11OMVtDSDJdW0NAQEhdKFtDSDNdKVtDQEhdKFtDSDNdKVtDQEBIXShbQ0gyXTIpW0NAQEhdMU4oW0NASF0oTzMpW0NIMl00KVtDQEBIXTVbQ0gyXWMoYzZbQ0BASF0zW0NAQF0yNDUpW2NIXWMoW2NIXW42KS1jN1tjSF1bY0hdYyhGKVtjSF1bY0hdNw==

>  <s_epik_cmdline>  (342) 
J2VwaWtfcHl0aG9uJywgJy1waHQnLCAnMi4wJywgJy1waCcsICc3LjAnLCAnLXRuJywgJzgnLCAnLW1hJywgJzIwMCcsICctaW1hZScsICc8aW5maWxlLm1hZT4nLCAnLW9tYWUnLCAnPG91dGZpbGUubWFlPic=

>  <r_epik_Ionization_Penalty>  (342) 
1.59602

>  <r_epik_Ionization_Penalty_Charging>  (342) 
1.59602

>  <r_epik_Ionization_Penalty_Neutral>  (342) 
1.01998e-11

>  <r_epik_State_Penalty>  (342) 
1.68566

>  <r_epik_Charging_Adjusted_Penalty>  (342) 
3.28168

>  <i_epik_Tot_Q>  (342) 
2

>  <i_epik_Tot_abs_Q>  (342) 
2

>  <s_epik_Chemistry_Notes>  (342) 
This compound contains an acetal/aminal-like group ( X-CH(R)-Y where X, Y are N, S, or O) that may be acid/base labile, releasing an aldehyde.

>  <s_lp_Force_Field>  (342) 
OPLS3e

>  <r_lp_Energy>  (342) 
196.126

>  <b_lp_Chiralities_Consistent>  (342) 
1

>  <s_lp_Variant>  (342) 
108:0-2

>  <s_i_glide_gridfile>  (342) 
pfpi4k_grid

>  <i_i_glide_lignum>  (342) 
33

>  <i_i_glide_rotatable_bonds>  (342) 
1

>  <r_i_docking_score>  (342) 
-3.47701

>  <r_i_glide_ligand_efficiency>  (342) 
-0.112162

>  <r_i_glide_ligand_efficiency_sa>  (342) 
-0.352342

>  <r_i_glide_ligand_efficiency_ln>  (342) 
-0.784172

>  <r_i_glide_gscore>  (342) 
-3.47701

>  <r_i_glide_lipo>  (342) 
-0.790321

>  <r_i_glide_hbond>  (342) 
0

>  <r_i_glide_metal>  (342) 
-0

>  <r_i_glide_rewards>  (342) 
-0.655598

>  <r_i_glide_evdw>  (342) 
-26.5964

>  <r_i_glide_ecoul>  (342) 
-5.28162

>  <r_i_glide_erotb>  (342) 
0.111435

>  <r_i_glide_esite>  (342) 
-0.02046

>  <r_i_glide_emodel>  (342) 
-41.6248

>  <r_i_glide_energy>  (342) 
-31.878

>  <r_i_glide_einternal>  (342) 
0.0789268

>  <r_i_glide_intrahb_reward>  (342) 
-0

>  <i_i_glide_confnum>  (342) 
1

>  <i_i_glide_posenum>  (342) 
6

>  <r_i_glide_eff_state_penalty>  (342) 
0

>  <ligand_id>  (342) 
108

>  <original_smiles>  (342) 
CC1CN(C)C2C(CC34CC5OC3c3ncc(-c6ccc(F)cc6)cc3CC4N52)C1C

>  <smiles>  (342) 
[H]c1c([H])c(-c2c([H])c3c([n+]([H])c2[H])C2([H])OC4([H])N5C([H])(C3([H])[H])C2(C4([H])[H])C([H])([H])C2([H])C([H])(C([H])([H])[H])C([H])(C([H])([H])[H])C([H])([H])[N+]([H])(C([H])([H])[H])C52[H])c([H])c([H])c1F

$$$$
108:1:2
     RDKit          3D

 63 69  0  0  1  0  0  0  0  0999 V2000
    0.2497  -10.1614    4.7345 C   0  0  0  0  0  0  0  0  0  0  0  0
    1.6984   -9.6440    4.7939 C   0  0  2  0  0  0  0  0  0  0  0  0
    1.8476   -8.6217    5.9651 C   0  0  0  0  0  0  0  0  0  0  0  0
    3.2029   -7.9951    6.0331 N   0  0  2  0  0  0  0  0  0  0  0  0
    3.3688   -7.1326    7.2293 C   0  0  0  0  0  0  0  0  0  0  0  0
    3.4700   -7.3517    4.7190 C   0  0  2  0  0  0  0  0  0  0  0  0
    3.5976   -8.4928    3.6125 C   0  0  2  0  0  0  0  0  0  0  0  0
    4.4576   -8.1108    2.3296 C   0  0  0  0  0  0  0  0  0  0  0  0
    5.3982   -7.0186    2.8446 C   0  0  1  0  0  0  0  0  0  0  0  0
    6.2449   -7.6164    4.0006 C   0  0  0  0  0  0  0  0  0  0  0  0
    6.1164   -6.3381    4.6713 C   0  0  1  0  0  0  0  0  0  0  0  0
    6.7915   -5.5761    3.5882 O   0  0  0  0  0  0  0  0  0  0  0  0
    6.4104   -6.1017    2.2313 C   0  0  2  0  0  0  0  0  0  0  0  0
    5.7601   -5.1085    1.2152 C   0  0  0  0  0  0  0  0  0  0  0  0
    6.5599   -4.5781    0.2629 N   0  0  0  0  0  0  0  0  0  0  0  0
    6.1074   -3.7419   -0.6996 C   0  0  0  0  0  0  0  0  0  0  0  0
    4.7449   -3.3784   -0.7646 C   0  0  0  0  0  0  0  0  0  0  0  0
    4.2691   -2.4705   -1.8170 C   0  0  0  0  0  0  0  0  0  0  0  0
    4.6915   -1.1273   -1.8662 C   0  0  0  0  0  0  0  0  0  0  0  0
    4.2150   -0.2626   -2.8745 C   0  0  0  0  0  0  0  0  0  0  0  0
    3.3279   -0.7275   -3.8552 C   0  0  0  0  0  0  0  0  0  0  0  0
    2.8811    0.1086   -4.8228 F   0  0  0  0  0  0  0  0  0  0  0  0
    2.9037   -2.0675   -3.8145 C   0  0  0  0  0  0  0  0  0  0  0  0
    3.3685   -2.9202   -2.8046 C   0  0  0  0  0  0  0  0  0  0  0  0
    3.8636   -3.9123    0.2051 C   0  0  0  0  0  0  0  0  0  0  0  0
    4.3587   -4.7871    1.2106 C   0  0  0  0  0  0  0  0  0  0  0  0
    3.4336   -5.3135    2.3373 C   0  0  0  0  0  0  0  0  0  0  0  0
    4.4558   -5.8948    3.3112 C   0  0  1  0  0  0  0  0  0  0  0  0
    4.5120   -6.2200    4.6777 N   0  0  0  0  0  0  0  0  0  0  0  0
    2.1901   -9.0968    3.4106 C   0  0  1  0  0  0  0  0  0  0  0  0
    2.1990  -10.1898    2.3264 C   0  0  0  0  0  0  0  0  0  0  0  0
   -0.4573   -9.4067    4.3840 H   0  0  0  0  0  0  0  0  0  0  0  0
   -0.0852  -10.4979    5.7183 H   0  0  0  0  0  0  0  0  0  0  0  0
    0.1658  -11.0259    4.0750 H   0  0  0  0  0  0  0  0  0  0  0  0
    2.3169  -10.5047    5.0589 H   0  0  0  0  0  0  0  0  0  0  0  0
    1.0993   -7.8354    5.8638 H   0  0  0  0  0  0  0  0  0  0  0  0
    1.6308   -9.1250    6.9095 H   0  0  0  0  0  0  0  0  0  0  0  0
    2.7276   -6.2514    7.1849 H   0  0  0  0  0  0  0  0  0  0  0  0
    4.4064   -6.8122    7.3454 H   0  0  0  0  0  0  0  0  0  0  0  0
    3.1117   -7.6899    8.1331 H   0  0  0  0  0  0  0  0  0  0  0  0
    2.5574   -6.7972    4.4954 H   0  0  0  0  0  0  0  0  0  0  0  0
    4.1451   -9.3287    4.0553 H   0  0  0  0  0  0  0  0  0  0  0  0
    5.0434   -8.9726    2.0060 H   0  0  0  0  0  0  0  0  0  0  0  0
    3.8499   -7.8119    1.4712 H   0  0  0  0  0  0  0  0  0  0  0  0
    5.8817   -8.4029    4.6499 H   0  0  0  0  0  0  0  0  0  0  0  0
    7.2871   -7.8410    3.7392 H   0  0  0  0  0  0  0  0  0  0  0  0
    6.5004   -6.2292    5.6878 H   0  0  0  0  0  0  0  0  0  0  0  0
    7.2221   -6.6553    1.7632 H   0  0  0  0  0  0  0  0  0  0  0  0
    6.8475   -3.4023   -1.4152 H   0  0  0  0  0  0  0  0  0  0  0  0
    5.3688   -0.7506   -1.1139 H   0  0  0  0  0  0  0  0  0  0  0  0
    4.5258    0.7704   -2.8943 H   0  0  0  0  0  0  0  0  0  0  0  0
    2.2021   -2.4466   -4.5384 H   0  0  0  0  0  0  0  0  0  0  0  0
    3.0174   -3.9311   -2.7955 H   0  0  0  0  0  0  0  0  0  0  0  0
    2.8194   -3.6317    0.1837 H   0  0  0  0  0  0  0  0  0  0  0  0
    2.8667   -4.4922    2.7750 H   0  0  0  0  0  0  0  0  0  0  0  0
    2.7204   -6.0477    1.9617 H   0  0  0  0  0  0  0  0  0  0  0  0
    4.8422   -4.8874    3.5070 H   0  0  0  0  0  0  0  0  0  0  0  0
    1.5173   -8.3050    3.0823 H   0  0  0  0  0  0  0  0  0  0  0  0
    2.8344  -11.0307    2.6040 H   0  0  0  0  0  0  0  0  0  0  0  0
    2.5607   -9.8038    1.3753 H   0  0  0  0  0  0  0  0  0  0  0  0
    1.1966  -10.5697    2.1425 H   0  0  0  0  0  0  0  0  0  0  0  0
    3.8596   -8.7530    6.1433 H   0  0  0  0  0  0  0  0  0  0  0  0
    7.5480   -4.8370    0.2657 H   0  0  0  0  0  0  0  0  0  0  0  0
  1  2  1  0
  1 32  1  0
  1 33  1  0
  1 34  1  0
  2 30  1  0
  2  3  1  0
  2 35  1  1
  3  4  1  0
  3 36  1  0
  3 37  1  0
  4  5  1  0
  4  6  1  0
  4 62  1  1
  5 38  1  0
  5 39  1  0
  5 40  1  0
  6 29  1  0
  6  7  1  0
  6 41  1  6
  7  8  1  0
  7 30  1  0
  7 42  1  1
  9  8  1  6
  8 43  1  0
  8 44  1  0
  9 13  1  0
  9 28  1  0
  9 10  1  0
 10 11  1  0
 10 45  1  0
 10 46  1  0
 11 29  1  0
 11 12  1  0
 11 47  1  1
 12 13  1  0
 13 14  1  0
 13 48  1  6
 14 26  2  0
 14 15  1  0
 15 16  2  0
 15 63  1  0
 16 17  1  0
 16 49  1  0
 17 18  1  0
 17 25  2  0
 18 24  1  0
 18 19  2  0
 19 20  1  0
 19 50  1  0
 20 21  2  0
 20 51  1  0
 21 22  1  0
 21 23  1  0
 23 24  2  0
 23 52  1  0
 24 53  1  0
 25 26  1  0
 25 54  1  0
 26 27  1  0
 27 28  1  0
 27 55  1  0
 27 56  1  0
 28 29  1  0
 28 57  1  1
 30 31  1  0
 30 58  1  6
 31 59  1  0
 31 60  1  0
 31 61  1  0
M  CHG  2   4   1  15   1
M  END
>  <i_m_ct_stereo_status>  (343) 
1

>  <s_m_source_file>  (343) 
/var/tmp/pbs.5076255.sched01/tmpycp4azd_/132pnz8hy5b.sdf

>  <i_m_source_file_index>  (343) 
33

>  <i_lp_mmshare_version>  (343) 
48012

>  <i_f3d_flags>  (343) 
0

>  <s_epik_input>  (343) 
W0NIM11OMVtDSDJdW0NAQEhdKFtDSDNdKVtDQEhdKFtDSDNdKVtDQEBIXShbQ0gyXTIpW0NAQEhdMU4oW0NASF0oTzMpW0NIMl00KVtDQEBIXTVbQ0gyXWMoYzZbQ0BASF0zW0NAQF0yNDUpW2NIXWMoW2NIXW42KS1jN1tjSF1bY0hdYyhGKVtjSF1bY0hdNw==

>  <s_epik_cmdline>  (343) 
J2VwaWtfcHl0aG9uJywgJy1waHQnLCAnMi4wJywgJy1waCcsICc3LjAnLCAnLXRuJywgJzgnLCAnLW1hJywgJzIwMCcsICctaW1hZScsICc8aW5maWxlLm1hZT4nLCAnLW9tYWUnLCAnPG91dGZpbGUubWFlPic=

>  <r_epik_Ionization_Penalty>  (343) 
1.59602

>  <r_epik_Ionization_Penalty_Charging>  (343) 
1.59602

>  <r_epik_Ionization_Penalty_Neutral>  (343) 
1.01998e-11

>  <r_epik_State_Penalty>  (343) 
1.68566

>  <r_epik_Charging_Adjusted_Penalty>  (343) 
3.28168

>  <i_epik_Tot_Q>  (343) 
2

>  <i_epik_Tot_abs_Q>  (343) 
2

>  <s_epik_Chemistry_Notes>  (343) 
This compound contains an acetal/aminal-like group ( X-CH(R)-Y where X, Y are N, S, or O) that may be acid/base labile, releasing an aldehyde.

>  <s_lp_Force_Field>  (343) 
OPLS3e

>  <r_lp_Energy>  (343) 
196.126

>  <b_lp_Chiralities_Consistent>  (343) 
1

>  <s_lp_Variant>  (343) 
108:0-2

>  <s_i_glide_gridfile>  (343) 
pfpi4k_grid

>  <i_i_glide_lignum>  (343) 
33

>  <i_i_glide_rotatable_bonds>  (343) 
1

>  <r_i_docking_score>  (343) 
-3.35203

>  <r_i_glide_ligand_efficiency>  (343) 
-0.10813

>  <r_i_glide_ligand_efficiency_sa>  (343) 
-0.339678

>  <r_i_glide_ligand_efficiency_ln>  (343) 
-0.755986

>  <r_i_glide_gscore>  (343) 
-3.35203

>  <r_i_glide_lipo>  (343) 
-0.867065

>  <r_i_glide_hbond>  (343) 
0

>  <r_i_glide_metal>  (343) 
-0

>  <r_i_glide_rewards>  (343) 
-0.618224

>  <r_i_glide_evdw>  (343) 
-24.2716

>  <r_i_glide_ecoul>  (343) 
-5.08717

>  <r_i_glide_erotb>  (343) 
0.111435

>  <r_i_glide_esite>  (343) 
-0.00152698

>  <r_i_glide_emodel>  (343) 
-37.9828

>  <r_i_glide_energy>  (343) 
-29.3587

>  <r_i_glide_einternal>  (343) 
1.55388

>  <r_i_glide_intrahb_reward>  (343) 
-0

>  <i_i_glide_confnum>  (343) 
5

>  <i_i_glide_posenum>  (343) 
20

>  <r_i_glide_eff_state_penalty>  (343) 
0

>  <ligand_id>  (343) 
108

>  <original_smiles>  (343) 
CC1CN(C)C2C(CC34CC5OC3c3ncc(-c6ccc(F)cc6)cc3CC4N52)C1C

>  <smiles>  (343) 
[H]c1c([H])c(-c2c([H])c3c([n+]([H])c2[H])C2([H])OC4([H])N5C([H])(C3([H])[H])C2(C4([H])[H])C([H])([H])C2([H])C([H])(C([H])([H])[H])C([H])(C([H])([H])[H])C([H])([H])[N+]([H])(C([H])([H])[H])C52[H])c([H])c([H])c1F

$$$$
109:0:0
     RDKit          3D

 32 34  0  0  1  0  0  0  0  0999 V2000
    0.2026    1.7387    1.4927 N   0  0  0  0  0  0  0  0  0  0  0  0
   -0.0701    1.3911    2.7422 C   0  0  0  0  0  0  0  0  0  0  0  0
   -0.1770    0.2082    3.0754 O   0  0  0  0  0  0  0  0  0  0  0  0
   -0.2235    2.4489    3.5658 N   0  0  0  0  0  0  0  0  0  0  0  0
   -0.4781    2.5063    5.0197 C   0  0  1  0  0  0  0  0  0  0  0  0
   -1.7974    3.2759    5.3013 C   0  0  0  0  0  0  0  0  0  0  0  0
   -2.0613    3.3440    6.8259 C   0  0  2  0  0  0  0  0  0  0  0  0
   -0.9015    4.0959    7.5131 C   0  0  0  0  0  0  0  0  0  0  0  0
    0.4174    3.3406    7.2576 C   0  0  1  0  0  0  0  0  0  0  0  0
    0.3132    1.9165    7.8495 C   0  0  0  0  0  0  0  0  0  0  0  0
   -0.8515    1.1784    7.1639 C   0  0  1  0  0  0  0  0  0  0  0  0
   -2.1812    1.9154    7.4030 C   0  0  0  0  0  0  0  0  0  0  0  0
   -0.5907    1.0989    5.6656 C   0  0  0  0  0  0  0  0  0  0  0  0
    0.6777    3.2656    5.7302 C   0  0  0  0  0  0  0  0  0  0  0  0
    0.2281    1.0206    0.7760 H   0  0  0  0  0  0  0  0  0  0  0  0
    0.2159    2.7381    1.2250 H   0  0  0  0  0  0  0  0  0  0  0  0
   -0.1323    3.3544    3.1233 H   0  0  0  0  0  0  0  0  0  0  0  0
   -1.7467    4.2921    4.8969 H   0  0  0  0  0  0  0  0  0  0  0  0
   -2.6364    2.7920    4.7997 H   0  0  0  0  0  0  0  0  0  0  0  0
   -2.9882    3.8789    7.0156 H   0  0  0  0  0  0  0  0  0  0  0  0
   -0.8293    5.1126    7.1219 H   0  0  0  0  0  0  0  0  0  0  0  0
   -1.0930    4.1868    8.5843 H   0  0  0  0  0  0  0  0  0  0  0  0
    1.2374    3.8686    7.7459 H   0  0  0  0  0  0  0  0  0  0  0  0
    1.2423    1.3760    7.6714 H   0  0  0  0  0  0  0  0  0  0  0  0
    0.1614    1.9462    8.9280 H   0  0  0  0  0  0  0  0  0  0  0  0
   -0.9150    0.1622    7.5611 H   0  0  0  0  0  0  0  0  0  0  0  0
   -2.4224    1.9410    8.4654 H   0  0  0  0  0  0  0  0  0  0  0  0
   -2.9882    1.3862    6.9004 H   0  0  0  0  0  0  0  0  0  0  0  0
   -1.4117    0.5369    5.2101 H   0  0  0  0  0  0  0  0  0  0  0  0
    0.3337    0.5374    5.5171 H   0  0  0  0  0  0  0  0  0  0  0  0
    1.6338    2.7708    5.5461 H   0  0  0  0  0  0  0  0  0  0  0  0
    0.7858    4.2808    5.3361 H   0  0  0  0  0  0  0  0  0  0  0  0
  1  2  1  0
  1 15  1  0
  1 16  1  0
  2  3  2  0
  2  4  1  0
  5  4  1  6
  4 17  1  0
  5 13  1  0
  5 14  1  0
  5  6  1  0
  6  7  1  0
  6 18  1  0
  6 19  1  0
  7 12  1  0
  7  8  1  0
  7 20  1  6
  8  9  1  0
  8 21  1  0
  8 22  1  0
  9 10  1  0
  9 14  1  0
  9 23  1  1
 10 11  1  0
 10 24  1  0
 10 25  1  0
 11 12  1  0
 11 13  1  0
 11 26  1  1
 12 27  1  0
 12 28  1  0
 13 29  1  0
 13 30  1  0
 14 31  1  0
 14 32  1  0
M  END
>  <i_m_ct_stereo_status>  (344) 
1

>  <s_m_source_file>  (344) 
/var/tmp/pbs.5076255.sched01/tmpycp4azd_/132pnz8hy5b.sdf

>  <i_m_source_file_index>  (344) 
34

>  <i_lp_mmshare_version>  (344) 
48012

>  <i_f3d_flags>  (344) 
0

>  <s_epik_input>  (344) 
W05IMl1DKD1PKVtOSF1DMTJbQ0gyXVtDQEhdM1tDSDJdW0NAQEhdKFtDSDJdMilbQ0gyXVtDQEhdKFtDSDJdMylbQ0gyXTE=

>  <s_epik_cmdline>  (344) 
J2VwaWtfcHl0aG9uJywgJy1waHQnLCAnMi4wJywgJy1waCcsICc3LjAnLCAnLXRuJywgJzgnLCAnLW1hJywgJzIwMCcsICctaW1hZScsICc8aW5maWxlLm1hZT4nLCAnLW9tYWUnLCAnPG91dGZpbGUubWFlPic=

>  <r_lp_tautomer_probability>  (344) 
1

>  <r_epik_Ionization_Penalty>  (344) 
6.96699e-05

>  <r_epik_Ionization_Penalty_Charging>  (344) 
0

>  <r_epik_Ionization_Penalty_Neutral>  (344) 
6.96699e-05

>  <r_epik_State_Penalty>  (344) 
-0

>  <r_epik_Charging_Adjusted_Penalty>  (344) 
0

>  <i_epik_Tot_Q>  (344) 
0

>  <i_epik_Tot_abs_Q>  (344) 
0

>  <s_lp_Force_Field>  (344) 
OPLS3e

>  <r_lp_Energy>  (344) 
-10.554

>  <b_lp_Chiralities_Consistent>  (344) 
1

>  <s_lp_Variant>  (344) 
109:0-1

>  <s_i_glide_gridfile>  (344) 
pfpi4k_grid

>  <i_i_glide_lignum>  (344) 
34

>  <i_i_glide_rotatable_bonds>  (344) 
2

>  <r_i_docking_score>  (344) 
-3.81177

>  <r_i_glide_ligand_efficiency>  (344) 
-0.272269

>  <r_i_glide_ligand_efficiency_sa>  (344) 
-0.656207

>  <r_i_glide_ligand_efficiency_ln>  (344) 
-1.04746

>  <r_i_glide_gscore>  (344) 
-3.81177

>  <r_i_glide_lipo>  (344) 
-0.076245

>  <r_i_glide_hbond>  (344) 
-0.237112

>  <r_i_glide_metal>  (344) 
-0

>  <r_i_glide_rewards>  (344) 
-2.0845

>  <r_i_glide_evdw>  (344) 
-12.8533

>  <r_i_glide_ecoul>  (344) 
-3.91526

>  <r_i_glide_erotb>  (344) 
0

>  <r_i_glide_esite>  (344) 
-0.183952

>  <r_i_glide_emodel>  (344) 
-18.6072

>  <r_i_glide_energy>  (344) 
-16.7686

>  <r_i_glide_einternal>  (344) 
6.58462

>  <r_i_glide_intrahb_reward>  (344) 
-0

>  <i_i_glide_confnum>  (344) 
2

>  <i_i_glide_posenum>  (344) 
24

>  <r_i_glide_eff_state_penalty>  (344) 
0

>  <ligand_id>  (344) 
109

>  <original_smiles>  (344) 
NC(=O)NC12CC3CC(CC(C3)C1)C2

>  <smiles>  (344) 
[H]N([H])C(=O)N([H])C12C([H])([H])C3([H])C([H])([H])C([H])(C([H])([H])C([H])(C3([H])[H])C1([H])[H])C2([H])[H]

$$$$
109:0:1
     RDKit          3D

 32 34  0  0  1  0  0  0  0  0999 V2000
    0.1653    1.7293    1.5667 N   0  0  0  0  0  0  0  0  0  0  0  0
   -0.0894    1.4404    2.8277 C   0  0  0  0  0  0  0  0  0  0  0  0
   -0.1977    0.2821    3.2228 O   0  0  0  0  0  0  0  0  0  0  0  0
   -0.2057    2.5380    3.5910 N   0  0  0  0  0  0  0  0  0  0  0  0
   -0.4528    2.5820    5.0352 C   0  0  1  0  0  0  0  0  0  0  0  0
    0.7153    1.9215    5.8147 C   0  0  0  0  0  0  0  0  0  0  0  0
    0.4450    2.0039    7.3287 C   0  0  2  0  0  0  0  0  0  0  0  0
   -0.8725    1.2695    7.6537 C   0  0  0  0  0  0  0  0  0  0  0  0
   -2.0400    1.9522    6.9075 C   0  0  1  0  0  0  0  0  0  0  0  0
   -2.1420    3.4275    7.3425 C   0  0  0  0  0  0  0  0  0  0  0  0
   -0.8226    4.1476    6.9953 C   0  0  1  0  0  0  0  0  0  0  0  0
    0.3464    3.4852    7.7506 C   0  0  0  0  0  0  0  0  0  0  0  0
   -0.5647    4.0666    5.4750 C   0  0  0  0  0  0  0  0  0  0  0  0
   -1.7875    1.8754    5.3929 C   0  0  0  0  0  0  0  0  0  0  0  0
    0.1954    0.9913    0.8720 H   0  0  0  0  0  0  0  0  0  0  0  0
    0.2175    2.7148    1.2654 H   0  0  0  0  0  0  0  0  0  0  0  0
   -0.1043    3.4216    3.1149 H   0  0  0  0  0  0  0  0  0  0  0  0
    0.8383    0.8746    5.5342 H   0  0  0  0  0  0  0  0  0  0  0  0
    1.6596    2.4161    5.5744 H   0  0  0  0  0  0  0  0  0  0  0  0
    1.2655    1.5291    7.8670 H   0  0  0  0  0  0  0  0  0  0  0  0
   -0.7935    0.2297    7.3427 H   0  0  0  0  0  0  0  0  0  0  0  0
   -1.0516    1.2658    8.7283 H   0  0  0  0  0  0  0  0  0  0  0  0
   -2.9752    1.4448    7.1435 H   0  0  0  0  0  0  0  0  0  0  0  0
   -2.9804    3.9050    6.8336 H   0  0  0  0  0  0  0  0  0  0  0  0
   -2.3456    3.4980    8.4139 H   0  0  0  0  0  0  0  0  0  0  0  0
   -0.8928    5.1946    7.2983 H   0  0  0  0  0  0  0  0  0  0  0  0
    0.2025    3.5661    8.8292 H   0  0  0  0  0  0  0  0  0  0  0  0
    1.2819    4.0002    7.5220 H   0  0  0  0  0  0  0  0  0  0  0  0
    0.3525    4.6059    5.2232 H   0  0  0  0  0  0  0  0  0  0  0  0
   -1.3718    4.5624    4.9341 H   0  0  0  0  0  0  0  0  0  0  0  0
   -2.6064    2.3402    4.8466 H   0  0  0  0  0  0  0  0  0  0  0  0
   -1.7834    0.8242    5.1020 H   0  0  0  0  0  0  0  0  0  0  0  0
  1  2  1  0
  1 15  1  0
  1 16  1  0
  2  3  2  0
  2  4  1  0
  5  4  1  6
  4 17  1  0
  5 13  1  0
  5 14  1  0
  5  6  1  0
  6  7  1  0
  6 18  1  0
  6 19  1  0
  7 12  1  0
  7  8  1  0
  7 20  1  1
  8  9  1  0
  8 21  1  0
  8 22  1  0
  9 10  1  0
  9 14  1  0
  9 23  1  6
 10 11  1  0
 10 24  1  0
 10 25  1  0
 11 12  1  0
 11 13  1  0
 11 26  1  1
 12 27  1  0
 12 28  1  0
 13 29  1  0
 13 30  1  0
 14 31  1  0
 14 32  1  0
M  END
>  <i_m_ct_stereo_status>  (345) 
1

>  <s_m_source_file>  (345) 
/var/tmp/pbs.5076255.sched01/tmpycp4azd_/132pnz8hy5b.sdf

>  <i_m_source_file_index>  (345) 
34

>  <i_lp_mmshare_version>  (345) 
48012

>  <i_f3d_flags>  (345) 
0

>  <s_epik_input>  (345) 
W05IMl1DKD1PKVtOSF1DMTJbQ0gyXVtDQEhdM1tDSDJdW0NAQEhdKFtDSDJdMilbQ0gyXVtDQEhdKFtDSDJdMylbQ0gyXTE=

>  <s_epik_cmdline>  (345) 
J2VwaWtfcHl0aG9uJywgJy1waHQnLCAnMi4wJywgJy1waCcsICc3LjAnLCAnLXRuJywgJzgnLCAnLW1hJywgJzIwMCcsICctaW1hZScsICc8aW5maWxlLm1hZT4nLCAnLW9tYWUnLCAnPG91dGZpbGUubWFlPic=

>  <r_lp_tautomer_probability>  (345) 
1

>  <r_epik_Ionization_Penalty>  (345) 
6.96699e-05

>  <r_epik_Ionization_Penalty_Charging>  (345) 
0

>  <r_epik_Ionization_Penalty_Neutral>  (345) 
6.96699e-05

>  <r_epik_State_Penalty>  (345) 
-0

>  <r_epik_Charging_Adjusted_Penalty>  (345) 
0

>  <i_epik_Tot_Q>  (345) 
0

>  <i_epik_Tot_abs_Q>  (345) 
0

>  <s_lp_Force_Field>  (345) 
OPLS3e

>  <r_lp_Energy>  (345) 
-10.554

>  <b_lp_Chiralities_Consistent>  (345) 
1

>  <s_lp_Variant>  (345) 
109:0-1

>  <s_i_glide_gridfile>  (345) 
pfpi4k_grid

>  <i_i_glide_lignum>  (345) 
34

>  <i_i_glide_rotatable_bonds>  (345) 
2

>  <r_i_docking_score>  (345) 
-3.80945

>  <r_i_glide_ligand_efficiency>  (345) 
-0.272103

>  <r_i_glide_ligand_efficiency_sa>  (345) 
-0.655808

>  <r_i_glide_ligand_efficiency_ln>  (345) 
-1.04682

>  <r_i_glide_gscore>  (345) 
-3.80945

>  <r_i_glide_lipo>  (345) 
-0.0781722

>  <r_i_glide_hbond>  (345) 
-0.223659

>  <r_i_glide_metal>  (345) 
-0

>  <r_i_glide_rewards>  (345) 
-2.0845

>  <r_i_glide_evdw>  (345) 
-13.0286

>  <r_i_glide_ecoul>  (345) 
-3.92062

>  <r_i_glide_erotb>  (345) 
0

>  <r_i_glide_esite>  (345) 
-0.183593

>  <r_i_glide_emodel>  (345) 
-22.7156

>  <r_i_glide_energy>  (345) 
-16.9492

>  <r_i_glide_einternal>  (345) 
0.0691922

>  <r_i_glide_intrahb_reward>  (345) 
-0

>  <i_i_glide_confnum>  (345) 
2

>  <i_i_glide_posenum>  (345) 
13

>  <r_i_glide_eff_state_penalty>  (345) 
0

>  <ligand_id>  (345) 
109

>  <original_smiles>  (345) 
NC(=O)NC12CC3CC(CC(C3)C1)C2

>  <smiles>  (345) 
[H]N([H])C(=O)N([H])C12C([H])([H])C3([H])C([H])([H])C([H])(C([H])([H])C([H])(C3([H])[H])C1([H])[H])C2([H])[H]

$$$$
109:0:2
     RDKit          3D

 32 34  0  0  1  0  0  0  0  0999 V2000
    1.4450    0.5374    1.2809 N   0  0  0  0  0  0  0  0  0  0  0  0
    0.6238    0.9435    2.2329 C   0  0  0  0  0  0  0  0  0  0  0  0
   -0.5372    0.5503    2.3107 O   0  0  0  0  0  0  0  0  0  0  0  0
    1.2122    1.7833    3.0862 N   0  0  0  0  0  0  0  0  0  0  0  0
    0.5949    2.4056    4.2616 C   0  0  1  0  0  0  0  0  0  0  0  0
    0.1834    1.3292    5.3060 C   0  0  0  0  0  0  0  0  0  0  0  0
   -0.4248    2.0093    6.5448 C   0  0  2  0  0  0  0  0  0  0  0  0
   -1.6673    2.8226    6.1215 C   0  0  0  0  0  0  0  0  0  0  0  0
   -1.2440    3.9165    5.1182 C   0  0  1  0  0  0  0  0  0  0  0  0
   -0.1995    4.8487    5.7648 C   0  0  0  0  0  0  0  0  0  0  0  0
    1.0371    4.0195    6.1664 C   0  0  1  0  0  0  0  0  0  0  0  0
    0.6272    2.9368    7.1854 C   0  0  0  0  0  0  0  0  0  0  0  0
    1.6406    3.3473    4.9132 C   0  0  0  0  0  0  0  0  0  0  0  0
   -0.6437    3.2586    3.8660 C   0  0  0  0  0  0  0  0  0  0  0  0
    1.0627   -0.0691    0.5438 H   0  0  0  0  0  0  0  0  0  0  0  0
    2.3955    0.8637    1.2243 H   0  0  0  0  0  0  0  0  0  0  0  0
    2.1734    2.0389    2.9007 H   0  0  0  0  0  0  0  0  0  0  0  0
   -0.5506    0.6338    4.8991 H   0  0  0  0  0  0  0  0  0  0  0  0
    1.0486    0.7296    5.5943 H   0  0  0  0  0  0  0  0  0  0  0  0
   -0.7185    1.2473    7.2657 H   0  0  0  0  0  0  0  0  0  0  0  0
   -2.3999    2.1631    5.6562 H   0  0  0  0  0  0  0  0  0  0  0  0
   -2.1474    3.2662    6.9917 H   0  0  0  0  0  0  0  0  0  0  0  0
   -2.1191    4.4929    4.8229 H   0  0  0  0  0  0  0  0  0  0  0  0
    0.0891    5.6337    5.0653 H   0  0  0  0  0  0  0  0  0  0  0  0
   -0.6195    5.3431    6.6391 H   0  0  0  0  0  0  0  0  0  0  0  0
    1.7775    4.6793    6.6214 H   0  0  0  0  0  0  0  0  0  0  0  0
    0.2343    3.3972    8.0902 H   0  0  0  0  0  0  0  0  0  0  0  0
    1.5019    2.3574    7.4811 H   0  0  0  0  0  0  0  0  0  0  0  0
    2.5402    2.7924    5.1893 H   0  0  0  0  0  0  0  0  0  0  0  0
    1.9602    4.1127    4.2023 H   0  0  0  0  0  0  0  0  0  0  0  0
   -0.3602    4.0177    3.1348 H   0  0  0  0  0  0  0  0  0  0  0  0
   -1.4230    2.6603    3.3943 H   0  0  0  0  0  0  0  0  0  0  0  0
  1  2  1  0
  1 15  1  0
  1 16  1  0
  2  3  2  0
  2  4  1  0
  5  4  1  6
  4 17  1  0
  5 13  1  0
  5 14  1  0
  5  6  1  0
  6  7  1  0
  6 18  1  0
  6 19  1  0
  7 12  1  0
  7  8  1  0
  7 20  1  1
  8  9  1  0
  8 21  1  0
  8 22  1  0
  9 10  1  0
  9 14  1  0
  9 23  1  6
 10 11  1  0
 10 24  1  0
 10 25  1  0
 11 12  1  0
 11 13  1  0
 11 26  1  1
 12 27  1  0
 12 28  1  0
 13 29  1  0
 13 30  1  0
 14 31  1  0
 14 32  1  0
M  END
>  <i_m_ct_stereo_status>  (346) 
1

>  <s_m_source_file>  (346) 
/var/tmp/pbs.5076255.sched01/tmpycp4azd_/132pnz8hy5b.sdf

>  <i_m_source_file_index>  (346) 
34

>  <i_lp_mmshare_version>  (346) 
48012

>  <i_f3d_flags>  (346) 
0

>  <s_epik_input>  (346) 
W05IMl1DKD1PKVtOSF1DMTJbQ0gyXVtDQEhdM1tDSDJdW0NAQEhdKFtDSDJdMilbQ0gyXVtDQEhdKFtDSDJdMylbQ0gyXTE=

>  <s_epik_cmdline>  (346) 
J2VwaWtfcHl0aG9uJywgJy1waHQnLCAnMi4wJywgJy1waCcsICc3LjAnLCAnLXRuJywgJzgnLCAnLW1hJywgJzIwMCcsICctaW1hZScsICc8aW5maWxlLm1hZT4nLCAnLW9tYWUnLCAnPG91dGZpbGUubWFlPic=

>  <r_lp_tautomer_probability>  (346) 
1

>  <r_epik_Ionization_Penalty>  (346) 
6.96699e-05

>  <r_epik_Ionization_Penalty_Charging>  (346) 
0

>  <r_epik_Ionization_Penalty_Neutral>  (346) 
6.96699e-05

>  <r_epik_State_Penalty>  (346) 
-0

>  <r_epik_Charging_Adjusted_Penalty>  (346) 
0

>  <i_epik_Tot_Q>  (346) 
0

>  <i_epik_Tot_abs_Q>  (346) 
0

>  <s_lp_Force_Field>  (346) 
OPLS3e

>  <r_lp_Energy>  (346) 
-10.554

>  <b_lp_Chiralities_Consistent>  (346) 
1

>  <s_lp_Variant>  (346) 
109:0-1

>  <s_i_glide_gridfile>  (346) 
pfpi4k_grid

>  <i_i_glide_lignum>  (346) 
34

>  <i_i_glide_rotatable_bonds>  (346) 
2

>  <r_i_docking_score>  (346) 
-3.47712

>  <r_i_glide_ligand_efficiency>  (346) 
-0.248366

>  <r_i_glide_ligand_efficiency_sa>  (346) 
-0.598597

>  <r_i_glide_ligand_efficiency_ln>  (346) 
-0.9555

>  <r_i_glide_gscore>  (346) 
-3.47712

>  <r_i_glide_lipo>  (346) 
-0.0471748

>  <r_i_glide_hbond>  (346) 
-0.16266

>  <r_i_glide_metal>  (346) 
-0

>  <r_i_glide_rewards>  (346) 
-2.0845

>  <r_i_glide_evdw>  (346) 
-12.0344

>  <r_i_glide_ecoul>  (346) 
-2.74715

>  <r_i_glide_erotb>  (346) 
0

>  <r_i_glide_esite>  (346) 
-0.168993

>  <r_i_glide_emodel>  (346) 
-19.8944

>  <r_i_glide_energy>  (346) 
-14.7816

>  <r_i_glide_einternal>  (346) 
0.355223

>  <r_i_glide_intrahb_reward>  (346) 
-0

>  <i_i_glide_confnum>  (346) 
1

>  <i_i_glide_posenum>  (346) 
19

>  <r_i_glide_eff_state_penalty>  (346) 
0

>  <ligand_id>  (346) 
109

>  <original_smiles>  (346) 
NC(=O)NC12CC3CC(CC(C3)C1)C2

>  <smiles>  (346) 
[H]N([H])C(=O)N([H])C12C([H])([H])C3([H])C([H])([H])C([H])(C([H])([H])C([H])(C3([H])[H])C1([H])[H])C2([H])[H]

$$$$
111:0:0
     RDKit          3D

 39 42  0  0  1  0  0  0  0  0999 V2000
    3.6937   -4.3845    5.1316 C   0  0  0  0  0  0  0  0  0  0  0  0
    4.3968   -4.2300    3.7986 C   0  0  0  0  0  0  0  0  0  0  0  0
    4.7547   -5.3508    3.0262 C   0  0  0  0  0  0  0  0  0  0  0  0
    5.4200   -5.1363    1.8021 C   0  0  0  0  0  0  0  0  0  0  0  0
    5.7183   -3.8170    1.3998 C   0  0  0  0  0  0  0  0  0  0  0  0
    5.2854   -2.7621    2.2415 C   0  0  0  0  0  0  0  0  0  0  0  0
    4.6385   -2.9640    3.4072 N   0  0  0  0  0  0  0  0  0  0  0  0
    5.4088   -1.4385    1.9061 O   0  0  0  0  0  0  0  0  0  0  0  0
    6.4338   -1.0877    0.9970 C   0  0  0  0  0  0  0  0  0  0  0  0
    6.6944   -2.0497   -0.1726 C   0  0  2  0  0  0  0  0  0  0  0  0
    5.8633   -1.9377   -1.4637 C   0  0  1  0  0  0  0  0  0  0  0  0
    6.4048   -3.0712   -2.3410 C   0  0  0  0  0  0  0  0  0  0  0  0
    5.6840   -3.8219   -1.1928 C   0  0  2  0  0  0  0  0  0  0  0  0
    4.5496   -2.7843   -1.4749 C   0  0  0  0  0  0  0  0  0  0  0  0
    3.5136   -2.4710   -0.3847 C   0  0  0  0  0  0  0  0  0  0  0  0
    3.6685   -2.9231   -2.7606 C   0  0  0  0  0  0  0  0  0  0  0  0
    6.4829   -3.5450    0.1044 C   0  0  2  0  0  0  0  0  0  0  0  0
    7.8254   -4.3153    0.1523 C   0  0  0  0  0  0  0  0  0  0  0  0
    3.6612   -5.4283    5.4414 H   0  0  0  0  0  0  0  0  0  0  0  0
    2.6716   -4.0162    5.0582 H   0  0  0  0  0  0  0  0  0  0  0  0
    4.2072   -3.8161    5.9073 H   0  0  0  0  0  0  0  0  0  0  0  0
    4.5267   -6.3520    3.3636 H   0  0  0  0  0  0  0  0  0  0  0  0
    5.6958   -5.9837    1.1898 H   0  0  0  0  0  0  0  0  0  0  0  0
    6.2410   -0.0846    0.6178 H   0  0  0  0  0  0  0  0  0  0  0  0
    7.3481   -1.0425    1.5831 H   0  0  0  0  0  0  0  0  0  0  0  0
    7.7363   -1.8748   -0.4500 H   0  0  0  0  0  0  0  0  0  0  0  0
    5.7969   -0.9645   -1.9489 H   0  0  0  0  0  0  0  0  0  0  0  0
    6.0721   -3.1606   -3.3687 H   0  0  0  0  0  0  0  0  0  0  0  0
    7.4918   -3.1442   -2.3360 H   0  0  0  0  0  0  0  0  0  0  0  0
    5.4136   -4.8573   -1.4069 H   0  0  0  0  0  0  0  0  0  0  0  0
    2.5248   -2.2690   -0.7888 H   0  0  0  0  0  0  0  0  0  0  0  0
    3.7688   -1.5682    0.1692 H   0  0  0  0  0  0  0  0  0  0  0  0
    3.3860   -3.2992    0.3156 H   0  0  0  0  0  0  0  0  0  0  0  0
    2.8093   -3.5702   -2.5789 H   0  0  0  0  0  0  0  0  0  0  0  0
    4.1324   -3.3755   -3.6326 H   0  0  0  0  0  0  0  0  0  0  0  0
    3.2790   -1.9534   -3.0745 H   0  0  0  0  0  0  0  0  0  0  0  0
    8.4925   -4.0678   -0.6716 H   0  0  0  0  0  0  0  0  0  0  0  0
    7.6636   -5.3916    0.1111 H   0  0  0  0  0  0  0  0  0  0  0  0
    8.3609   -4.0923    1.0754 H   0  0  0  0  0  0  0  0  0  0  0  0
  1  2  1  0
  1 19  1  0
  1 20  1  0
  1 21  1  0
  2  7  1  0
  2  3  2  0
  3  4  1  0
  3 22  1  0
  4  5  2  0
  4 23  1  0
  5 17  1  0
  5  6  1  0
  6  7  2  0
  6  8  1  0
  8  9  1  0
  9 10  1  0
  9 24  1  0
  9 25  1  0
 10 17  1  0
 10 11  1  0
 10 26  1  6
 11 14  1  0
 11 12  1  0
 11 27  1  6
 12 13  1  0
 12 28  1  0
 12 29  1  0
 13 14  1  0
 13 17  1  0
 13 30  1  6
 14 15  1  0
 14 16  1  0
 15 31  1  0
 15 32  1  0
 15 33  1  0
 16 34  1  0
 16 35  1  0
 16 36  1  0
 17 18  1  6
 18 37  1  0
 18 38  1  0
 18 39  1  0
M  END
>  <i_m_ct_stereo_status>  (347) 
1

>  <s_m_source_file>  (347) 
/var/tmp/pbs.5076255.sched01/tmpycp4azd_/132pnz8hy5b.sdf

>  <i_m_source_file_index>  (347) 
36

>  <i_lp_mmshare_version>  (347) 
48012

>  <i_f3d_flags>  (347) 
0

>  <s_epik_input>  (347) 
W2NIXTFbY0hdYyhbQ0gzXSluYyhjMVtDQF0yM1tDSDNdKU9bQ0gyXVtDQEBIXTJbQ0BIXTRbQ0gyXVtDQEBIXTNDNChbQ0gzXSlbQ0gzXQ==

>  <s_epik_cmdline>  (347) 
J2VwaWtfcHl0aG9uJywgJy1waHQnLCAnMi4wJywgJy1waCcsICc3LjAnLCAnLXRuJywgJzgnLCAnLW1hJywgJzIwMCcsICctaW1hZScsICc8aW5maWxlLm1hZT4nLCAnLW9tYWUnLCAnPG91dGZpbGUubWFlPic=

>  <r_lp_tautomer_probability>  (347) 
1

>  <r_epik_Ionization_Penalty>  (347) 
0.00767268

>  <r_epik_Ionization_Penalty_Charging>  (347) 
0

>  <r_epik_Ionization_Penalty_Neutral>  (347) 
0.00767268

>  <r_epik_State_Penalty>  (347) 
0.005744

>  <r_epik_Charging_Adjusted_Penalty>  (347) 
0.005744

>  <i_epik_Tot_Q>  (347) 
0

>  <i_epik_Tot_abs_Q>  (347) 
0

>  <s_lp_Force_Field>  (347) 
OPLS3e

>  <r_lp_Energy>  (347) 
67.8051

>  <b_lp_Chiralities_Consistent>  (347) 
1

>  <s_lp_Variant>  (347) 
111:0-1

>  <s_i_glide_gridfile>  (347) 
pfpi4k_grid

>  <i_i_glide_lignum>  (347) 
36

>  <i_i_glide_rotatable_bonds>  (347) 
0

>  <r_i_docking_score>  (347) 
-3.21727

>  <r_i_glide_ligand_efficiency>  (347) 
-0.178737

>  <r_i_glide_ligand_efficiency_sa>  (347) 
-0.468424

>  <r_i_glide_ligand_efficiency_ln>  (347) 
-0.826982

>  <r_i_glide_gscore>  (347) 
-3.21727

>  <r_i_glide_lipo>  (347) 
-0.592207

>  <r_i_glide_hbond>  (347) 
0

>  <r_i_glide_metal>  (347) 
-0

>  <r_i_glide_rewards>  (347) 
-1.74993

>  <r_i_glide_evdw>  (347) 
-17.0025

>  <r_i_glide_ecoul>  (347) 
-0.166722

>  <r_i_glide_erotb>  (347) 
0

>  <r_i_glide_esite>  (347) 
0

>  <r_i_glide_emodel>  (347) 
-21.0927

>  <r_i_glide_energy>  (347) 
-17.1692

>  <r_i_glide_einternal>  (347) 
0

>  <r_i_glide_intrahb_reward>  (347) 
-0

>  <i_i_glide_confnum>  (347) 
1

>  <i_i_glide_posenum>  (347) 
29

>  <r_i_glide_eff_state_penalty>  (347) 
0

>  <ligand_id>  (347) 
111

>  <original_smiles>  (347) 
Cc1ccc2c(n1)OCC1C3CC(C3(C)C)C21C

>  <smiles>  (347) 
[H]c1c(C([H])([H])[H])nc2c(c1[H])C1(C([H])([H])[H])C([H])(C([H])([H])O2)C2([H])C([H])([H])C1([H])C2(C([H])([H])[H])C([H])([H])[H]

$$$$
111:0:1
     RDKit          3D

 39 42  0  0  1  0  0  0  0  0999 V2000
    1.3878   -5.3822    3.6385 C   0  0  0  0  0  0  0  0  0  0  0  0
    2.4392   -5.0196    2.6104 C   0  0  0  0  0  0  0  0  0  0  0  0
    3.1595   -6.0144    1.9209 C   0  0  0  0  0  0  0  0  0  0  0  0
    4.1379   -5.6066    0.9907 C   0  0  0  0  0  0  0  0  0  0  0  0
    4.3732   -4.2266    0.7968 C   0  0  0  0  0  0  0  0  0  0  0  0
    3.5668   -3.3149    1.5190 C   0  0  0  0  0  0  0  0  0  0  0  0
    2.6165   -3.7045    2.3968 N   0  0  0  0  0  0  0  0  0  0  0  0
    3.6169   -1.9563    1.3285 O   0  0  0  0  0  0  0  0  0  0  0  0
    4.8219   -1.4077    0.8265 C   0  0  0  0  0  0  0  0  0  0  0  0
    5.5551   -2.2150   -0.2601 C   0  0  2  0  0  0  0  0  0  0  0  0
    5.1587   -2.0625   -1.7424 C   0  0  1  0  0  0  0  0  0  0  0  0
    6.0902   -3.0432   -2.4602 C   0  0  0  0  0  0  0  0  0  0  0  0
    5.1446   -3.9711   -1.6612 C   0  0  2  0  0  0  0  0  0  0  0  0
    4.0322   -3.0333   -2.2309 C   0  0  0  0  0  0  0  0  0  0  0  0
    2.6716   -2.9456   -1.5228 C   0  0  0  0  0  0  0  0  0  0  0  0
    3.6254   -3.1291   -3.7364 C   0  0  0  0  0  0  0  0  0  0  0  0
    5.4617   -3.7465   -0.1633 C   0  0  2  0  0  0  0  0  0  0  0  0
    6.8105   -4.3786    0.2621 C   0  0  0  0  0  0  0  0  0  0  0  0
    1.3963   -6.4511    3.8541 H   0  0  0  0  0  0  0  0  0  0  0  0
    0.3997   -5.1127    3.2716 H   0  0  0  0  0  0  0  0  0  0  0  0
    1.5567   -4.8452    4.5732 H   0  0  0  0  0  0  0  0  0  0  0  0
    2.9742   -7.0620    2.1036 H   0  0  0  0  0  0  0  0  0  0  0  0
    4.6996   -6.3514    0.4453 H   0  0  0  0  0  0  0  0  0  0  0  0
    4.6379   -0.3934    0.4738 H   0  0  0  0  0  0  0  0  0  0  0  0
    5.4943   -1.3177    1.6766 H   0  0  0  0  0  0  0  0  0  0  0  0
    6.6000   -1.9009   -0.1828 H   0  0  0  0  0  0  0  0  0  0  0  0
    5.1313   -1.0565   -2.1610 H   0  0  0  0  0  0  0  0  0  0  0  0
    6.1022   -3.0643   -3.5365 H   0  0  0  0  0  0  0  0  0  0  0  0
    7.1278   -3.0032   -2.1275 H   0  0  0  0  0  0  0  0  0  0  0  0
    5.0798   -5.0008   -2.0107 H   0  0  0  0  0  0  0  0  0  0  0  0
    1.8296   -2.7980   -2.2033 H   0  0  0  0  0  0  0  0  0  0  0  0
    2.6373   -2.0898   -0.8518 H   0  0  0  0  0  0  0  0  0  0  0  0
    2.4490   -3.8513   -0.9543 H   0  0  0  0  0  0  0  0  0  0  0  0
    2.8384   -3.8697   -3.8823 H   0  0  0  0  0  0  0  0  0  0  0  0
    4.3927   -3.4484   -4.4368 H   0  0  0  0  0  0  0  0  0  0  0  0
    3.2358   -2.1765   -4.0974 H   0  0  0  0  0  0  0  0  0  0  0  0
    7.6626   -3.9841   -0.2888 H   0  0  0  0  0  0  0  0  0  0  0  0
    6.8069   -5.4553    0.1013 H   0  0  0  0  0  0  0  0  0  0  0  0
    7.0031   -4.1974    1.3206 H   0  0  0  0  0  0  0  0  0  0  0  0
  1  2  1  0
  1 19  1  0
  1 20  1  0
  1 21  1  0
  2  7  1  0
  2  3  2  0
  3  4  1  0
  3 22  1  0
  4  5  2  0
  4 23  1  0
  5 17  1  0
  5  6  1  0
  6  7  2  0
  6  8  1  0
  8  9  1  0
  9 10  1  0
  9 24  1  0
  9 25  1  0
 10 17  1  0
 10 11  1  0
 10 26  1  6
 11 14  1  0
 11 12  1  0
 11 27  1  6
 12 13  1  0
 12 28  1  0
 12 29  1  0
 13 14  1  0
 13 17  1  0
 13 30  1  6
 14 15  1  0
 14 16  1  0
 15 31  1  0
 15 32  1  0
 15 33  1  0
 16 34  1  0
 16 35  1  0
 16 36  1  0
 17 18  1  1
 18 37  1  0
 18 38  1  0
 18 39  1  0
M  END
>  <i_m_ct_stereo_status>  (348) 
1

>  <s_m_source_file>  (348) 
/var/tmp/pbs.5076255.sched01/tmpycp4azd_/132pnz8hy5b.sdf

>  <i_m_source_file_index>  (348) 
36

>  <i_lp_mmshare_version>  (348) 
48012

>  <i_f3d_flags>  (348) 
0

>  <s_epik_input>  (348) 
W2NIXTFbY0hdYyhbQ0gzXSluYyhjMVtDQF0yM1tDSDNdKU9bQ0gyXVtDQEBIXTJbQ0BIXTRbQ0gyXVtDQEBIXTNDNChbQ0gzXSlbQ0gzXQ==

>  <s_epik_cmdline>  (348) 
J2VwaWtfcHl0aG9uJywgJy1waHQnLCAnMi4wJywgJy1waCcsICc3LjAnLCAnLXRuJywgJzgnLCAnLW1hJywgJzIwMCcsICctaW1hZScsICc8aW5maWxlLm1hZT4nLCAnLW9tYWUnLCAnPG91dGZpbGUubWFlPic=

>  <r_lp_tautomer_probability>  (348) 
1

>  <r_epik_Ionization_Penalty>  (348) 
0.00767268

>  <r_epik_Ionization_Penalty_Charging>  (348) 
0

>  <r_epik_Ionization_Penalty_Neutral>  (348) 
0.00767268

>  <r_epik_State_Penalty>  (348) 
0.005744

>  <r_epik_Charging_Adjusted_Penalty>  (348) 
0.005744

>  <i_epik_Tot_Q>  (348) 
0

>  <i_epik_Tot_abs_Q>  (348) 
0

>  <s_lp_Force_Field>  (348) 
OPLS3e

>  <r_lp_Energy>  (348) 
67.8051

>  <b_lp_Chiralities_Consistent>  (348) 
1

>  <s_lp_Variant>  (348) 
111:0-1

>  <s_i_glide_gridfile>  (348) 
pfpi4k_grid

>  <i_i_glide_lignum>  (348) 
36

>  <i_i_glide_rotatable_bonds>  (348) 
0

>  <r_i_docking_score>  (348) 
-3.16979

>  <r_i_glide_ligand_efficiency>  (348) 
-0.176099

>  <r_i_glide_ligand_efficiency_sa>  (348) 
-0.461511

>  <r_i_glide_ligand_efficiency_ln>  (348) 
-0.814778

>  <r_i_glide_gscore>  (348) 
-3.16979

>  <r_i_glide_lipo>  (348) 
-0.669596

>  <r_i_glide_hbond>  (348) 
0

>  <r_i_glide_metal>  (348) 
-0

>  <r_i_glide_rewards>  (348) 
-1.74993

>  <r_i_glide_evdw>  (348) 
-19.1106

>  <r_i_glide_ecoul>  (348) 
1.36842

>  <r_i_glide_erotb>  (348) 
0

>  <r_i_glide_esite>  (348) 
0

>  <r_i_glide_emodel>  (348) 
-21.604

>  <r_i_glide_energy>  (348) 
-17.7422

>  <r_i_glide_einternal>  (348) 
0

>  <r_i_glide_intrahb_reward>  (348) 
-0

>  <i_i_glide_confnum>  (348) 
2

>  <i_i_glide_posenum>  (348) 
27

>  <r_i_glide_eff_state_penalty>  (348) 
0

>  <ligand_id>  (348) 
111

>  <original_smiles>  (348) 
Cc1ccc2c(n1)OCC1C3CC(C3(C)C)C21C

>  <smiles>  (348) 
[H]c1c(C([H])([H])[H])nc2c(c1[H])C1(C([H])([H])[H])C([H])(C([H])([H])O2)C2([H])C([H])([H])C1([H])C2(C([H])([H])[H])C([H])([H])[H]

$$$$
111:0:2
     RDKit          3D

 39 42  0  0  1  0  0  0  0  0999 V2000
    2.0657   -7.3124    3.0180 C   0  0  0  0  0  0  0  0  0  0  0  0
    2.7965   -6.3495    2.1045 C   0  0  0  0  0  0  0  0  0  0  0  0
    3.8471   -6.7871    1.2768 C   0  0  0  0  0  0  0  0  0  0  0  0
    4.5024   -5.8340    0.4661 C   0  0  0  0  0  0  0  0  0  0  0  0
    4.1063   -4.4788    0.5329 C   0  0  0  0  0  0  0  0  0  0  0  0
    3.0220   -4.1581    1.3867 C   0  0  0  0  0  0  0  0  0  0  0  0
    2.3709   -5.0718    2.1353 N   0  0  0  0  0  0  0  0  0  0  0  0
    2.4693   -2.9040    1.4546 O   0  0  0  0  0  0  0  0  0  0  0  0
    3.2856   -1.8047    1.0878 C   0  0  0  0  0  0  0  0  0  0  0  0
    4.2384   -2.0020   -0.1057 C   0  0  2  0  0  0  0  0  0  0  0  0
    3.7330   -1.7804   -1.5458 C   0  0  1  0  0  0  0  0  0  0  0  0
    4.9533   -2.1054   -2.4128 C   0  0  0  0  0  0  0  0  0  0  0  0
    4.5600   -3.4807   -1.8183 C   0  0  2  0  0  0  0  0  0  0  0  0
    3.1169   -3.0432   -2.2340 C   0  0  0  0  0  0  0  0  0  0  0  0
    1.8939   -3.6803   -1.5512 C   0  0  0  0  0  0  0  0  0  0  0  0
    2.7038   -3.0365   -3.7410 C   0  0  0  0  0  0  0  0  0  0  0  0
    4.8239   -3.4110   -0.2928 C   0  0  2  0  0  0  0  0  0  0  0  0
    6.3323   -3.4552    0.0509 C   0  0  0  0  0  0  0  0  0  0  0  0
    2.5524   -8.2868    3.0343 H   0  0  0  0  0  0  0  0  0  0  0  0
    1.0412   -7.4445    2.6745 H   0  0  0  0  0  0  0  0  0  0  0  0
    2.0376   -6.9324    4.0399 H   0  0  0  0  0  0  0  0  0  0  0  0
    4.1427   -7.8257    1.2569 H   0  0  0  0  0  0  0  0  0  0  0  0
    5.2987   -6.1504   -0.1912 H   0  0  0  0  0  0  0  0  0  0  0  0
    2.6563   -0.9287    0.9228 H   0  0  0  0  0  0  0  0  0  0  0  0
    3.8955   -1.5803    1.9625 H   0  0  0  0  0  0  0  0  0  0  0  0
    5.0423   -1.2797    0.0603 H   0  0  0  0  0  0  0  0  0  0  0  0
    3.2451   -0.8337   -1.7731 H   0  0  0  0  0  0  0  0  0  0  0  0
    4.9068   -1.9158   -3.4796 H   0  0  0  0  0  0  0  0  0  0  0  0
    5.8818   -1.6723   -2.0432 H   0  0  0  0  0  0  0  0  0  0  0  0
    4.9521   -4.3436   -2.3559 H   0  0  0  0  0  0  0  0  0  0  0  0
    1.0376   -3.7903   -2.2154 H   0  0  0  0  0  0  0  0  0  0  0  0
    1.5293   -3.0625   -0.7376 H   0  0  0  0  0  0  0  0  0  0  0  0
    2.1067   -4.6577   -1.1258 H   0  0  0  0  0  0  0  0  0  0  0  0
    2.3102   -4.0073   -4.0393 H   0  0  0  0  0  0  0  0  0  0  0  0
    3.4855   -2.8516   -4.4691 H   0  0  0  0  0  0  0  0  0  0  0  0
    1.9216   -2.3001   -3.9244 H   0  0  0  0  0  0  0  0  0  0  0  0
    6.8984   -2.6375   -0.3939 H   0  0  0  0  0  0  0  0  0  0  0  0
    6.7882   -4.3793   -0.3058 H   0  0  0  0  0  0  0  0  0  0  0  0
    6.4837   -3.4013    1.1319 H   0  0  0  0  0  0  0  0  0  0  0  0
  1  2  1  0
  1 19  1  0
  1 20  1  0
  1 21  1  0
  2  7  1  0
  2  3  2  0
  3  4  1  0
  3 22  1  0
  4  5  2  0
  4 23  1  0
  5 17  1  0
  5  6  1  0
  6  7  2  0
  6  8  1  0
  8  9  1  0
  9 10  1  0
  9 24  1  0
  9 25  1  0
 10 17  1  0
 10 11  1  0
 10 26  1  1
 11 14  1  0
 11 12  1  0
 11 27  1  1
 12 13  1  0
 12 28  1  0
 12 29  1  0
 13 14  1  0
 13 17  1  0
 13 30  1  6
 14 15  1  0
 14 16  1  0
 15 31  1  0
 15 32  1  0
 15 33  1  0
 16 34  1  0
 16 35  1  0
 16 36  1  0
 17 18  1  6
 18 37  1  0
 18 38  1  0
 18 39  1  0
M  END
>  <i_m_ct_stereo_status>  (349) 
1

>  <s_m_source_file>  (349) 
/var/tmp/pbs.5076255.sched01/tmpycp4azd_/132pnz8hy5b.sdf

>  <i_m_source_file_index>  (349) 
36

>  <i_lp_mmshare_version>  (349) 
48012

>  <i_f3d_flags>  (349) 
0

>  <s_epik_input>  (349) 
W2NIXTFbY0hdYyhbQ0gzXSluYyhjMVtDQF0yM1tDSDNdKU9bQ0gyXVtDQEBIXTJbQ0BIXTRbQ0gyXVtDQEBIXTNDNChbQ0gzXSlbQ0gzXQ==

>  <s_epik_cmdline>  (349) 
J2VwaWtfcHl0aG9uJywgJy1waHQnLCAnMi4wJywgJy1waCcsICc3LjAnLCAnLXRuJywgJzgnLCAnLW1hJywgJzIwMCcsICctaW1hZScsICc8aW5maWxlLm1hZT4nLCAnLW9tYWUnLCAnPG91dGZpbGUubWFlPic=

>  <r_lp_tautomer_probability>  (349) 
1

>  <r_epik_Ionization_Penalty>  (349) 
0.00767268

>  <r_epik_Ionization_Penalty_Charging>  (349) 
0

>  <r_epik_Ionization_Penalty_Neutral>  (349) 
0.00767268

>  <r_epik_State_Penalty>  (349) 
0.005744

>  <r_epik_Charging_Adjusted_Penalty>  (349) 
0.005744

>  <i_epik_Tot_Q>  (349) 
0

>  <i_epik_Tot_abs_Q>  (349) 
0

>  <s_lp_Force_Field>  (349) 
OPLS3e

>  <r_lp_Energy>  (349) 
67.8051

>  <b_lp_Chiralities_Consistent>  (349) 
1

>  <s_lp_Variant>  (349) 
111:0-1

>  <s_i_glide_gridfile>  (349) 
pfpi4k_grid

>  <i_i_glide_lignum>  (349) 
36

>  <i_i_glide_rotatable_bonds>  (349) 
0

>  <r_i_docking_score>  (349) 
-3.15584

>  <r_i_glide_ligand_efficiency>  (349) 
-0.175324

>  <r_i_glide_ligand_efficiency_sa>  (349) 
-0.45948

>  <r_i_glide_ligand_efficiency_ln>  (349) 
-0.811192

>  <r_i_glide_gscore>  (349) 
-3.15584

>  <r_i_glide_lipo>  (349) 
-0.594515

>  <r_i_glide_hbond>  (349) 
0

>  <r_i_glide_metal>  (349) 
-0

>  <r_i_glide_rewards>  (349) 
-1.74993

>  <r_i_glide_evdw>  (349) 
-19.3582

>  <r_i_glide_ecoul>  (349) 
1.04344

>  <r_i_glide_erotb>  (349) 
0

>  <r_i_glide_esite>  (349) 
0

>  <r_i_glide_emodel>  (349) 
-22.1632

>  <r_i_glide_energy>  (349) 
-18.3148

>  <r_i_glide_einternal>  (349) 
0

>  <r_i_glide_intrahb_reward>  (349) 
-0

>  <i_i_glide_confnum>  (349) 
2

>  <i_i_glide_posenum>  (349) 
1

>  <r_i_glide_eff_state_penalty>  (349) 
0

>  <ligand_id>  (349) 
111

>  <original_smiles>  (349) 
Cc1ccc2c(n1)OCC1C3CC(C3(C)C)C21C

>  <smiles>  (349) 
[H]c1c(C([H])([H])[H])nc2c(c1[H])C1(C([H])([H])[H])C([H])(C([H])([H])O2)C2([H])C([H])([H])C1([H])C2(C([H])([H])[H])C([H])([H])[H]

$$$$
112:0:0
     RDKit          3D

 18 20  0  0  1  0  0  0  0  0999 V2000
    5.4997   -6.3470    1.6639 C   0  0  0  0  0  0  0  0  0  0  0  0
    4.3648   -5.7117    1.0203 N   0  0  0  0  0  0  0  0  0  0  0  0
    3.0731   -6.1531    1.1965 N   0  0  0  0  0  0  0  0  0  0  0  0
    2.2576   -5.3750    0.4971 N   0  0  0  0  0  0  0  0  0  0  0  0
    3.0571   -4.4314   -0.1319 C   0  0  0  0  0  0  0  0  0  0  0  0
    2.7096   -3.3833   -1.0031 C   0  0  0  0  0  0  0  0  0  0  0  0
    3.7238   -2.5533   -1.5193 C   0  0  0  0  0  0  0  0  0  0  0  0
    5.0622   -2.8324   -1.1305 C   0  0  0  0  0  0  0  0  0  0  0  0
    6.1846   -2.2033   -1.4787 N   0  0  0  0  0  0  0  0  0  0  0  0
    7.1967   -2.8860   -0.8023 N   0  0  0  0  0  0  0  0  0  0  0  0
    6.7382   -3.8722   -0.0773 N   0  0  0  0  0  0  0  0  0  0  0  0
    5.4205   -3.8265   -0.3036 N   0  0  0  0  0  0  0  0  0  0  0  0
    4.3980   -4.6433    0.1998 C   0  0  0  0  0  0  0  0  0  0  0  0
    6.4630   -5.8896    1.4330 H   0  0  0  0  0  0  0  0  0  0  0  0
    5.5179   -7.4001    1.3724 H   0  0  0  0  0  0  0  0  0  0  0  0
    5.3394   -6.3288    2.7441 H   0  0  0  0  0  0  0  0  0  0  0  0
    1.6751   -3.2208   -1.2691 H   0  0  0  0  0  0  0  0  0  0  0  0
    3.4972   -1.7326   -2.1794 H   0  0  0  0  0  0  0  0  0  0  0  0
  1  2  1  0
  1 14  1  0
  1 15  1  0
  1 16  1  0
  2 13  1  0
  2  3  1  0
  3  4  2  0
  4  5  1  0
  5 13  2  0
  5  6  1  0
  6  7  2  0
  6 17  1  0
  7  8  1  0
  7 18  1  0
  8 12  1  0
  8  9  2  0
  9 10  1  0
 10 11  2  0
 11 12  1  0
 12 13  1  0
M  END
>  <i_m_ct_stereo_status>  (350) 
1

>  <s_m_source_file>  (350) 
/var/tmp/pbs.5076255.sched01/tmpycp4azd_/132pnz8hy5b.sdf

>  <i_m_source_file_index>  (350) 
37

>  <i_lp_mmshare_version>  (350) 
48012

>  <i_f3d_flags>  (350) 
0

>  <s_epik_input>  (350) 
bjFubihbQ0gzXSljKGMxMiluM2MoW2NIXVtjSF0yKW5ubjM=

>  <s_epik_cmdline>  (350) 
J2VwaWtfcHl0aG9uJywgJy1waHQnLCAnMi4wJywgJy1waCcsICc3LjAnLCAnLXRuJywgJzgnLCAnLW1hJywgJzIwMCcsICctaW1hZScsICc8aW5maWxlLm1hZT4nLCAnLW9tYWUnLCAnPG91dGZpbGUubWFlPic=

>  <r_lp_tautomer_probability>  (350) 
1

>  <r_epik_Ionization_Penalty>  (350) 
4.64777e-11

>  <r_epik_Ionization_Penalty_Charging>  (350) 
0

>  <r_epik_Ionization_Penalty_Neutral>  (350) 
4.64777e-11

>  <r_epik_State_Penalty>  (350) 
-0

>  <r_epik_Charging_Adjusted_Penalty>  (350) 
0

>  <i_epik_Tot_Q>  (350) 
0

>  <i_epik_Tot_abs_Q>  (350) 
0

>  <s_lp_Force_Field>  (350) 
OPLS3e

>  <r_lp_Energy>  (350) 
12.519

>  <b_lp_Chiralities_Consistent>  (350) 
1

>  <s_lp_Variant>  (350) 
112:0-1

>  <s_i_glide_gridfile>  (350) 
pfpi4k_grid

>  <i_i_glide_lignum>  (350) 
37

>  <i_i_glide_rotatable_bonds>  (350) 
0

>  <r_i_docking_score>  (350) 
-3.96705

>  <r_i_glide_ligand_efficiency>  (350) 
-0.305158

>  <r_i_glide_ligand_efficiency_sa>  (350) 
-0.717527

>  <r_i_glide_ligand_efficiency_ln>  (350) 
-1.11279

>  <r_i_glide_gscore>  (350) 
-3.96705

>  <r_i_glide_lipo>  (350) 
-0.0881893

>  <r_i_glide_hbond>  (350) 
0

>  <r_i_glide_metal>  (350) 
-0

>  <r_i_glide_rewards>  (350) 
-2.40624

>  <r_i_glide_evdw>  (350) 
-16.7066

>  <r_i_glide_ecoul>  (350) 
-3.49341

>  <r_i_glide_erotb>  (350) 
0

>  <r_i_glide_esite>  (350) 
-0.113274

>  <r_i_glide_emodel>  (350) 
-25.9451

>  <r_i_glide_energy>  (350) 
-20.2

>  <r_i_glide_einternal>  (350) 
0

>  <r_i_glide_intrahb_reward>  (350) 
-0

>  <i_i_glide_confnum>  (350) 
2

>  <i_i_glide_posenum>  (350) 
1

>  <r_i_glide_eff_state_penalty>  (350) 
0

>  <ligand_id>  (350) 
112

>  <original_smiles>  (350) 
Cn1nnc2ccc3nnnn3c21

>  <smiles>  (350) 
[H]c1c([H])c2nnnn2c2c1nnn2C([H])([H])[H]

$$$$
112:0:1
     RDKit          3D

 18 20  0  0  1  0  0  0  0  0999 V2000
    0.3636    1.6765    2.0048 C   0  0  0  0  0  0  0  0  0  0  0  0
    1.1457    0.4918    2.3138 N   0  0  0  0  0  0  0  0  0  0  0  0
    2.3394    0.2157    1.6876 N   0  0  0  0  0  0  0  0  0  0  0  0
    2.8212   -0.9174    2.1769 N   0  0  0  0  0  0  0  0  0  0  0  0
    1.9112   -1.3619    3.1214 C   0  0  0  0  0  0  0  0  0  0  0  0
    1.9322   -2.5152    3.9299 C   0  0  0  0  0  0  0  0  0  0  0  0
    0.8701   -2.7406    4.8282 C   0  0  0  0  0  0  0  0  0  0  0  0
   -0.1726   -1.7773    4.8695 C   0  0  0  0  0  0  0  0  0  0  0  0
   -1.2724   -1.7713    5.6262 N   0  0  0  0  0  0  0  0  0  0  0  0
   -1.9434   -0.6030    5.2496 N   0  0  0  0  0  0  0  0  0  0  0  0
   -1.3057    0.0715    4.3359 N   0  0  0  0  0  0  0  0  0  0  0  0
   -0.2154   -0.6700    4.1110 N   0  0  0  0  0  0  0  0  0  0  0  0
    0.8467   -0.4629    3.2172 C   0  0  0  0  0  0  0  0  0  0  0  0
   -0.5571    1.7666    2.5783 H   0  0  0  0  0  0  0  0  0  0  0  0
    0.1286    1.6692    0.9370 H   0  0  0  0  0  0  0  0  0  0  0  0
    0.9913    2.5529    2.1796 H   0  0  0  0  0  0  0  0  0  0  0  0
    2.7605   -3.2057    3.8536 H   0  0  0  0  0  0  0  0  0  0  0  0
    0.8420   -3.6074    5.4684 H   0  0  0  0  0  0  0  0  0  0  0  0
  1  2  1  0
  1 14  1  0
  1 15  1  0
  1 16  1  0
  2 13  1  0
  2  3  1  0
  3  4  2  0
  4  5  1  0
  5 13  2  0
  5  6  1  0
  6  7  2  0
  6 17  1  0
  7  8  1  0
  7 18  1  0
  8 12  1  0
  8  9  2  0
  9 10  1  0
 10 11  2  0
 11 12  1  0
 12 13  1  0
M  END
>  <i_m_ct_stereo_status>  (351) 
1

>  <s_m_source_file>  (351) 
/var/tmp/pbs.5076255.sched01/tmpycp4azd_/132pnz8hy5b.sdf

>  <i_m_source_file_index>  (351) 
37

>  <i_lp_mmshare_version>  (351) 
48012

>  <i_f3d_flags>  (351) 
0

>  <s_epik_input>  (351) 
bjFubihbQ0gzXSljKGMxMiluM2MoW2NIXVtjSF0yKW5ubjM=

>  <s_epik_cmdline>  (351) 
J2VwaWtfcHl0aG9uJywgJy1waHQnLCAnMi4wJywgJy1waCcsICc3LjAnLCAnLXRuJywgJzgnLCAnLW1hJywgJzIwMCcsICctaW1hZScsICc8aW5maWxlLm1hZT4nLCAnLW9tYWUnLCAnPG91dGZpbGUubWFlPic=

>  <r_lp_tautomer_probability>  (351) 
1

>  <r_epik_Ionization_Penalty>  (351) 
4.64777e-11

>  <r_epik_Ionization_Penalty_Charging>  (351) 
0

>  <r_epik_Ionization_Penalty_Neutral>  (351) 
4.64777e-11

>  <r_epik_State_Penalty>  (351) 
-0

>  <r_epik_Charging_Adjusted_Penalty>  (351) 
0

>  <i_epik_Tot_Q>  (351) 
0

>  <i_epik_Tot_abs_Q>  (351) 
0

>  <s_lp_Force_Field>  (351) 
OPLS3e

>  <r_lp_Energy>  (351) 
12.519

>  <b_lp_Chiralities_Consistent>  (351) 
1

>  <s_lp_Variant>  (351) 
112:0-1

>  <s_i_glide_gridfile>  (351) 
pfpi4k_grid

>  <i_i_glide_lignum>  (351) 
37

>  <i_i_glide_rotatable_bonds>  (351) 
0

>  <r_i_docking_score>  (351) 
-3.82899

>  <r_i_glide_ligand_efficiency>  (351) 
-0.294538

>  <r_i_glide_ligand_efficiency_sa>  (351) 
-0.692557

>  <r_i_glide_ligand_efficiency_ln>  (351) 
-1.07407

>  <r_i_glide_gscore>  (351) 
-3.82899

>  <r_i_glide_lipo>  (351) 
-0.0159105

>  <r_i_glide_hbond>  (351) 
0

>  <r_i_glide_metal>  (351) 
-0

>  <r_i_glide_rewards>  (351) 
-2.21488

>  <r_i_glide_evdw>  (351) 
-16.9505

>  <r_i_glide_ecoul>  (351) 
-3.09607

>  <r_i_glide_erotb>  (351) 
0

>  <r_i_glide_esite>  (351) 
-0.286266

>  <r_i_glide_emodel>  (351) 
-25.5932

>  <r_i_glide_energy>  (351) 
-20.0465

>  <r_i_glide_einternal>  (351) 
0

>  <r_i_glide_intrahb_reward>  (351) 
-0

>  <i_i_glide_confnum>  (351) 
1

>  <i_i_glide_posenum>  (351) 
3

>  <r_i_glide_eff_state_penalty>  (351) 
0

>  <ligand_id>  (351) 
112

>  <original_smiles>  (351) 
Cn1nnc2ccc3nnnn3c21

>  <smiles>  (351) 
[H]c1c([H])c2nnnn2c2c1nnn2C([H])([H])[H]

$$$$
112:0:2
     RDKit          3D

 18 20  0  0  1  0  0  0  0  0999 V2000
    0.7716   -6.8503    6.9540 C   0  0  0  0  0  0  0  0  0  0  0  0
    1.2536   -8.0687    6.3249 N   0  0  0  0  0  0  0  0  0  0  0  0
    2.2845   -8.8114    6.8493 N   0  0  0  0  0  0  0  0  0  0  0  0
    2.5145   -9.8380    6.0555 N   0  0  0  0  0  0  0  0  0  0  0  0
    1.5984   -9.7603    5.0188 C   0  0  0  0  0  0  0  0  0  0  0  0
    1.4014  -10.6033    3.9068 C   0  0  0  0  0  0  0  0  0  0  0  0
    0.3987  -10.2720    2.9709 C   0  0  0  0  0  0  0  0  0  0  0  0
   -0.3664   -9.1056    3.2141 C   0  0  0  0  0  0  0  0  0  0  0  0
   -1.3591   -8.5932    2.4912 N   0  0  0  0  0  0  0  0  0  0  0  0
   -1.7522   -7.4501    3.1882 N   0  0  0  0  0  0  0  0  0  0  0  0
   -1.0372   -7.2460    4.2614 N   0  0  0  0  0  0  0  0  0  0  0  0
   -0.2022   -8.2864    4.2654 N   0  0  0  0  0  0  0  0  0  0  0  0
    0.7993   -8.6236    5.1857 C   0  0  0  0  0  0  0  0  0  0  0  0
   -0.0427   -6.3603    6.4195 H   0  0  0  0  0  0  0  0  0  0  0  0
    1.6106   -6.1597    7.0531 H   0  0  0  0  0  0  0  0  0  0  0  0
    0.4528   -7.0918    7.9686 H   0  0  0  0  0  0  0  0  0  0  0  0
    2.0201  -11.4854    3.7912 H   0  0  0  0  0  0  0  0  0  0  0  0
    0.2102  -10.8847    2.1023 H   0  0  0  0  0  0  0  0  0  0  0  0
  1  2  1  0
  1 14  1  0
  1 15  1  0
  1 16  1  0
  2 13  1  0
  2  3  1  0
  3  4  2  0
  4  5  1  0
  5 13  2  0
  5  6  1  0
  6  7  2  0
  6 17  1  0
  7  8  1  0
  7 18  1  0
  8 12  1  0
  8  9  2  0
  9 10  1  0
 10 11  2  0
 11 12  1  0
 12 13  1  0
M  END
>  <i_m_ct_stereo_status>  (352) 
1

>  <s_m_source_file>  (352) 
/var/tmp/pbs.5076255.sched01/tmpycp4azd_/132pnz8hy5b.sdf

>  <i_m_source_file_index>  (352) 
37

>  <i_lp_mmshare_version>  (352) 
48012

>  <i_f3d_flags>  (352) 
0

>  <s_epik_input>  (352) 
bjFubihbQ0gzXSljKGMxMiluM2MoW2NIXVtjSF0yKW5ubjM=

>  <s_epik_cmdline>  (352) 
J2VwaWtfcHl0aG9uJywgJy1waHQnLCAnMi4wJywgJy1waCcsICc3LjAnLCAnLXRuJywgJzgnLCAnLW1hJywgJzIwMCcsICctaW1hZScsICc8aW5maWxlLm1hZT4nLCAnLW9tYWUnLCAnPG91dGZpbGUubWFlPic=

>  <r_lp_tautomer_probability>  (352) 
1

>  <r_epik_Ionization_Penalty>  (352) 
4.64777e-11

>  <r_epik_Ionization_Penalty_Charging>  (352) 
0

>  <r_epik_Ionization_Penalty_Neutral>  (352) 
4.64777e-11

>  <r_epik_State_Penalty>  (352) 
-0

>  <r_epik_Charging_Adjusted_Penalty>  (352) 
0

>  <i_epik_Tot_Q>  (352) 
0

>  <i_epik_Tot_abs_Q>  (352) 
0

>  <s_lp_Force_Field>  (352) 
OPLS3e

>  <r_lp_Energy>  (352) 
12.519

>  <b_lp_Chiralities_Consistent>  (352) 
1

>  <s_lp_Variant>  (352) 
112:0-1

>  <s_i_glide_gridfile>  (352) 
pfpi4k_grid

>  <i_i_glide_lignum>  (352) 
37

>  <i_i_glide_rotatable_bonds>  (352) 
0

>  <r_i_docking_score>  (352) 
-3.76511

>  <r_i_glide_ligand_efficiency>  (352) 
-0.289624

>  <r_i_glide_ligand_efficiency_sa>  (352) 
-0.681002

>  <r_i_glide_ligand_efficiency_ln>  (352) 
-1.05615

>  <r_i_glide_gscore>  (352) 
-3.76511

>  <r_i_glide_lipo>  (352) 
-0.0988648

>  <r_i_glide_hbond>  (352) 
0

>  <r_i_glide_metal>  (352) 
-0

>  <r_i_glide_rewards>  (352) 
-2.21488

>  <r_i_glide_evdw>  (352) 
-18.5106

>  <r_i_glide_ecoul>  (352) 
-1.06955

>  <r_i_glide_erotb>  (352) 
0

>  <r_i_glide_esite>  (352) 
-0.365399

>  <r_i_glide_emodel>  (352) 
-25.0323

>  <r_i_glide_energy>  (352) 
-19.5802

>  <r_i_glide_einternal>  (352) 
0

>  <r_i_glide_intrahb_reward>  (352) 
-0

>  <i_i_glide_confnum>  (352) 
2

>  <i_i_glide_posenum>  (352) 
4

>  <r_i_glide_eff_state_penalty>  (352) 
0

>  <ligand_id>  (352) 
112

>  <original_smiles>  (352) 
Cn1nnc2ccc3nnnn3c21

>  <smiles>  (352) 
[H]c1c([H])c2nnnn2c2c1nnn2C([H])([H])[H]

$$$$
113:0:0
     RDKit          3D

 69 73  0  0  1  0  0  0  0  0999 V2000
    2.1096   -2.0905    6.1695 C   0  0  0  0  0  0  0  0  0  0  0  0
    2.2257   -2.1025    4.7504 O   0  0  0  0  0  0  0  0  0  0  0  0
    3.3415   -2.8466    4.2566 C   0  0  2  0  0  0  0  0  0  0  0  0
    4.5742   -1.9180    4.2983 C   0  0  0  0  0  0  0  0  0  0  0  0
    4.6051   -0.8902    3.1676 C   0  0  1  0  0  0  0  0  0  0  0  0
    5.8872   -0.0718    3.2802 C   0  0  0  0  0  0  0  0  0  0  0  0
    4.3574   -1.5665    1.7757 C   0  0  2  0  0  0  0  0  0  0  0  0
    4.3941   -0.6223    0.7077 O   0  0  0  0  0  0  0  0  0  0  0  0
    5.4686   -0.9804   -0.1059 C   0  0  2  0  0  0  0  0  0  0  0  0
    5.1586   -0.7126   -1.6050 C   0  0  0  0  0  0  0  0  0  0  0  0
    4.3910   -1.7704   -2.3716 C   0  0  1  0  0  0  0  0  0  0  0  0
    5.2103   -2.8752   -2.7254 O   0  0  0  0  0  0  0  0  0  0  0  0
    3.1037   -2.1639   -1.6770 C   0  0  1  0  0  0  0  0  0  0  0  0
    2.1916   -2.9457   -2.6094 C   0  0  0  0  0  0  0  0  0  0  0  0
    3.4679   -2.9298   -0.5482 O   0  0  0  0  0  0  0  0  0  0  0  0
    2.4433   -2.7397    0.5198 O   0  0  0  0  0  0  0  0  0  0  0  0
    2.9435   -2.2488    1.7668 C   0  0  2  0  0  0  0  0  0  0  0  0
    1.8149   -1.2112    2.0431 C   0  0  0  0  0  0  0  0  0  0  0  0
    3.0294   -3.4234    2.8142 C   0  0  2  0  0  0  0  0  0  0  0  0
    1.7620   -3.9969    3.0403 O   0  0  0  0  0  0  0  0  0  0  0  0
    4.0087   -4.5910    2.3324 C   0  0  1  0  0  0  0  0  0  0  0  0
    4.3168   -5.5207    3.5420 C   0  0  0  0  0  0  0  0  0  0  0  0
    3.3547   -5.6382    1.3033 C   0  0  1  0  0  0  0  0  0  0  0  0
    2.3278   -5.2952    0.3980 O   0  0  0  0  0  0  0  0  0  0  0  0
    4.3638   -6.4243    0.4596 C   0  0  0  0  0  0  0  0  0  0  0  0
    5.4975   -5.5628   -0.0470 C   0  0  0  0  0  0  0  0  0  0  0  0
    6.2986   -4.9844    1.0987 C   0  0  1  0  0  0  0  0  0  0  0  0
    7.6959   -4.4898    0.6613 C   0  0  0  0  0  0  0  0  0  0  0  0
    5.4133   -4.0032    1.8941 C   0  0  1  0  0  0  0  0  0  0  0  0
    5.5122   -2.5268    1.4289 C   0  0  1  0  0  0  0  0  0  0  0  0
    5.7934   -2.2976    0.0686 O   0  0  0  0  0  0  0  0  0  0  0  0
    1.2489   -1.4853    6.4527 H   0  0  0  0  0  0  0  0  0  0  0  0
    2.9892   -1.6598    6.6392 H   0  0  0  0  0  0  0  0  0  0  0  0
    1.9611   -3.0997    6.5573 H   0  0  0  0  0  0  0  0  0  0  0  0
    3.4843   -3.6619    4.9570 H   0  0  0  0  0  0  0  0  0  0  0  0
    4.6339   -1.3825    5.2429 H   0  0  0  0  0  0  0  0  0  0  0  0
    5.4845   -2.5069    4.2686 H   0  0  0  0  0  0  0  0  0  0  0  0
    3.8288   -0.1547    3.3471 H   0  0  0  0  0  0  0  0  0  0  0  0
    6.7988   -0.6566    3.2837 H   0  0  0  0  0  0  0  0  0  0  0  0
    5.8660    0.5578    4.1793 H   0  0  0  0  0  0  0  0  0  0  0  0
    5.9056    0.4977    2.3624 H   0  0  0  0  0  0  0  0  0  0  0  0
    6.3089   -0.3669    0.2219 H   0  0  0  0  0  0  0  0  0  0  0  0
    4.5654    0.1630   -1.6285 H   0  0  0  0  0  0  0  0  0  0  0  0
    6.0491   -0.5017   -2.1626 H   0  0  0  0  0  0  0  0  0  0  0  0
    4.1342   -1.2801   -3.3192 H   0  0  0  0  0  0  0  0  0  0  0  0
    5.4416   -3.3146   -1.9193 H   0  0  0  0  0  0  0  0  0  0  0  0
    2.6144   -1.2534   -1.3431 H   0  0  0  0  0  0  0  0  0  0  0  0
    1.9462   -2.3609   -3.4969 H   0  0  0  0  0  0  0  0  0  0  0  0
    1.2663   -3.1973   -2.0999 H   0  0  0  0  0  0  0  0  0  0  0  0
    2.6880   -3.8532   -2.9465 H   0  0  0  0  0  0  0  0  0  0  0  0
    1.8664   -0.6521    2.9659 H   0  0  0  0  0  0  0  0  0  0  0  0
    0.8424   -1.6948    2.0451 H   0  0  0  0  0  0  0  0  0  0  0  0
    1.7943   -0.4437    1.2700 H   0  0  0  0  0  0  0  0  0  0  0  0
    1.1973   -3.2671    3.2186 H   0  0  0  0  0  0  0  0  0  0  0  0
    4.8483   -6.4197    3.2275 H   0  0  0  0  0  0  0  0  0  0  0  0
    3.3979   -5.8494    4.0254 H   0  0  0  0  0  0  0  0  0  0  0  0
    4.9409   -5.0555    4.3041 H   0  0  0  0  0  0  0  0  0  0  0  0
    2.8371   -6.3850    1.8986 H   0  0  0  0  0  0  0  0  0  0  0  0
    2.7114   -4.8157   -0.3238 H   0  0  0  0  0  0  0  0  0  0  0  0
    4.7827   -7.2419    1.0457 H   0  0  0  0  0  0  0  0  0  0  0  0
    3.8730   -6.8973   -0.3840 H   0  0  0  0  0  0  0  0  0  0  0  0
    6.1605   -6.2378   -0.5404 H   0  0  0  0  0  0  0  0  0  0  0  0
    5.1438   -4.7986   -0.7502 H   0  0  0  0  0  0  0  0  0  0  0  0
    6.5214   -5.8203    1.7667 H   0  0  0  0  0  0  0  0  0  0  0  0
    7.6619   -3.7955   -0.1813 H   0  0  0  0  0  0  0  0  0  0  0  0
    8.3140   -5.3276    0.3396 H   0  0  0  0  0  0  0  0  0  0  0  0
    8.2281   -4.0054    1.4806 H   0  0  0  0  0  0  0  0  0  0  0  0
    5.9841   -3.9360    2.8164 H   0  0  0  0  0  0  0  0  0  0  0  0
    6.4285   -2.1477    1.8674 H   0  0  0  0  0  0  0  0  0  0  0  0
  1  2  1  0
  1 32  1  0
  1 33  1  0
  1 34  1  0
  2  3  1  0
  3 19  1  0
  3  4  1  0
  3 35  1  1
  4  5  1  0
  4 36  1  0
  4 37  1  0
  5  6  1  0
  5  7  1  0
  5 38  1  1
  6 39  1  0
  6 40  1  0
  6 41  1  0
  7 17  1  0
  7 30  1  0
  7  8  1  6
  8  9  1  0
  9 31  1  0
  9 10  1  0
  9 42  1  1
 10 11  1  0
 10 43  1  0
 10 44  1  0
 11 12  1  0
 11 13  1  0
 11 45  1  6
 12 46  1  0
 13 14  1  0
 13 15  1  0
 13 47  1  1
 14 48  1  0
 14 49  1  0
 14 50  1  0
 15 16  1  0
 16 17  1  0
 17 18  1  1
 17 19  1  0
 18 51  1  0
 18 52  1  0
 18 53  1  0
 19 20  1  1
 19 21  1  0
 20 54  1  0
 21 29  1  0
 21 22  1  1
 21 23  1  0
 22 55  1  0
 22 56  1  0
 22 57  1  0
 23 24  1  0
 23 25  1  0
 23 58  1  1
 24 59  1  0
 25 26  1  0
 25 60  1  0
 25 61  1  0
 26 27  1  0
 26 62  1  0
 26 63  1  0
 27 28  1  0
 27 29  1  0
 27 64  1  1
 28 65  1  0
 28 66  1  0
 28 67  1  0
 29 30  1  0
 29 68  1  1
 30 31  1  0
 30 69  1  1
M  END
>  <i_m_ct_stereo_status>  (353) 
1

>  <s_m_source_file>  (353) 
/var/tmp/pbs.5076255.sched01/tmpycp4azd_/132pnz8hy5b.sdf

>  <i_m_source_file_index>  (353) 
38

>  <i_lp_mmshare_version>  (353) 
48012

>  <i_f3d_flags>  (353) 
0

>  <s_epik_input>  (353) 
W0NIM11bQ0BASF0xW0NIMl1bQ0BASF0oT1tDSDNdKVtDQEBdKFtPSF0pKFtDQF0yKFtDQF0xMzQpW0NIM10pW0NAXTUoW0NIM10pW0NAQEhdKFtDQEhdKFtDSDNdKVtDSDJdW0NIMl1bQ0BASF01W09IXSlbQ0BIXTRPW0NASF0oTzMpW0NIMl1bQ0BASF0oW09IXSlbQ0BASF0oW0NIM10pT08y

>  <s_epik_cmdline>  (353) 
J2VwaWtfcHl0aG9uJywgJy1waHQnLCAnMi4wJywgJy1waCcsICc3LjAnLCAnLXRuJywgJzgnLCAnLW1hJywgJzIwMCcsICctaW1hZScsICc8aW5maWxlLm1hZT4nLCAnLW9tYWUnLCAnPG91dGZpbGUubWFlPic=

>  <r_lp_tautomer_probability>  (353) 
1

>  <r_epik_Ionization_Penalty>  (353) 
1.45057e-06

>  <r_epik_Ionization_Penalty_Charging>  (353) 
0

>  <r_epik_Ionization_Penalty_Neutral>  (353) 
1.45057e-06

>  <r_epik_State_Penalty>  (353) 
-0

>  <r_epik_Charging_Adjusted_Penalty>  (353) 
0

>  <i_epik_Tot_Q>  (353) 
0

>  <i_epik_Tot_abs_Q>  (353) 
0

>  <s_epik_Chemistry_Notes>  (353) 
This compound contains an acetal/aminal-like group ( X-CH(R)-Y where X, Y are N, S, or O) that may be acid/base labile, releasing an aldehyde.

>  <s_lp_Force_Field>  (353) 
OPLS3e

>  <r_lp_Energy>  (353) 
80.0506

>  <b_lp_Chiralities_Consistent>  (353) 
1

>  <s_lp_Variant>  (353) 
113:0-1

>  <s_i_glide_gridfile>  (353) 
pfpi4k_grid

>  <i_i_glide_lignum>  (353) 
38

>  <i_i_glide_rotatable_bonds>  (353) 
4

>  <r_i_docking_score>  (353) 
-2.94012

>  <r_i_glide_ligand_efficiency>  (353) 
-0.0948426

>  <r_i_glide_ligand_efficiency_sa>  (353) 
-0.297937

>  <r_i_glide_ligand_efficiency_ln>  (353) 
-0.663087

>  <r_i_glide_gscore>  (353) 
-2.94012

>  <r_i_glide_lipo>  (353) 
-0.841191

>  <r_i_glide_hbond>  (353) 
0

>  <r_i_glide_metal>  (353) 
-0

>  <r_i_glide_rewards>  (353) 
-0.891752

>  <r_i_glide_evdw>  (353) 
-17.2731

>  <r_i_glide_ecoul>  (353) 
-2.23927

>  <r_i_glide_erotb>  (353) 
0

>  <r_i_glide_esite>  (353) 
-0.00763118

>  <r_i_glide_emodel>  (353) 
-27.7006

>  <r_i_glide_energy>  (353) 
-19.5124

>  <r_i_glide_einternal>  (353) 
0.555261

>  <r_i_glide_intrahb_reward>  (353) 
-0.5

>  <i_i_glide_confnum>  (353) 
2

>  <i_i_glide_posenum>  (353) 
30

>  <r_i_glide_eff_state_penalty>  (353) 
0

>  <ligand_id>  (353) 
113

>  <original_smiles>  (353) 
COC1CC(C)C23OC4CC(O)C(C)OOC2(C)C1(O)C1(C)C(O)CCC(C)C1C3O4

>  <smiles>  (353) 
[H]OC1([H])C([H])([H])C2([H])OC3([H])C4([H])C([H])(C([H])([H])[H])C([H])([H])C([H])([H])C([H])(O[H])C4(C([H])([H])[H])C4(O[H])C([H])(OC([H])([H])[H])C([H])([H])C([H])(C([H])([H])[H])C3(O2)C4(C([H])([H])[H])OOC1([H])C([H])([H])[H]

$$$$
113:0:1
     RDKit          3D

 69 73  0  0  1  0  0  0  0  0999 V2000
    1.9329   -2.1851    6.1795 C   0  0  0  0  0  0  0  0  0  0  0  0
    2.0446   -2.2517    4.7631 O   0  0  0  0  0  0  0  0  0  0  0  0
    3.1896   -2.9616    4.2802 C   0  0  2  0  0  0  0  0  0  0  0  0
    4.4098   -2.0151    4.3661 C   0  0  0  0  0  0  0  0  0  0  0  0
    4.4296   -0.9570    3.2598 C   0  0  1  0  0  0  0  0  0  0  0  0
    5.6856   -0.1059    3.4252 C   0  0  0  0  0  0  0  0  0  0  0  0
    4.2483   -1.6262    1.8536 C   0  0  2  0  0  0  0  0  0  0  0  0
    4.3235   -0.6749    0.7975 O   0  0  0  0  0  0  0  0  0  0  0  0
    5.4444   -1.0070    0.0351 C   0  0  2  0  0  0  0  0  0  0  0  0
    5.2082   -0.7332   -1.4691 C   0  0  0  0  0  0  0  0  0  0  0  0
    4.4563   -1.7756   -2.2737 C   0  0  1  0  0  0  0  0  0  0  0  0
    5.2878   -2.8303   -2.7158 O   0  0  0  0  0  0  0  0  0  0  0  0
    3.1414   -2.1951   -1.6374 C   0  0  1  0  0  0  0  0  0  0  0  0
    2.2531   -2.9672   -2.6159 C   0  0  0  0  0  0  0  0  0  0  0  0
    3.4729   -2.9816   -0.5029 O   0  0  0  0  0  0  0  0  0  0  0  0
    2.3934   -2.8160    0.5211 O   0  0  0  0  0  0  0  0  0  0  0  0
    2.8496   -2.3334    1.7910 C   0  0  2  0  0  0  0  0  0  0  0  0
    1.7004   -1.3169    2.0566 C   0  0  0  0  0  0  0  0  0  0  0  0
    2.9314   -3.5235    2.8237 C   0  0  2  0  0  0  0  0  0  0  0  0
    1.6681   -4.1302    2.9982 O   0  0  0  0  0  0  0  0  0  0  0  0
    3.9360   -4.6722    2.3561 C   0  0  1  0  0  0  0  0  0  0  0  0
    4.2281   -5.6193    3.5576 C   0  0  0  0  0  0  0  0  0  0  0  0
    3.3358   -5.7119    1.2902 C   0  0  1  0  0  0  0  0  0  0  0  0
    2.3188   -5.3608    0.3654 O   0  0  0  0  0  0  0  0  0  0  0  0
    4.3792   -6.4676    0.4649 C   0  0  0  0  0  0  0  0  0  0  0  0
    5.5201   -5.5795    0.0078 C   0  0  0  0  0  0  0  0  0  0  0  0
    6.2720   -5.0119    1.1906 C   0  0  1  0  0  0  0  0  0  0  0  0
    7.6762   -4.4878    0.8005 C   0  0  0  0  0  0  0  0  0  0  0  0
    5.3487   -4.0596    1.9729 C   0  0  1  0  0  0  0  0  0  0  0  0
    5.4320   -2.5713    1.5440 C   0  0  1  0  0  0  0  0  0  0  0  0
    5.7658   -2.3255    0.2097 O   0  0  0  0  0  0  0  0  0  0  0  0
    1.0396   -1.6170    6.4389 H   0  0  0  0  0  0  0  0  0  0  0  0
    2.7809   -1.6818    6.6414 H   0  0  0  0  0  0  0  0  0  0  0  0
    1.8428   -3.1831    6.6124 H   0  0  0  0  0  0  0  0  0  0  0  0
    3.3148   -3.7904    4.9733 H   0  0  0  0  0  0  0  0  0  0  0  0
    4.4533   -1.4942    5.3171 H   0  0  0  0  0  0  0  0  0  0  0  0
    5.3296   -2.5920    4.3467 H   0  0  0  0  0  0  0  0  0  0  0  0
    3.6273   -0.2442    3.4311 H   0  0  0  0  0  0  0  0  0  0  0  0
    6.5858   -0.7012    3.4421 H   0  0  0  0  0  0  0  0  0  0  0  0
    5.6306    0.4981    4.3460 H   0  0  0  0  0  0  0  0  0  0  0  0
    5.7572    0.5079    2.5343 H   0  0  0  0  0  0  0  0  0  0  0  0
    6.2521   -0.3790    0.4061 H   0  0  0  0  0  0  0  0  0  0  0  0
    4.6182    0.1482   -1.5042 H   0  0  0  0  0  0  0  0  0  0  0  0
    6.1219   -0.5198   -1.9954 H   0  0  0  0  0  0  0  0  0  0  0  0
    4.1905   -1.2556   -3.1869 H   0  0  0  0  0  0  0  0  0  0  0  0
    4.7463   -3.5532   -2.9617 H   0  0  0  0  0  0  0  0  0  0  0  0
    2.6312   -1.2829   -1.3110 H   0  0  0  0  0  0  0  0  0  0  0  0
    2.0180   -2.3887   -3.5053 H   0  0  0  0  0  0  0  0  0  0  0  0
    1.3206   -3.2507   -2.1400 H   0  0  0  0  0  0  0  0  0  0  0  0
    2.7648   -3.8590   -2.9582 H   0  0  0  0  0  0  0  0  0  0  0  0
    1.7091   -0.7753    2.9985 H   0  0  0  0  0  0  0  0  0  0  0  0
    0.7384   -1.8212    2.0306 H   0  0  0  0  0  0  0  0  0  0  0  0
    1.6809   -0.5488    1.2805 H   0  0  0  0  0  0  0  0  0  0  0  0
    1.0617   -3.4128    3.0818 H   0  0  0  0  0  0  0  0  0  0  0  0
    4.7841   -6.5048    3.2483 H   0  0  0  0  0  0  0  0  0  0  0  0
    3.2988   -5.9718    4.0058 H   0  0  0  0  0  0  0  0  0  0  0  0
    4.8182   -5.1561    4.3485 H   0  0  0  0  0  0  0  0  0  0  0  0
    2.8197   -6.4857    1.8568 H   0  0  0  0  0  0  0  0  0  0  0  0
    2.7326   -5.0012   -0.4035 H   0  0  0  0  0  0  0  0  0  0  0  0
    4.7997   -7.2896    1.0473 H   0  0  0  0  0  0  0  0  0  0  0  0
    3.9335   -6.9403   -0.4087 H   0  0  0  0  0  0  0  0  0  0  0  0
    6.2250   -6.2351   -0.4559 H   0  0  0  0  0  0  0  0  0  0  0  0
    5.1794   -4.8085   -0.6940 H   0  0  0  0  0  0  0  0  0  0  0  0
    6.4925   -5.8554    1.8479 H   0  0  0  0  0  0  0  0  0  0  0  0
    7.6541   -3.7813   -0.0297 H   0  0  0  0  0  0  0  0  0  0  0  0
    8.3222   -5.3076    0.4820 H   0  0  0  0  0  0  0  0  0  0  0  0
    8.1717   -4.0088    1.6451 H   0  0  0  0  0  0  0  0  0  0  0  0
    5.8896   -4.0016    2.9097 H   0  0  0  0  0  0  0  0  0  0  0  0
    6.3273   -2.1860    2.0175 H   0  0  0  0  0  0  0  0  0  0  0  0
  1  2  1  0
  1 32  1  0
  1 33  1  0
  1 34  1  0
  2  3  1  0
  3 19  1  0
  3  4  1  0
  3 35  1  1
  4  5  1  0
  4 36  1  0
  4 37  1  0
  5  6  1  0
  5  7  1  0
  5 38  1  1
  6 39  1  0
  6 40  1  0
  6 41  1  0
  7 17  1  0
  7 30  1  0
  7  8  1  6
  8  9  1  0
  9 31  1  0
  9 10  1  0
  9 42  1  1
 10 11  1  0
 10 43  1  0
 10 44  1  0
 11 12  1  0
 11 13  1  0
 11 45  1  6
 12 46  1  0
 13 14  1  0
 13 15  1  0
 13 47  1  1
 14 48  1  0
 14 49  1  0
 14 50  1  0
 15 16  1  0
 16 17  1  0
 17 18  1  1
 17 19  1  0
 18 51  1  0
 18 52  1  0
 18 53  1  0
 19 20  1  1
 19 21  1  0
 20 54  1  0
 21 29  1  0
 21 22  1  1
 21 23  1  0
 22 55  1  0
 22 56  1  0
 22 57  1  0
 23 24  1  0
 23 25  1  0
 23 58  1  1
 24 59  1  0
 25 26  1  0
 25 60  1  0
 25 61  1  0
 26 27  1  0
 26 62  1  0
 26 63  1  0
 27 28  1  0
 27 29  1  0
 27 64  1  1
 28 65  1  0
 28 66  1  0
 28 67  1  0
 29 30  1  0
 29 68  1  1
 30 31  1  0
 30 69  1  1
M  END
>  <i_m_ct_stereo_status>  (354) 
1

>  <s_m_source_file>  (354) 
/var/tmp/pbs.5076255.sched01/tmpycp4azd_/132pnz8hy5b.sdf

>  <i_m_source_file_index>  (354) 
38

>  <i_lp_mmshare_version>  (354) 
48012

>  <i_f3d_flags>  (354) 
0

>  <s_epik_input>  (354) 
W0NIM11bQ0BASF0xW0NIMl1bQ0BASF0oT1tDSDNdKVtDQEBdKFtPSF0pKFtDQF0yKFtDQF0xMzQpW0NIM10pW0NAXTUoW0NIM10pW0NAQEhdKFtDQEhdKFtDSDNdKVtDSDJdW0NIMl1bQ0BASF01W09IXSlbQ0BIXTRPW0NASF0oTzMpW0NIMl1bQ0BASF0oW09IXSlbQ0BASF0oW0NIM10pT08y

>  <s_epik_cmdline>  (354) 
J2VwaWtfcHl0aG9uJywgJy1waHQnLCAnMi4wJywgJy1waCcsICc3LjAnLCAnLXRuJywgJzgnLCAnLW1hJywgJzIwMCcsICctaW1hZScsICc8aW5maWxlLm1hZT4nLCAnLW9tYWUnLCAnPG91dGZpbGUubWFlPic=

>  <r_lp_tautomer_probability>  (354) 
1

>  <r_epik_Ionization_Penalty>  (354) 
1.45057e-06

>  <r_epik_Ionization_Penalty_Charging>  (354) 
0

>  <r_epik_Ionization_Penalty_Neutral>  (354) 
1.45057e-06

>  <r_epik_State_Penalty>  (354) 
-0

>  <r_epik_Charging_Adjusted_Penalty>  (354) 
0

>  <i_epik_Tot_Q>  (354) 
0

>  <i_epik_Tot_abs_Q>  (354) 
0

>  <s_epik_Chemistry_Notes>  (354) 
This compound contains an acetal/aminal-like group ( X-CH(R)-Y where X, Y are N, S, or O) that may be acid/base labile, releasing an aldehyde.

>  <s_lp_Force_Field>  (354) 
OPLS3e

>  <r_lp_Energy>  (354) 
80.0506

>  <b_lp_Chiralities_Consistent>  (354) 
1

>  <s_lp_Variant>  (354) 
113:0-1

>  <s_i_glide_gridfile>  (354) 
pfpi4k_grid

>  <i_i_glide_lignum>  (354) 
38

>  <i_i_glide_rotatable_bonds>  (354) 
4

>  <r_i_docking_score>  (354) 
-2.66267

>  <r_i_glide_ligand_efficiency>  (354) 
-0.0858925

>  <r_i_glide_ligand_efficiency_sa>  (354) 
-0.269821

>  <r_i_glide_ligand_efficiency_ln>  (354) 
-0.600513

>  <r_i_glide_gscore>  (354) 
-2.66267

>  <r_i_glide_lipo>  (354) 
-0.800085

>  <r_i_glide_hbond>  (354) 
-0.00169686

>  <r_i_glide_metal>  (354) 
-0

>  <r_i_glide_rewards>  (354) 
-0.412208

>  <r_i_glide_evdw>  (354) 
-17.7202

>  <r_i_glide_ecoul>  (354) 
-3.75111

>  <r_i_glide_erotb>  (354) 
0

>  <r_i_glide_esite>  (354) 
0

>  <r_i_glide_emodel>  (354) 
-23.7385

>  <r_i_glide_energy>  (354) 
-21.4713

>  <r_i_glide_einternal>  (354) 
1.44688

>  <r_i_glide_intrahb_reward>  (354) 
-0

>  <i_i_glide_confnum>  (354) 
1

>  <i_i_glide_posenum>  (354) 
6

>  <r_i_glide_eff_state_penalty>  (354) 
0

>  <ligand_id>  (354) 
113

>  <original_smiles>  (354) 
COC1CC(C)C23OC4CC(O)C(C)OOC2(C)C1(O)C1(C)C(O)CCC(C)C1C3O4

>  <smiles>  (354) 
[H]OC1([H])C([H])([H])C2([H])OC3([H])C4([H])C([H])(C([H])([H])[H])C([H])([H])C([H])([H])C([H])(O[H])C4(C([H])([H])[H])C4(O[H])C([H])(OC([H])([H])[H])C([H])([H])C([H])(C([H])([H])[H])C3(O2)C4(C([H])([H])[H])OOC1([H])C([H])([H])[H]

$$$$
113:0:2
     RDKit          3D

 69 73  0  0  1  0  0  0  0  0999 V2000
    4.8915   -0.5462    0.2054 C   0  0  0  0  0  0  0  0  0  0  0  0
    4.2140   -1.7628    0.4891 O   0  0  0  0  0  0  0  0  0  0  0  0
    4.5442   -2.3726    1.7354 C   0  0  2  0  0  0  0  0  0  0  0  0
    5.8432   -3.1896    1.5176 C   0  0  0  0  0  0  0  0  0  0  0  0
    5.6334   -4.5426    0.8050 C   0  0  1  0  0  0  0  0  0  0  0  0
    6.9732   -5.2930    0.6581 C   0  0  0  0  0  0  0  0  0  0  0  0
    4.4561   -5.3327    1.4767 C   0  0  2  0  0  0  0  0  0  0  0  0
    4.2600   -6.5860    0.8296 O   0  0  0  0  0  0  0  0  0  0  0  0
    4.5708   -7.5740    1.7638 C   0  0  2  0  0  0  0  0  0  0  0  0
    3.6787   -8.8204    1.5510 C   0  0  0  0  0  0  0  0  0  0  0  0
    2.2640   -8.7441    2.1834 C   0  0  1  0  0  0  0  0  0  0  0  0
    2.2649   -8.9904    3.5778 O   0  0  0  0  0  0  0  0  0  0  0  0
    1.4574   -7.4714    1.8535 C   0  0  1  0  0  0  0  0  0  0  0  0
   -0.0204   -7.5559    2.2653 C   0  0  0  0  0  0  0  0  0  0  0  0
    2.0486   -6.3617    2.5077 O   0  0  0  0  0  0  0  0  0  0  0  0
    1.8914   -5.1559    1.6497 O   0  0  0  0  0  0  0  0  0  0  0  0
    3.1306   -4.4924    1.3641 C   0  0  2  0  0  0  0  0  0  0  0  0
    2.7553   -4.1652   -0.1114 C   0  0  0  0  0  0  0  0  0  0  0  0
    3.3325   -3.2271    2.2899 C   0  0  2  0  0  0  0  0  0  0  0  0
    2.2391   -2.3304    2.1254 O   0  0  0  0  0  0  0  0  0  0  0  0
    3.4452   -3.5870    3.8546 C   0  0  1  0  0  0  0  0  0  0  0  0
    4.0048   -2.3468    4.6258 C   0  0  0  0  0  0  0  0  0  0  0  0
    2.0534   -3.8047    4.6115 C   0  0  1  0  0  0  0  0  0  0  0  0
    0.9360   -4.2057    3.8713 O   0  0  0  0  0  0  0  0  0  0  0  0
    2.0688   -4.6370    5.9100 C   0  0  0  0  0  0  0  0  0  0  0  0
    2.9681   -5.8653    5.8275 C   0  0  0  0  0  0  0  0  0  0  0  0
    4.3960   -5.4146    5.5168 C   0  0  1  0  0  0  0  0  0  0  0  0
    5.4289   -6.5209    5.8068 C   0  0  0  0  0  0  0  0  0  0  0  0
    4.4802   -4.7621    4.1045 C   0  0  1  0  0  0  0  0  0  0  0  0
    4.8265   -5.7367    2.9324 C   0  0  1  0  0  0  0  0  0  0  0  0
    4.4053   -7.0717    3.0429 O   0  0  0  0  0  0  0  0  0  0  0  0
    4.5894   -0.2027   -0.7834 H   0  0  0  0  0  0  0  0  0  0  0  0
    5.9752   -0.6679    0.1909 H   0  0  0  0  0  0  0  0  0  0  0  0
    4.6419    0.2327    0.9307 H   0  0  0  0  0  0  0  0  0  0  0  0
    4.7589   -1.5399    2.4012 H   0  0  0  0  0  0  0  0  0  0  0  0
    6.5853   -2.6167    0.9661 H   0  0  0  0  0  0  0  0  0  0  0  0
    6.3108   -3.3673    2.4816 H   0  0  0  0  0  0  0  0  0  0  0  0
    5.3719   -4.3354   -0.2276 H   0  0  0  0  0  0  0  0  0  0  0  0
    7.4816   -5.4561    1.6077 H   0  0  0  0  0  0  0  0  0  0  0  0
    7.6545   -4.7078    0.0407 H   0  0  0  0  0  0  0  0  0  0  0  0
    6.8436   -6.2531    0.1681 H   0  0  0  0  0  0  0  0  0  0  0  0
    5.6269   -7.8297    1.6359 H   0  0  0  0  0  0  0  0  0  0  0  0
    3.5956   -8.9944    0.4791 H   0  0  0  0  0  0  0  0  0  0  0  0
    4.2008   -9.6910    1.9529 H   0  0  0  0  0  0  0  0  0  0  0  0
    1.7070   -9.5831    1.7619 H   0  0  0  0  0  0  0  0  0  0  0  0
    2.6398   -9.8470    3.7383 H   0  0  0  0  0  0  0  0  0  0  0  0
    1.5058   -7.3069    0.7779 H   0  0  0  0  0  0  0  0  0  0  0  0
   -0.5046   -8.4199    1.8129 H   0  0  0  0  0  0  0  0  0  0  0  0
   -0.5669   -6.6689    1.9493 H   0  0  0  0  0  0  0  0  0  0  0  0
   -0.1292   -7.6489    3.3465 H   0  0  0  0  0  0  0  0  0  0  0  0
    3.4944   -3.6250   -0.6941 H   0  0  0  0  0  0  0  0  0  0  0  0
    1.8460   -3.5702   -0.1726 H   0  0  0  0  0  0  0  0  0  0  0  0
    2.5717   -5.0799   -0.6714 H   0  0  0  0  0  0  0  0  0  0  0  0
    2.2834   -2.0062    1.2339 H   0  0  0  0  0  0  0  0  0  0  0  0
    3.9366   -2.4806    5.7049 H   0  0  0  0  0  0  0  0  0  0  0  0
    3.4382   -1.4453    4.3854 H   0  0  0  0  0  0  0  0  0  0  0  0
    5.0523   -2.1359    4.4175 H   0  0  0  0  0  0  0  0  0  0  0  0
    1.6929   -2.8207    4.9132 H   0  0  0  0  0  0  0  0  0  0  0  0
    0.8446   -3.5737    3.1687 H   0  0  0  0  0  0  0  0  0  0  0  0
    2.4046   -4.0073    6.7325 H   0  0  0  0  0  0  0  0  0  0  0  0
    1.0545   -4.9420    6.1696 H   0  0  0  0  0  0  0  0  0  0  0  0
    2.9422   -6.3893    6.7825 H   0  0  0  0  0  0  0  0  0  0  0  0
    2.6051   -6.5665    5.0769 H   0  0  0  0  0  0  0  0  0  0  0  0
    4.6387   -4.6318    6.2368 H   0  0  0  0  0  0  0  0  0  0  0  0
    5.1897   -7.4572    5.3031 H   0  0  0  0  0  0  0  0  0  0  0  0
    5.4560   -6.7398    6.8763 H   0  0  0  0  0  0  0  0  0  0  0  0
    6.4336   -6.2192    5.5137 H   0  0  0  0  0  0  0  0  0  0  0  0
    5.4322   -4.2462    4.1939 H   0  0  0  0  0  0  0  0  0  0  0  0
    5.9059   -5.8563    2.9893 H   0  0  0  0  0  0  0  0  0  0  0  0
  1  2  1  0
  1 32  1  0
  1 33  1  0
  1 34  1  0
  2  3  1  0
  3 19  1  0
  3  4  1  0
  3 35  1  1
  4  5  1  0
  4 36  1  0
  4 37  1  0
  5  6  1  0
  5  7  1  0
  5 38  1  6
  6 39  1  0
  6 40  1  0
  6 41  1  0
  7 17  1  0
  7 30  1  0
  7  8  1  6
  8  9  1  0
  9 31  1  0
  9 10  1  0
  9 42  1  1
 10 11  1  0
 10 43  1  0
 10 44  1  0
 11 12  1  0
 11 13  1  0
 11 45  1  6
 12 46  1  0
 13 14  1  0
 13 15  1  0
 13 47  1  6
 14 48  1  0
 14 49  1  0
 14 50  1  0
 15 16  1  0
 16 17  1  0
 17 18  1  6
 17 19  1  0
 18 51  1  0
 18 52  1  0
 18 53  1  0
 19 20  1  1
 19 21  1  0
 20 54  1  0
 21 29  1  0
 21 22  1  1
 21 23  1  0
 22 55  1  0
 22 56  1  0
 22 57  1  0
 23 24  1  0
 23 25  1  0
 23 58  1  1
 24 59  1  0
 25 26  1  0
 25 60  1  0
 25 61  1  0
 26 27  1  0
 26 62  1  0
 26 63  1  0
 27 28  1  0
 27 29  1  0
 27 64  1  1
 28 65  1  0
 28 66  1  0
 28 67  1  0
 29 30  1  0
 29 68  1  1
 30 31  1  0
 30 69  1  6
M  END
>  <i_m_ct_stereo_status>  (355) 
1

>  <s_m_source_file>  (355) 
/var/tmp/pbs.5076255.sched01/tmpycp4azd_/132pnz8hy5b.sdf

>  <i_m_source_file_index>  (355) 
38

>  <i_lp_mmshare_version>  (355) 
48012

>  <i_f3d_flags>  (355) 
0

>  <s_epik_input>  (355) 
W0NIM11bQ0BASF0xW0NIMl1bQ0BASF0oT1tDSDNdKVtDQEBdKFtPSF0pKFtDQF0yKFtDQF0xMzQpW0NIM10pW0NAXTUoW0NIM10pW0NAQEhdKFtDQEhdKFtDSDNdKVtDSDJdW0NIMl1bQ0BASF01W09IXSlbQ0BIXTRPW0NASF0oTzMpW0NIMl1bQ0BASF0oW09IXSlbQ0BASF0oW0NIM10pT08y

>  <s_epik_cmdline>  (355) 
J2VwaWtfcHl0aG9uJywgJy1waHQnLCAnMi4wJywgJy1waCcsICc3LjAnLCAnLXRuJywgJzgnLCAnLW1hJywgJzIwMCcsICctaW1hZScsICc8aW5maWxlLm1hZT4nLCAnLW9tYWUnLCAnPG91dGZpbGUubWFlPic=

>  <r_lp_tautomer_probability>  (355) 
1

>  <r_epik_Ionization_Penalty>  (355) 
1.45057e-06

>  <r_epik_Ionization_Penalty_Charging>  (355) 
0

>  <r_epik_Ionization_Penalty_Neutral>  (355) 
1.45057e-06

>  <r_epik_State_Penalty>  (355) 
-0

>  <r_epik_Charging_Adjusted_Penalty>  (355) 
0

>  <i_epik_Tot_Q>  (355) 
0

>  <i_epik_Tot_abs_Q>  (355) 
0

>  <s_epik_Chemistry_Notes>  (355) 
This compound contains an acetal/aminal-like group ( X-CH(R)-Y where X, Y are N, S, or O) that may be acid/base labile, releasing an aldehyde.

>  <s_lp_Force_Field>  (355) 
OPLS3e

>  <r_lp_Energy>  (355) 
80.0506

>  <b_lp_Chiralities_Consistent>  (355) 
1

>  <s_lp_Variant>  (355) 
113:0-1

>  <s_i_glide_gridfile>  (355) 
pfpi4k_grid

>  <i_i_glide_lignum>  (355) 
38

>  <i_i_glide_rotatable_bonds>  (355) 
4

>  <r_i_docking_score>  (355) 
-2.52844

>  <r_i_glide_ligand_efficiency>  (355) 
-0.0815625

>  <r_i_glide_ligand_efficiency_sa>  (355) 
-0.256219

>  <r_i_glide_ligand_efficiency_ln>  (355) 
-0.57024

>  <r_i_glide_gscore>  (355) 
-2.52844

>  <r_i_glide_lipo>  (355) 
-0.401801

>  <r_i_glide_hbond>  (355) 
-0.0359841

>  <r_i_glide_metal>  (355) 
-0

>  <r_i_glide_rewards>  (355) 
-0.94996

>  <r_i_glide_evdw>  (355) 
-19.8016

>  <r_i_glide_ecoul>  (355) 
-1.00411

>  <r_i_glide_erotb>  (355) 
0

>  <r_i_glide_esite>  (355) 
0

>  <r_i_glide_emodel>  (355) 
-28.9612

>  <r_i_glide_energy>  (355) 
-20.8057

>  <r_i_glide_einternal>  (355) 
0.7715

>  <r_i_glide_intrahb_reward>  (355) 
-0.5

>  <i_i_glide_confnum>  (355) 
2

>  <i_i_glide_posenum>  (355) 
21

>  <r_i_glide_eff_state_penalty>  (355) 
0

>  <ligand_id>  (355) 
113

>  <original_smiles>  (355) 
COC1CC(C)C23OC4CC(O)C(C)OOC2(C)C1(O)C1(C)C(O)CCC(C)C1C3O4

>  <smiles>  (355) 
[H]OC1([H])C([H])([H])C2([H])OC3([H])C4([H])C([H])(C([H])([H])[H])C([H])([H])C([H])([H])C([H])(O[H])C4(C([H])([H])[H])C4(O[H])C([H])(OC([H])([H])[H])C([H])([H])C([H])(C([H])([H])[H])C3(O2)C4(C([H])([H])[H])OOC1([H])C([H])([H])[H]

$$$$
114:0:0
     RDKit          3D

 31 36  0  0  1  0  0  0  0  0999 V2000
    3.1036    0.0335   -4.3729 C   0  0  0  0  0  0  0  0  0  0  0  0
    3.8491   -1.2915   -4.2113 C   0  0  0  0  0  0  0  0  0  0  0  0
    4.5322   -1.4180   -2.8499 C   0  0  2  0  0  0  0  0  0  0  0  0
    5.2614   -2.7130   -2.4692 C   0  0  1  0  0  0  0  0  0  0  0  0
    6.3246   -2.5034   -1.3991 C   0  0  0  0  0  0  0  0  0  0  0  0
    7.5389   -2.5693   -1.5175 O   0  0  0  0  0  0  0  0  0  0  0  0
    5.6841   -2.1957   -0.0513 C   0  0  2  0  0  0  0  0  0  0  0  0
    4.3790   -1.3881   -0.2156 C   0  0  2  0  0  0  0  0  0  0  0  0
    3.7895   -2.2019    0.9714 C   0  0  1  0  0  0  0  0  0  0  0  0
    2.9999   -3.4379    0.5086 C   0  0  0  0  0  0  0  0  0  0  0  0
    3.9692   -4.0522   -0.5478 C   0  0  1  0  0  0  0  0  0  0  0  0
    3.9146   -3.2025   -1.8540 C   0  0  1  0  0  0  0  0  0  0  0  0
    3.7092   -1.6887   -1.5849 C   0  0  2  0  0  0  0  0  0  0  0  0
    5.3163   -3.7307    0.1020 C   0  0  2  0  0  0  0  0  0  0  0  0
    5.1177   -2.8463    1.1898 C   0  0  1  0  0  0  0  0  0  0  0  0
    2.6062    0.0796   -5.3409 H   0  0  0  0  0  0  0  0  0  0  0  0
    3.7748    0.8895   -4.2987 H   0  0  0  0  0  0  0  0  0  0  0  0
    2.3447    0.1422   -3.6014 H   0  0  0  0  0  0  0  0  0  0  0  0
    3.1533   -2.1146   -4.3816 H   0  0  0  0  0  0  0  0  0  0  0  0
    4.5983   -1.3571   -4.9944 H   0  0  0  0  0  0  0  0  0  0  0  0
    5.1700   -0.5527   -2.6689 H   0  0  0  0  0  0  0  0  0  0  0  0
    5.5899   -3.2955   -3.3244 H   0  0  0  0  0  0  0  0  0  0  0  0
    4.4530   -0.3218    0.0052 H   0  0  0  0  0  0  0  0  0  0  0  0
    3.4051   -1.6119    1.8092 H   0  0  0  0  0  0  0  0  0  0  0  0
    2.8458   -4.1281    1.3387 H   0  0  0  0  0  0  0  0  0  0  0  0
    2.0274   -3.1719    0.0967 H   0  0  0  0  0  0  0  0  0  0  0  0
    3.8373   -5.1229   -0.7056 H   0  0  0  0  0  0  0  0  0  0  0  0
    3.2192   -3.5702   -2.6099 H   0  0  0  0  0  0  0  0  0  0  0  0
    2.6707   -1.3727   -1.6721 H   0  0  0  0  0  0  0  0  0  0  0  0
    6.0891   -4.4929    0.1693 H   0  0  0  0  0  0  0  0  0  0  0  0
    5.6978   -2.7832    2.1018 H   0  0  0  0  0  0  0  0  0  0  0  0
  1  2  1  0
  1 16  1  0
  1 17  1  0
  1 18  1  0
  2  3  1  0
  2 19  1  0
  2 20  1  0
  3 13  1  0
  3  4  1  0
  3 21  1  1
  4 12  1  0
  4  5  1  0
  4 22  1  6
  5  6  2  0
  7  5  1  1
  7 14  1  0
  7 15  1  0
  7  8  1  0
  8 13  1  0
  8  9  1  0
  8 23  1  1
  9 15  1  0
  9 10  1  0
  9 24  1  1
 10 11  1  0
 10 25  1  0
 10 26  1  0
 11 12  1  0
 11 14  1  0
 11 27  1  6
 12 13  1  0
 12 28  1  6
 13 29  1  6
 14 15  1  0
 14 30  1  1
 15 31  1  1
M  END
>  <i_m_ct_stereo_status>  (356) 
1

>  <s_m_source_file>  (356) 
/var/tmp/pbs.5076255.sched01/tmpycp4azd_/132pnz8hy5b.sdf

>  <i_m_source_file_index>  (356) 
39

>  <i_lp_mmshare_version>  (356) 
48012

>  <i_f3d_flags>  (356) 
0

>  <s_epik_input>  (356) 
W0NIM11bQ0gyXVtDQEBIXShbQ0BIXTEyKVtDQEBIXShDMz1PKVtDQEhdMltDQEhdKFtDSDJdNClbQ0BASF01W0NAQEhdNltDQEhdNFtDQEhdMVtDQF0zNTY=

>  <s_epik_cmdline>  (356) 
J2VwaWtfcHl0aG9uJywgJy1waHQnLCAnMi4wJywgJy1waCcsICc3LjAnLCAnLXRuJywgJzgnLCAnLW1hJywgJzIwMCcsICctaW1hZScsICc8aW5maWxlLm1hZT4nLCAnLW9tYWUnLCAnPG91dGZpbGUubWFlPic=

>  <r_lp_tautomer_probability>  (356) 
1

>  <r_epik_Ionization_Penalty>  (356) 
7.2357e-15

>  <r_epik_Ionization_Penalty_Charging>  (356) 
0

>  <r_epik_Ionization_Penalty_Neutral>  (356) 
7.2357e-15

>  <r_epik_State_Penalty>  (356) 
-0

>  <r_epik_Charging_Adjusted_Penalty>  (356) 
0

>  <i_epik_Tot_Q>  (356) 
0

>  <i_epik_Tot_abs_Q>  (356) 
0

>  <s_lp_Force_Field>  (356) 
OPLS3e

>  <r_lp_Energy>  (356) 
106.77

>  <b_lp_Chiralities_Consistent>  (356) 
1

>  <s_lp_Variant>  (356) 
114:0-1

>  <s_i_glide_gridfile>  (356) 
pfpi4k_grid

>  <i_i_glide_lignum>  (356) 
39

>  <i_i_glide_rotatable_bonds>  (356) 
1

>  <r_i_docking_score>  (356) 
-3.6359

>  <r_i_glide_ligand_efficiency>  (356) 
-0.242393

>  <r_i_glide_ligand_efficiency_sa>  (356) 
-0.597793

>  <r_i_glide_ligand_efficiency_ln>  (356) 
-0.980542

>  <r_i_glide_gscore>  (356) 
-3.6359

>  <r_i_glide_lipo>  (356) 
-0.357077

>  <r_i_glide_hbond>  (356) 
-0.16

>  <r_i_glide_metal>  (356) 
-0

>  <r_i_glide_rewards>  (356) 
-2.04357

>  <r_i_glide_evdw>  (356) 
-18.1048

>  <r_i_glide_ecoul>  (356) 
-0.896579

>  <r_i_glide_erotb>  (356) 
0

>  <r_i_glide_esite>  (356) 
-0.0355233

>  <r_i_glide_emodel>  (356) 
-23.2634

>  <r_i_glide_energy>  (356) 
-19.0014

>  <r_i_glide_einternal>  (356) 
0.141616

>  <r_i_glide_intrahb_reward>  (356) 
-0

>  <i_i_glide_confnum>  (356) 
1

>  <i_i_glide_posenum>  (356) 
9

>  <r_i_glide_eff_state_penalty>  (356) 
0

>  <ligand_id>  (356) 
114

>  <original_smiles>  (356) 
CCC1C2C(=O)C34C5C6CC(C2C15)C3C64

>  <smiles>  (356) 
[H]C([H])([H])C([H])([H])C1([H])C2([H])C(=O)C34C5([H])C6([H])C([H])([H])C([H])(C2([H])C15[H])C3([H])C64[H]

$$$$
114:0:1
     RDKit          3D

 31 36  0  0  1  0  0  0  0  0999 V2000
    4.0832   -0.3480   -5.0006 C   0  0  0  0  0  0  0  0  0  0  0  0
    3.3000   -1.4048   -4.2684 C   0  0  0  0  0  0  0  0  0  0  0  0
    3.7962   -1.5429   -2.8228 C   0  0  2  0  0  0  0  0  0  0  0  0
    5.0613   -2.3593   -2.4325 C   0  0  1  0  0  0  0  0  0  0  0  0
    5.6364   -1.9876   -1.0504 C   0  0  0  0  0  0  0  0  0  0  0  0
    6.6808   -1.4526   -0.7246 O   0  0  0  0  0  0  0  0  0  0  0  0
    4.6768   -2.4587    0.0345 C   0  0  2  0  0  0  0  0  0  0  0  0
    3.2031   -2.3608   -0.3863 C   0  0  2  0  0  0  0  0  0  0  0  0
    2.9718   -3.6644    0.4606 C   0  0  1  0  0  0  0  0  0  0  0  0
    3.0674   -4.9255   -0.4062 C   0  0  0  0  0  0  0  0  0  0  0  0
    4.3970   -4.6476   -1.1911 C   0  0  1  0  0  0  0  0  0  0  0  0
    4.1159   -3.6128   -2.3548 C   0  0  1  0  0  0  0  0  0  0  0  0
    3.0468   -2.5537   -1.9236 C   0  0  2  0  0  0  0  0  0  0  0  0
    5.2055   -3.9332   -0.1234 C   0  0  2  0  0  0  0  0  0  0  0  0
    4.3673   -3.5861    0.9759 C   0  0  1  0  0  0  0  0  0  0  0  0
    3.7019   -0.1882   -6.0149 H   0  0  0  0  0  0  0  0  0  0  0  0
    5.0818   -0.7493   -4.9917 H   0  0  0  0  0  0  0  0  0  0  0  0
    4.1214    0.6132   -4.4911 H   0  0  0  0  0  0  0  0  0  0  0  0
    2.2417   -1.1646   -4.3364 H   0  0  0  0  0  0  0  0  0  0  0  0
    3.4323   -2.3321   -4.8296 H   0  0  0  0  0  0  0  0  0  0  0  0
    3.8221   -0.5489   -2.3401 H   0  0  0  0  0  0  0  0  0  0  0  0
    5.8080   -2.4777   -3.2372 H   0  0  0  0  0  0  0  0  0  0  0  0
    2.6623   -1.4629    0.0377 H   0  0  0  0  0  0  0  0  0  0  0  0
    2.1965   -3.5545    1.2082 H   0  0  0  0  0  0  0  0  0  0  0  0
    3.1553   -5.7946    0.2250 H   0  0  0  0  0  0  0  0  0  0  0  0
    2.1664   -5.0229   -1.0213 H   0  0  0  0  0  0  0  0  0  0  0  0
    4.9335   -5.5383   -1.5260 H   0  0  0  0  0  0  0  0  0  0  0  0
    3.8903   -4.0384   -3.3390 H   0  0  0  0  0  0  0  0  0  0  0  0
    2.0164   -2.7885   -2.2784 H   0  0  0  0  0  0  0  0  0  0  0  0
    6.2600   -4.2024    0.0236 H   0  0  0  0  0  0  0  0  0  0  0  0
    4.6320   -3.5410    2.0417 H   0  0  0  0  0  0  0  0  0  0  0  0
  1  2  1  0
  1 16  1  0
  1 17  1  0
  1 18  1  0
  2  3  1  0
  2 19  1  0
  2 20  1  0
  3 13  1  0
  3  4  1  0
  3 21  1  1
  4 12  1  0
  4  5  1  0
  4 22  1  6
  5  6  2  0
  7  5  1  1
  7 14  1  0
  7 15  1  0
  7  8  1  0
  8 13  1  0
  8  9  1  0
  8 23  1  1
  9 15  1  0
  9 10  1  0
  9 24  1  1
 10 11  1  0
 10 25  1  0
 10 26  1  0
 11 12  1  0
 11 14  1  0
 11 27  1  6
 12 13  1  0
 12 28  1  6
 13 29  1  1
 14 15  1  0
 14 30  1  1
 15 31  1  1
M  END
>  <i_m_ct_stereo_status>  (357) 
1

>  <s_m_source_file>  (357) 
/var/tmp/pbs.5076255.sched01/tmpycp4azd_/132pnz8hy5b.sdf

>  <i_m_source_file_index>  (357) 
39

>  <i_lp_mmshare_version>  (357) 
48012

>  <i_f3d_flags>  (357) 
0

>  <s_epik_input>  (357) 
W0NIM11bQ0gyXVtDQEBIXShbQ0BIXTEyKVtDQEBIXShDMz1PKVtDQEhdMltDQEhdKFtDSDJdNClbQ0BASF01W0NAQEhdNltDQEhdNFtDQEhdMVtDQF0zNTY=

>  <s_epik_cmdline>  (357) 
J2VwaWtfcHl0aG9uJywgJy1waHQnLCAnMi4wJywgJy1waCcsICc3LjAnLCAnLXRuJywgJzgnLCAnLW1hJywgJzIwMCcsICctaW1hZScsICc8aW5maWxlLm1hZT4nLCAnLW9tYWUnLCAnPG91dGZpbGUubWFlPic=

>  <r_lp_tautomer_probability>  (357) 
1

>  <r_epik_Ionization_Penalty>  (357) 
7.2357e-15

>  <r_epik_Ionization_Penalty_Charging>  (357) 
0

>  <r_epik_Ionization_Penalty_Neutral>  (357) 
7.2357e-15

>  <r_epik_State_Penalty>  (357) 
-0

>  <r_epik_Charging_Adjusted_Penalty>  (357) 
0

>  <i_epik_Tot_Q>  (357) 
0

>  <i_epik_Tot_abs_Q>  (357) 
0

>  <s_lp_Force_Field>  (357) 
OPLS3e

>  <r_lp_Energy>  (357) 
106.77

>  <b_lp_Chiralities_Consistent>  (357) 
1

>  <s_lp_Variant>  (357) 
114:0-1

>  <s_i_glide_gridfile>  (357) 
pfpi4k_grid

>  <i_i_glide_lignum>  (357) 
39

>  <i_i_glide_rotatable_bonds>  (357) 
1

>  <r_i_docking_score>  (357) 
-3.45519

>  <r_i_glide_ligand_efficiency>  (357) 
-0.230346

>  <r_i_glide_ligand_efficiency_sa>  (357) 
-0.568082

>  <r_i_glide_ligand_efficiency_ln>  (357) 
-0.931808

>  <r_i_glide_gscore>  (357) 
-3.45519

>  <r_i_glide_lipo>  (357) 
-0.406225

>  <r_i_glide_hbond>  (357) 
-0.130997

>  <r_i_glide_metal>  (357) 
-0

>  <r_i_glide_rewards>  (357) 
-2.09357

>  <r_i_glide_evdw>  (357) 
-6.19543

>  <r_i_glide_ecoul>  (357) 
-3.16509

>  <r_i_glide_erotb>  (357) 
0

>  <r_i_glide_esite>  (357) 
-0.0398627

>  <r_i_glide_emodel>  (357) 
-13.2628

>  <r_i_glide_energy>  (357) 
-9.36052

>  <r_i_glide_einternal>  (357) 
0.150195

>  <r_i_glide_intrahb_reward>  (357) 
-0

>  <i_i_glide_confnum>  (357) 
2

>  <i_i_glide_posenum>  (357) 
40

>  <r_i_glide_eff_state_penalty>  (357) 
0

>  <ligand_id>  (357) 
114

>  <original_smiles>  (357) 
CCC1C2C(=O)C34C5C6CC(C2C15)C3C64

>  <smiles>  (357) 
[H]C([H])([H])C([H])([H])C1([H])C2([H])C(=O)C34C5([H])C6([H])C([H])([H])C([H])(C2([H])C15[H])C3([H])C64[H]

$$$$
114:0:2
     RDKit          3D

 31 36  0  0  1  0  0  0  0  0999 V2000
    2.4295    1.3498   -5.4018 C   0  0  0  0  0  0  0  0  0  0  0  0
    3.6295    1.1589   -4.4836 C   0  0  0  0  0  0  0  0  0  0  0  0
    3.3790    0.0744   -3.4299 C   0  0  2  0  0  0  0  0  0  0  0  0
    4.5800   -0.4793   -2.6442 C   0  0  1  0  0  0  0  0  0  0  0  0
    4.1919   -1.0943   -1.3117 C   0  0  0  0  0  0  0  0  0  0  0  0
    4.5046   -0.7041   -0.1704 O   0  0  0  0  0  0  0  0  0  0  0  0
    3.3902   -2.3656   -1.5366 C   0  0  2  0  0  0  0  0  0  0  0  0
    2.5191   -2.3052   -2.8234 C   0  0  2  0  0  0  0  0  0  0  0  0
    2.8635   -3.7838   -3.0502 C   0  0  1  0  0  0  0  0  0  0  0  0
    4.0775   -4.0048   -3.9803 C   0  0  0  0  0  0  0  0  0  0  0  0
    5.0885   -3.0018   -3.3690 C   0  0  1  0  0  0  0  0  0  0  0  0
    4.6707   -1.5549   -3.7900 C   0  0  1  0  0  0  0  0  0  0  0  0
    3.1461   -1.3665   -3.8659 C   0  0  2  0  0  0  0  0  0  0  0  0
    4.7450   -3.1337   -1.8777 C   0  0  2  0  0  0  0  0  0  0  0  0
    3.5345   -3.8556   -1.6973 C   0  0  1  0  0  0  0  0  0  0  0  0
    2.6049    2.1209   -6.1465 H   0  0  0  0  0  0  0  0  0  0  0  0
    1.5303    1.6262   -4.8512 H   0  0  0  0  0  0  0  0  0  0  0  0
    2.2116    0.4121   -5.9017 H   0  0  0  0  0  0  0  0  0  0  0  0
    4.5061    0.9423   -5.0943 H   0  0  0  0  0  0  0  0  0  0  0  0
    3.8409    2.1048   -3.9924 H   0  0  0  0  0  0  0  0  0  0  0  0
    2.5218    0.2995   -2.7920 H   0  0  0  0  0  0  0  0  0  0  0  0
    5.4183    0.2079   -2.5828 H   0  0  0  0  0  0  0  0  0  0  0  0
    1.4368   -2.1908   -2.7049 H   0  0  0  0  0  0  0  0  0  0  0  0
    1.9468   -4.3307   -3.2149 H   0  0  0  0  0  0  0  0  0  0  0  0
    4.4567   -5.0270   -3.9210 H   0  0  0  0  0  0  0  0  0  0  0  0
    3.8475   -3.8008   -5.0230 H   0  0  0  0  0  0  0  0  0  0  0  0
    6.1327   -3.2477   -3.5563 H   0  0  0  0  0  0  0  0  0  0  0  0
    5.0710   -1.1859   -4.7265 H   0  0  0  0  0  0  0  0  0  0  0  0
    2.7307   -1.4809   -4.8641 H   0  0  0  0  0  0  0  0  0  0  0  0
    5.5501   -3.2442   -1.1463 H   0  0  0  0  0  0  0  0  0  0  0  0
    3.3023   -4.5403   -0.8767 H   0  0  0  0  0  0  0  0  0  0  0  0
  1  2  1  0
  1 16  1  0
  1 17  1  0
  1 18  1  0
  2  3  1  0
  2 19  1  0
  2 20  1  0
  3 13  1  0
  3  4  1  0
  3 21  1  1
  4 12  1  0
  4  5  1  0
  4 22  1  1
  5  6  2  0
  7  5  1  1
  7 14  1  0
  7 15  1  0
  7  8  1  0
  8 13  1  0
  8  9  1  0
  8 23  1  1
  9 15  1  0
  9 10  1  0
  9 24  1  1
 10 11  1  0
 10 25  1  0
 10 26  1  0
 11 12  1  0
 11 14  1  0
 11 27  1  1
 12 13  1  0
 12 28  1  6
 13 29  1  6
 14 15  1  0
 14 30  1  1
 15 31  1  1
M  END
>  <i_m_ct_stereo_status>  (358) 
1

>  <s_m_source_file>  (358) 
/var/tmp/pbs.5076255.sched01/tmpycp4azd_/132pnz8hy5b.sdf

>  <i_m_source_file_index>  (358) 
39

>  <i_lp_mmshare_version>  (358) 
48012

>  <i_f3d_flags>  (358) 
0

>  <s_epik_input>  (358) 
W0NIM11bQ0gyXVtDQEBIXShbQ0BIXTEyKVtDQEBIXShDMz1PKVtDQEhdMltDQEhdKFtDSDJdNClbQ0BASF01W0NAQEhdNltDQEhdNFtDQEhdMVtDQF0zNTY=

>  <s_epik_cmdline>  (358) 
J2VwaWtfcHl0aG9uJywgJy1waHQnLCAnMi4wJywgJy1waCcsICc3LjAnLCAnLXRuJywgJzgnLCAnLW1hJywgJzIwMCcsICctaW1hZScsICc8aW5maWxlLm1hZT4nLCAnLW9tYWUnLCAnPG91dGZpbGUubWFlPic=

>  <r_lp_tautomer_probability>  (358) 
1

>  <r_epik_Ionization_Penalty>  (358) 
7.2357e-15

>  <r_epik_Ionization_Penalty_Charging>  (358) 
0

>  <r_epik_Ionization_Penalty_Neutral>  (358) 
7.2357e-15

>  <r_epik_State_Penalty>  (358) 
-0

>  <r_epik_Charging_Adjusted_Penalty>  (358) 
0

>  <i_epik_Tot_Q>  (358) 
0

>  <i_epik_Tot_abs_Q>  (358) 
0

>  <s_lp_Force_Field>  (358) 
OPLS3e

>  <r_lp_Energy>  (358) 
106.77

>  <b_lp_Chiralities_Consistent>  (358) 
1

>  <s_lp_Variant>  (358) 
114:0-1

>  <s_i_glide_gridfile>  (358) 
pfpi4k_grid

>  <i_i_glide_lignum>  (358) 
39

>  <i_i_glide_rotatable_bonds>  (358) 
1

>  <r_i_docking_score>  (358) 
-2.66986

>  <r_i_glide_ligand_efficiency>  (358) 
-0.177991

>  <r_i_glide_ligand_efficiency_sa>  (358) 
-0.438963

>  <r_i_glide_ligand_efficiency_ln>  (358) 
-0.720018

>  <r_i_glide_gscore>  (358) 
-2.66986

>  <r_i_glide_lipo>  (358) 
-0.477584

>  <r_i_glide_hbond>  (358) 
0

>  <r_i_glide_metal>  (358) 
-0

>  <r_i_glide_rewards>  (358) 
-2.04357

>  <r_i_glide_evdw>  (358) 
-4.1407

>  <r_i_glide_ecoul>  (358) 
0.674542

>  <r_i_glide_erotb>  (358) 
0

>  <r_i_glide_esite>  (358) 
-0.0428538

>  <r_i_glide_emodel>  (358) 
-6.25049

>  <r_i_glide_energy>  (358) 
-3.46616

>  <r_i_glide_einternal>  (358) 
0.330674

>  <r_i_glide_intrahb_reward>  (358) 
-0

>  <i_i_glide_confnum>  (358) 
1

>  <i_i_glide_posenum>  (358) 
25

>  <r_i_glide_eff_state_penalty>  (358) 
0

>  <ligand_id>  (358) 
114

>  <original_smiles>  (358) 
CCC1C2C(=O)C34C5C6CC(C2C15)C3C64

>  <smiles>  (358) 
[H]C([H])([H])C([H])([H])C1([H])C2([H])C(=O)C34C5([H])C6([H])C([H])([H])C([H])(C2([H])C15[H])C3([H])C64[H]

$$$$
116:0:0
     RDKit          3D

 48 52  0  0  1  0  0  0  0  0999 V2000
    5.1937   -3.8431   -1.9911 C   0  0  0  0  0  0  0  0  0  0  0  0
    4.6549   -3.2485   -0.6772 C   0  0  1  0  0  0  0  0  0  0  0  0
    3.2550   -3.8620   -0.3485 C   0  0  0  0  0  0  0  0  0  0  0  0
    3.2690   -5.0100    0.6717 C   0  0  2  0  0  0  0  0  0  0  0  0
    2.2131   -5.0038    1.7824 C   0  0  1  0  0  0  0  0  0  0  0  0
    1.1292   -5.9107    1.6640 O   0  0  0  0  0  0  0  0  0  0  0  0
    3.2984   -5.3097    2.8232 C   0  0  1  0  0  0  0  0  0  0  0  0
    4.3518   -4.9991    1.7537 C   0  0  2  0  0  0  0  0  0  0  0  0
    5.1505   -3.7086    1.8659 C   0  0  2  0  0  0  0  0  0  0  0  0
    4.3017   -2.5981    2.5380 C   0  0  0  0  0  0  0  0  0  0  0  0
    3.6796   -2.9918    3.9074 C   0  0  2  0  0  0  0  0  0  0  0  0
    4.5782   -2.6185    5.0804 C   0  0  0  0  0  0  0  0  0  0  0  0
    4.9451   -1.4751    5.3370 O   0  0  0  0  0  0  0  0  0  0  0  0
    4.9537   -3.8304    5.9109 C   0  0  0  0  0  0  0  0  0  0  0  0
    4.5364   -4.9990    5.0174 C   0  0  0  0  0  0  0  0  0  0  0  0
    3.3654   -4.5053    4.1309 C   0  0  2  0  0  0  0  0  0  0  0  0
    2.0419   -4.6676    4.9087 C   0  0  0  0  0  0  0  0  0  0  0  0
    5.7183   -3.3812    0.4584 C   0  0  2  0  0  0  0  0  0  0  0  0
    6.5710   -2.0987    0.4207 C   0  0  0  0  0  0  0  0  0  0  0  0
    5.6568   -0.9954   -0.1136 C   0  0  0  0  0  0  0  0  0  0  0  0
    4.5702   -1.7354   -0.8636 C   0  0  0  0  0  0  0  0  0  0  0  0
    3.7560   -1.1731   -1.5924 O   0  0  0  0  0  0  0  0  0  0  0  0
    5.3860   -4.9067   -1.8838 H   0  0  0  0  0  0  0  0  0  0  0  0
    6.1244   -3.3704   -2.3002 H   0  0  0  0  0  0  0  0  0  0  0  0
    4.4885   -3.7263   -2.8129 H   0  0  0  0  0  0  0  0  0  0  0  0
    2.5853   -3.0766    0.0063 H   0  0  0  0  0  0  0  0  0  0  0  0
    2.7651   -4.2017   -1.2605 H   0  0  0  0  0  0  0  0  0  0  0  0
    3.3034   -5.9844    0.1787 H   0  0  0  0  0  0  0  0  0  0  0  0
    1.8147   -3.9954    1.9340 H   0  0  0  0  0  0  0  0  0  0  0  0
    1.4905   -6.7843    1.6422 H   0  0  0  0  0  0  0  0  0  0  0  0
    3.3071   -6.3874    3.0148 H   0  0  0  0  0  0  0  0  0  0  0  0
    5.0087   -5.8627    1.6277 H   0  0  0  0  0  0  0  0  0  0  0  0
    6.0136   -3.8793    2.5132 H   0  0  0  0  0  0  0  0  0  0  0  0
    4.8998   -1.6927    2.6481 H   0  0  0  0  0  0  0  0  0  0  0  0
    3.4829   -2.3024    1.8865 H   0  0  0  0  0  0  0  0  0  0  0  0
    2.7647   -2.4128    4.0214 H   0  0  0  0  0  0  0  0  0  0  0  0
    6.0135   -3.8416    6.1569 H   0  0  0  0  0  0  0  0  0  0  0  0
    4.3802   -3.8159    6.8363 H   0  0  0  0  0  0  0  0  0  0  0  0
    5.3896   -5.2753    4.3985 H   0  0  0  0  0  0  0  0  0  0  0  0
    4.2704   -5.8807    5.6001 H   0  0  0  0  0  0  0  0  0  0  0  0
    2.0663   -4.1565    5.8708 H   0  0  0  0  0  0  0  0  0  0  0  0
    1.8348   -5.7192    5.1033 H   0  0  0  0  0  0  0  0  0  0  0  0
    1.1963   -4.2679    4.3498 H   0  0  0  0  0  0  0  0  0  0  0  0
    6.3812   -4.2118    0.2141 H   0  0  0  0  0  0  0  0  0  0  0  0
    7.0016   -1.8412    1.3910 H   0  0  0  0  0  0  0  0  0  0  0  0
    7.4033   -2.2427   -0.2717 H   0  0  0  0  0  0  0  0  0  0  0  0
    5.2147   -0.4074    0.6914 H   0  0  0  0  0  0  0  0  0  0  0  0
    6.1849   -0.3143   -0.7778 H   0  0  0  0  0  0  0  0  0  0  0  0
  2  1  1  6
  1 23  1  0
  1 24  1  0
  1 25  1  0
  2 18  1  0
  2 21  1  0
  2  3  1  0
  3  4  1  0
  3 26  1  0
  3 27  1  0
  4  8  1  0
  4  5  1  0
  4 28  1  6
  5  6  1  0
  5  7  1  0
  5 29  1  1
  6 30  1  0
  7 16  1  0
  7  8  1  0
  7 31  1  1
  8  9  1  0
  8 32  1  6
  9 10  1  0
  9 18  1  0
  9 33  1  1
 10 11  1  0
 10 34  1  0
 10 35  1  0
 11 16  1  0
 11 12  1  0
 11 36  1  1
 12 13  2  0
 12 14  1  0
 14 15  1  0
 14 37  1  0
 14 38  1  0
 15 16  1  0
 15 39  1  0
 15 40  1  0
 16 17  1  1
 17 41  1  0
 17 42  1  0
 17 43  1  0
 18 19  1  0
 18 44  1  6
 19 20  1  0
 19 45  1  0
 19 46  1  0
 20 21  1  0
 20 47  1  0
 20 48  1  0
 21 22  2  0
M  END
>  <i_m_ct_stereo_status>  (359) 
1

>  <s_m_source_file>  (359) 
/var/tmp/pbs.5076255.sched01/tmpycp4azd_/132pnz8hy5b.sdf

>  <i_m_source_file_index>  (359) 
41

>  <i_lp_mmshare_version>  (359) 
48012

>  <i_f3d_flags>  (359) 
0

>  <s_epik_input>  (359) 
Tz1DMVtDSDJdW0NIMl1bQ0BIXShbQ0BdMTJbQ0gzXSlbQ0BASF0zW0NAQEhdNFtDQEhdKFtDSDJdMilbQ0BASF0oW09IXSlbQ0BASF00W0NAXTUoW0NIM10pW0NASF0oW0NIMl0zKUMoPU8pW0NIMl1bQ0gyXTU=

>  <s_epik_cmdline>  (359) 
J2VwaWtfcHl0aG9uJywgJy1waHQnLCAnMi4wJywgJy1waCcsICc3LjAnLCAnLXRuJywgJzgnLCAnLW1hJywgJzIwMCcsICctaW1hZScsICc8aW5maWxlLm1hZT4nLCAnLW9tYWUnLCAnPG91dGZpbGUubWFlPic=

>  <r_lp_tautomer_probability>  (359) 
1

>  <r_epik_Ionization_Penalty>  (359) 
9.36543e-07

>  <r_epik_Ionization_Penalty_Charging>  (359) 
0

>  <r_epik_Ionization_Penalty_Neutral>  (359) 
9.36543e-07

>  <r_epik_State_Penalty>  (359) 
-0

>  <r_epik_Charging_Adjusted_Penalty>  (359) 
0

>  <i_epik_Tot_Q>  (359) 
0

>  <i_epik_Tot_abs_Q>  (359) 
0

>  <s_lp_Force_Field>  (359) 
OPLS3e

>  <r_lp_Energy>  (359) 
31.0013

>  <b_lp_Chiralities_Consistent>  (359) 
1

>  <s_lp_Variant>  (359) 
116:0-1

>  <s_i_glide_gridfile>  (359) 
pfpi4k_grid

>  <i_i_glide_lignum>  (359) 
41

>  <i_i_glide_rotatable_bonds>  (359) 
1

>  <r_i_docking_score>  (359) 
-3.15211

>  <r_i_glide_ligand_efficiency>  (359) 
-0.143278

>  <r_i_glide_ligand_efficiency_sa>  (359) 
-0.40147

>  <r_i_glide_ligand_efficiency_ln>  (359) 
-0.770491

>  <r_i_glide_gscore>  (359) 
-3.15211

>  <r_i_glide_lipo>  (359) 
-0.241092

>  <r_i_glide_hbond>  (359) 
-0.13608

>  <r_i_glide_metal>  (359) 
-0

>  <r_i_glide_rewards>  (359) 
-1.36761

>  <r_i_glide_evdw>  (359) 
-19.574

>  <r_i_glide_ecoul>  (359) 
-2.63833

>  <r_i_glide_erotb>  (359) 
0

>  <r_i_glide_esite>  (359) 
-0.0328795

>  <r_i_glide_emodel>  (359) 
-26.4021

>  <r_i_glide_energy>  (359) 
-22.2123

>  <r_i_glide_einternal>  (359) 
0.0240991

>  <r_i_glide_intrahb_reward>  (359) 
-0

>  <i_i_glide_confnum>  (359) 
1

>  <i_i_glide_posenum>  (359) 
27

>  <r_i_glide_eff_state_penalty>  (359) 
0

>  <ligand_id>  (359) 
116

>  <original_smiles>  (359) 
CC12CC3C(O)C4C3C(CC3C(=O)CCC34C)C1CCC2=O

>  <smiles>  (359) 
[H]OC1([H])C2([H])C([H])([H])C3(C([H])([H])[H])C(=O)C([H])([H])C([H])([H])C3([H])C3([H])C([H])([H])C4([H])C(=O)C([H])([H])C([H])([H])C4(C([H])([H])[H])C1([H])C23[H]

$$$$
116:0:1
     RDKit          3D

 48 52  0  0  1  0  0  0  0  0999 V2000
    2.2115   -3.3978   -3.3932 C   0  0  0  0  0  0  0  0  0  0  0  0
    3.1775   -3.0931   -2.2246 C   0  0  1  0  0  0  0  0  0  0  0  0
    2.4809   -3.2389   -0.8404 C   0  0  0  0  0  0  0  0  0  0  0  0
    2.7772   -4.5270   -0.0455 C   0  0  2  0  0  0  0  0  0  0  0  0
    3.0945   -4.4210    1.4571 C   0  0  1  0  0  0  0  0  0  0  0  0
    2.1041   -4.8692    2.3611 O   0  0  0  0  0  0  0  0  0  0  0  0
    4.3182   -5.3253    1.2763 C   0  0  1  0  0  0  0  0  0  0  0  0
    4.1621   -5.1333   -0.2127 C   0  0  2  0  0  0  0  0  0  0  0  0
    5.1513   -4.2792   -0.9504 C   0  0  2  0  0  0  0  0  0  0  0  0
    5.6828   -3.1295   -0.0699 C   0  0  0  0  0  0  0  0  0  0  0  0
    6.2966   -3.6725    1.2525 C   0  0  2  0  0  0  0  0  0  0  0  0
    7.7966   -3.9923    1.0967 C   0  0  0  0  0  0  0  0  0  0  0  0
    8.6368   -3.2221    0.6908 O   0  0  0  0  0  0  0  0  0  0  0  0
    8.1112   -5.4073    1.5366 C   0  0  0  0  0  0  0  0  0  0  0  0
    6.7351   -6.0690    1.5316 C   0  0  0  0  0  0  0  0  0  0  0  0
    5.6836   -4.9707    1.8656 C   0  0  2  0  0  0  0  0  0  0  0  0
    5.5400   -4.8570    3.3900 C   0  0  0  0  0  0  0  0  0  0  0  0
    4.5471   -3.8440   -2.3232 C   0  0  2  0  0  0  0  0  0  0  0  0
    5.4422   -3.0226   -3.1959 C   0  0  0  0  0  0  0  0  0  0  0  0
    5.0263   -1.5757   -3.0059 C   0  0  0  0  0  0  0  0  0  0  0  0
    3.6433   -1.6789   -2.4881 C   0  0  0  0  0  0  0  0  0  0  0  0
    2.9754   -0.6686   -2.4044 O   0  0  0  0  0  0  0  0  0  0  0  0
    1.8206   -4.4200   -3.3783 H   0  0  0  0  0  0  0  0  0  0  0  0
    2.6632   -3.2408   -4.3787 H   0  0  0  0  0  0  0  0  0  0  0  0
    1.3076   -2.7894   -3.3434 H   0  0  0  0  0  0  0  0  0  0  0  0
    2.7136   -2.3683   -0.2068 H   0  0  0  0  0  0  0  0  0  0  0  0
    1.4056   -3.1967   -0.9850 H   0  0  0  0  0  0  0  0  0  0  0  0
    2.0673   -5.3465   -0.2397 H   0  0  0  0  0  0  0  0  0  0  0  0
    3.4156   -3.4012    1.6903 H   0  0  0  0  0  0  0  0  0  0  0  0
    2.1038   -5.8198    2.3268 H   0  0  0  0  0  0  0  0  0  0  0  0
    4.0319   -6.3574    1.4963 H   0  0  0  0  0  0  0  0  0  0  0  0
    4.1122   -6.1422   -0.6192 H   0  0  0  0  0  0  0  0  0  0  0  0
    6.0044   -4.9137   -1.0948 H   0  0  0  0  0  0  0  0  0  0  0  0
    6.4553   -2.6242   -0.6520 H   0  0  0  0  0  0  0  0  0  0  0  0
    4.9125   -2.3775    0.1503 H   0  0  0  0  0  0  0  0  0  0  0  0
    6.1949   -2.8590    1.9640 H   0  0  0  0  0  0  0  0  0  0  0  0
    8.8418   -5.8714    0.8693 H   0  0  0  0  0  0  0  0  0  0  0  0
    8.5336   -5.3641    2.5386 H   0  0  0  0  0  0  0  0  0  0  0  0
    6.5794   -6.4664    0.5253 H   0  0  0  0  0  0  0  0  0  0  0  0
    6.7023   -6.9098    2.2272 H   0  0  0  0  0  0  0  0  0  0  0  0
    6.4874   -4.6490    3.8816 H   0  0  0  0  0  0  0  0  0  0  0  0
    5.1164   -5.7764    3.7966 H   0  0  0  0  0  0  0  0  0  0  0  0
    4.8710   -4.0444    3.6601 H   0  0  0  0  0  0  0  0  0  0  0  0
    4.4298   -4.6966   -2.9922 H   0  0  0  0  0  0  0  0  0  0  0  0
    6.5131   -3.1974   -3.0314 H   0  0  0  0  0  0  0  0  0  0  0  0
    5.2100   -3.3421   -4.2210 H   0  0  0  0  0  0  0  0  0  0  0  0
    5.6364   -1.0677   -2.2834 H   0  0  0  0  0  0  0  0  0  0  0  0
    5.0306   -1.0422   -3.9569 H   0  0  0  0  0  0  0  0  0  0  0  0
  2  1  1  6
  1 23  1  0
  1 24  1  0
  1 25  1  0
  2 18  1  0
  2 21  1  0
  2  3  1  0
  3  4  1  0
  3 26  1  0
  3 27  1  0
  4  8  1  0
  4  5  1  0
  4 28  1  1
  5  6  1  0
  5  7  1  0
  5 29  1  1
  6 30  1  0
  7 16  1  0
  7  8  1  0
  7 31  1  6
  8  9  1  0
  8 32  1  6
  9 10  1  0
  9 18  1  0
  9 33  1  6
 10 11  1  0
 10 34  1  0
 10 35  1  0
 11 16  1  0
 11 12  1  0
 11 36  1  1
 12 13  2  0
 12 14  1  0
 14 15  1  0
 14 37  1  0
 14 38  1  0
 15 16  1  0
 15 39  1  0
 15 40  1  0
 16 17  1  1
 17 41  1  0
 17 42  1  0
 17 43  1  0
 18 19  1  0
 18 44  1  6
 19 20  1  0
 19 45  1  0
 19 46  1  0
 20 21  1  0
 20 47  1  0
 20 48  1  0
 21 22  2  0
M  END
>  <i_m_ct_stereo_status>  (360) 
1

>  <s_m_source_file>  (360) 
/var/tmp/pbs.5076255.sched01/tmpycp4azd_/132pnz8hy5b.sdf

>  <i_m_source_file_index>  (360) 
41

>  <i_lp_mmshare_version>  (360) 
48012

>  <i_f3d_flags>  (360) 
0

>  <s_epik_input>  (360) 
Tz1DMVtDSDJdW0NIMl1bQ0BIXShbQ0BdMTJbQ0gzXSlbQ0BASF0zW0NAQEhdNFtDQEhdKFtDSDJdMilbQ0BASF0oW09IXSlbQ0BASF00W0NAXTUoW0NIM10pW0NASF0oW0NIMl0zKUMoPU8pW0NIMl1bQ0gyXTU=

>  <s_epik_cmdline>  (360) 
J2VwaWtfcHl0aG9uJywgJy1waHQnLCAnMi4wJywgJy1waCcsICc3LjAnLCAnLXRuJywgJzgnLCAnLW1hJywgJzIwMCcsICctaW1hZScsICc8aW5maWxlLm1hZT4nLCAnLW9tYWUnLCAnPG91dGZpbGUubWFlPic=

>  <r_lp_tautomer_probability>  (360) 
1

>  <r_epik_Ionization_Penalty>  (360) 
9.36543e-07

>  <r_epik_Ionization_Penalty_Charging>  (360) 
0

>  <r_epik_Ionization_Penalty_Neutral>  (360) 
9.36543e-07

>  <r_epik_State_Penalty>  (360) 
-0

>  <r_epik_Charging_Adjusted_Penalty>  (360) 
0

>  <i_epik_Tot_Q>  (360) 
0

>  <i_epik_Tot_abs_Q>  (360) 
0

>  <s_lp_Force_Field>  (360) 
OPLS3e

>  <r_lp_Energy>  (360) 
31.0013

>  <b_lp_Chiralities_Consistent>  (360) 
1

>  <s_lp_Variant>  (360) 
116:0-1

>  <s_i_glide_gridfile>  (360) 
pfpi4k_grid

>  <i_i_glide_lignum>  (360) 
41

>  <i_i_glide_rotatable_bonds>  (360) 
1

>  <r_i_docking_score>  (360) 
-2.44227

>  <r_i_glide_ligand_efficiency>  (360) 
-0.111012

>  <r_i_glide_ligand_efficiency_sa>  (360) 
-0.311061

>  <r_i_glide_ligand_efficiency_ln>  (360) 
-0.59698

>  <r_i_glide_gscore>  (360) 
-2.44227

>  <r_i_glide_lipo>  (360) 
-0.763141

>  <r_i_glide_hbond>  (360) 
0

>  <r_i_glide_metal>  (360) 
-0

>  <r_i_glide_rewards>  (360) 
-1.50099

>  <r_i_glide_evdw>  (360) 
-5.8805

>  <r_i_glide_ecoul>  (360) 
1.05908

>  <r_i_glide_erotb>  (360) 
0

>  <r_i_glide_esite>  (360) 
-0.0429717

>  <r_i_glide_emodel>  (360) 
-7.02738

>  <r_i_glide_energy>  (360) 
-4.82142

>  <r_i_glide_einternal>  (360) 
0.315238

>  <r_i_glide_intrahb_reward>  (360) 
-0

>  <i_i_glide_confnum>  (360) 
2

>  <i_i_glide_posenum>  (360) 
4

>  <r_i_glide_eff_state_penalty>  (360) 
0

>  <ligand_id>  (360) 
116

>  <original_smiles>  (360) 
CC12CC3C(O)C4C3C(CC3C(=O)CCC34C)C1CCC2=O

>  <smiles>  (360) 
[H]OC1([H])C2([H])C([H])([H])C3(C([H])([H])[H])C(=O)C([H])([H])C([H])([H])C3([H])C3([H])C([H])([H])C4([H])C(=O)C([H])([H])C([H])([H])C4(C([H])([H])[H])C1([H])C23[H]

$$$$
117:0:0
     RDKit          3D

 42 46  0  0  1  0  0  0  0  0999 V2000
   -1.5030   -9.4501    2.4871 C   0  0  0  0  0  0  0  0  0  0  0  0
   -0.5194   -8.3384    2.6049 C   0  0  0  0  0  0  0  0  0  0  0  0
   -0.8808   -7.0661    2.4812 N   0  0  0  0  0  0  0  0  0  0  0  0
    0.3143   -6.3699    2.7116 O   0  0  0  0  0  0  0  0  0  0  0  0
    1.2737   -7.3134    2.9048 C   0  0  0  0  0  0  0  0  0  0  0  0
    2.7001   -6.9021    3.2256 C   0  0  1  0  0  0  0  0  0  0  0  0
    3.0776   -5.6181    2.4487 C   0  0  0  0  0  0  0  0  0  0  0  0
    2.7949   -5.5012    1.0671 C   0  0  0  0  0  0  0  0  0  0  0  0
    3.2322   -4.3702    0.3614 C   0  0  0  0  0  0  0  0  0  0  0  0
    3.9436   -3.3778    1.0591 C   0  0  0  0  0  0  0  0  0  0  0  0
    4.1809   -3.4454    2.3834 N   0  0  0  0  0  0  0  0  0  0  0  0
    3.7448   -4.5249    3.0617 C   0  0  0  0  0  0  0  0  0  0  0  0
    3.9960   -4.4809    4.5556 C   0  0  0  0  0  0  0  0  0  0  0  0
    4.0683   -5.8834    5.1625 C   0  0  0  0  0  0  0  0  0  0  0  0
    2.8228   -6.7037    4.7715 C   0  0  2  0  0  0  0  0  0  0  0  0
    2.7983   -8.0113    5.5830 C   0  0  0  0  0  0  0  0  0  0  0  0
    2.3204   -8.0812    6.7116 O   0  0  0  0  0  0  0  0  0  0  0  0
    3.4338   -9.1336    4.9598 N   0  0  0  0  0  0  0  0  0  0  0  0
    3.8584   -9.0516    3.6811 C   0  0  0  0  0  0  0  0  0  0  0  0
    4.6351  -10.1330    3.0128 C   0  0  0  0  0  0  0  0  0  0  0  0
    5.0432   -9.4800    1.6839 C   0  0  0  0  0  0  0  0  0  0  0  0
    4.1182   -8.2783    1.5172 C   0  0  0  0  0  0  0  0  0  0  0  0
    3.6090   -8.0164    2.8640 N   0  0  0  0  0  0  0  0  0  0  0  0
    0.7956   -8.5567    2.8685 N   0  0  0  0  0  0  0  0  0  0  0  0
   -2.5280   -9.0820    2.5469 H   0  0  0  0  0  0  0  0  0  0  0  0
   -1.3420  -10.1761    3.2784 H   0  0  0  0  0  0  0  0  0  0  0  0
   -1.3850   -9.9735    1.5430 H   0  0  0  0  0  0  0  0  0  0  0  0
    2.2645   -6.2820    0.5400 H   0  0  0  0  0  0  0  0  0  0  0  0
    3.0464   -4.2713   -0.6977 H   0  0  0  0  0  0  0  0  0  0  0  0
    4.3292   -2.5101    0.5444 H   0  0  0  0  0  0  0  0  0  0  0  0
    4.9092   -3.9243    4.7828 H   0  0  0  0  0  0  0  0  0  0  0  0
    3.1722   -3.9315    5.0139 H   0  0  0  0  0  0  0  0  0  0  0  0
    4.9667   -6.3841    4.7920 H   0  0  0  0  0  0  0  0  0  0  0  0
    4.1814   -5.8171    6.2483 H   0  0  0  0  0  0  0  0  0  0  0  0
    1.9555   -6.1298    5.1076 H   0  0  0  0  0  0  0  0  0  0  0  0
    5.5033  -10.4289    3.6044 H   0  0  0  0  0  0  0  0  0  0  0  0
    3.9949  -11.0037    2.8541 H   0  0  0  0  0  0  0  0  0  0  0  0
    6.0812   -9.1508    1.7175 H   0  0  0  0  0  0  0  0  0  0  0  0
    4.9608  -10.1798    0.8562 H   0  0  0  0  0  0  0  0  0  0  0  0
    4.6547   -7.4274    1.0989 H   0  0  0  0  0  0  0  0  0  0  0  0
    3.2734   -8.5186    0.8747 H   0  0  0  0  0  0  0  0  0  0  0  0
    3.5538  -10.0259    5.4211 H   0  0  0  0  0  0  0  0  0  0  0  0
  1  2  1  0
  1 25  1  0
  1 26  1  0
  1 27  1  0
  2 24  1  0
  2  3  2  0
  3  4  1  0
  4  5  1  0
  6  5  1  1
  5 24  2  0
  6 15  1  0
  6 23  1  0
  6  7  1  0
  7 12  1  0
  7  8  2  0
  8  9  1  0
  8 28  1  0
  9 10  2  0
  9 29  1  0
 10 11  1  0
 10 30  1  0
 11 12  2  0
 12 13  1  0
 13 14  1  0
 13 31  1  0
 13 32  1  0
 14 15  1  0
 14 33  1  0
 14 34  1  0
 15 16  1  0
 15 35  1  1
 16 17  2  0
 16 18  1  0
 18 19  2  0
 18 42  1  0
 19 23  1  0
 19 20  1  0
 20 21  1  0
 20 36  1  0
 20 37  1  0
 21 22  1  0
 21 38  1  0
 21 39  1  0
 22 23  1  0
 22 40  1  0
 22 41  1  0
M  CHG  1  18   1
M  END
>  <i_m_ct_stereo_status>  (361) 
1

>  <s_m_source_file>  (361) 
/var/tmp/pbs.5076255.sched01/tmpycp4azd_/132pnz8hy5b.sdf

>  <i_m_source_file_index>  (361) 
42

>  <i_lp_mmshare_version>  (361) 
48012

>  <i_f3d_flags>  (361) 
0

>  <s_epik_input>  (361) 
W0NIM11jMW5vYyhuMSlbQ0BAXTIzYzRjKG5bY0hdW2NIXVtjSF00KVtDSDJdW0NIMl1bQ0BASF0yQyg9TylOPUM1TjNbQ0gyXVtDSDJdW0NIMl01

>  <s_epik_cmdline>  (361) 
J2VwaWtfcHl0aG9uJywgJy1waHQnLCAnMi4wJywgJy1waCcsICc3LjAnLCAnLXRuJywgJzgnLCAnLW1hJywgJzIwMCcsICctaW1hZScsICc8aW5maWxlLm1hZT4nLCAnLW9tYWUnLCAnPG91dGZpbGUubWFlPic=

>  <r_lp_tautomer_probability>  (361) 
1

>  <r_epik_Ionization_Penalty>  (361) 
0.0469112

>  <r_epik_Ionization_Penalty_Charging>  (361) 
0.0462738

>  <r_epik_Ionization_Penalty_Neutral>  (361) 
0.000637475

>  <r_epik_State_Penalty>  (361) 
0.0393344

>  <r_epik_Charging_Adjusted_Penalty>  (361) 
0.0856082

>  <i_epik_Tot_Q>  (361) 
1

>  <i_epik_Tot_abs_Q>  (361) 
1

>  <s_epik_Chemistry_Notes>  (361) 
This compound has an imine and may undergo hydrolysis.

>  <s_lp_Force_Field>  (361) 
OPLS3e

>  <r_lp_Energy>  (361) 
35.8019

>  <b_lp_Chiralities_Consistent>  (361) 
1

>  <s_lp_Variant>  (361) 
117:0-1

>  <s_i_glide_gridfile>  (361) 
pfpi4k_grid

>  <i_i_glide_lignum>  (361) 
42

>  <i_i_glide_rotatable_bonds>  (361) 
1

>  <r_i_docking_score>  (361) 
-3.19365

>  <r_i_glide_ligand_efficiency>  (361) 
-0.133069

>  <r_i_glide_ligand_efficiency_sa>  (361) 
-0.383837

>  <r_i_glide_ligand_efficiency_ln>  (361) 
-0.764388

>  <r_i_glide_gscore>  (361) 
-3.19365

>  <r_i_glide_lipo>  (361) 
-0.234469

>  <r_i_glide_hbond>  (361) 
0

>  <r_i_glide_metal>  (361) 
-0

>  <r_i_glide_rewards>  (361) 
-1.19757

>  <r_i_glide_evdw>  (361) 
-18.7554

>  <r_i_glide_ecoul>  (361) 
-5.01094

>  <r_i_glide_erotb>  (361) 
0.177996

>  <r_i_glide_esite>  (361) 
-0.250206

>  <r_i_glide_emodel>  (361) 
-30.2373

>  <r_i_glide_energy>  (361) 
-23.7663

>  <r_i_glide_einternal>  (361) 
0.1234

>  <r_i_glide_intrahb_reward>  (361) 
-0

>  <i_i_glide_confnum>  (361) 
3

>  <i_i_glide_posenum>  (361) 
2

>  <r_i_glide_eff_state_penalty>  (361) 
0

>  <ligand_id>  (361) 
117

>  <original_smiles>  (361) 
Cc1noc(C23c4cccnc4CCC2C(=O)N=C2CCCN23)n1

>  <smiles>  (361) 
[H]c1nc2c(c([H])c1[H])C1(c3nc(C([H])([H])[H])no3)N3C(=[N+]([H])C(=O)C1([H])C([H])([H])C2([H])[H])C([H])([H])C([H])([H])C3([H])[H]

$$$$
117:0:1
     RDKit          3D

 42 46  0  0  1  0  0  0  0  0999 V2000
   -0.4465   -3.5222    5.8262 C   0  0  0  0  0  0  0  0  0  0  0  0
   -0.5986   -2.0806    5.4935 C   0  0  0  0  0  0  0  0  0  0  0  0
   -1.7532   -1.4505    5.6747 N   0  0  0  0  0  0  0  0  0  0  0  0
   -1.4468   -0.1200    5.3612 O   0  0  0  0  0  0  0  0  0  0  0  0
   -0.1587   -0.1188    4.9247 C   0  0  0  0  0  0  0  0  0  0  0  0
    0.5181    1.1731    4.4900 C   0  0  1  0  0  0  0  0  0  0  0  0
   -0.5228    2.1933    3.9746 C   0  0  0  0  0  0  0  0  0  0  0  0
   -1.5142    1.7943    3.0535 C   0  0  0  0  0  0  0  0  0  0  0  0
   -2.4094    2.7419    2.5426 C   0  0  0  0  0  0  0  0  0  0  0  0
   -2.2728    4.0803    2.9402 C   0  0  0  0  0  0  0  0  0  0  0  0
   -1.3835    4.4809    3.8692 N   0  0  0  0  0  0  0  0  0  0  0  0
   -0.5300    3.5610    4.3672 C   0  0  0  0  0  0  0  0  0  0  0  0
    0.4193    4.0788    5.4268 C   0  0  0  0  0  0  0  0  0  0  0  0
    1.6865    3.2281    5.5262 C   0  0  0  0  0  0  0  0  0  0  0  0
    1.3272    1.7401    5.7011 C   0  0  2  0  0  0  0  0  0  0  0  0
    2.6045    0.9511    6.0412 C   0  0  0  0  0  0  0  0  0  0  0  0
    3.0311    0.8321    7.1850 O   0  0  0  0  0  0  0  0  0  0  0  0
    3.3045    0.4024    4.9201 N   0  0  0  0  0  0  0  0  0  0  0  0
    2.7539    0.4429    3.6908 C   0  0  0  0  0  0  0  0  0  0  0  0
    3.4805   -0.0053    2.4715 C   0  0  0  0  0  0  0  0  0  0  0  0
    2.5356    0.4250    1.3435 C   0  0  0  0  0  0  0  0  0  0  0  0
    1.1844    0.6881    2.0073 C   0  0  0  0  0  0  0  0  0  0  0  0
    1.5033    0.8536    3.4284 N   0  0  0  0  0  0  0  0  0  0  0  0
    0.4152   -1.3227    5.0055 N   0  0  0  0  0  0  0  0  0  0  0  0
   -1.2829   -3.8751    6.4293 H   0  0  0  0  0  0  0  0  0  0  0  0
    0.4760   -3.6894    6.3824 H   0  0  0  0  0  0  0  0  0  0  0  0
   -0.4160   -4.1164    4.9159 H   0  0  0  0  0  0  0  0  0  0  0  0
   -1.5965    0.7642    2.7339 H   0  0  0  0  0  0  0  0  0  0  0  0
   -3.1673    2.4519    1.8324 H   0  0  0  0  0  0  0  0  0  0  0  0
   -2.9086    4.8422    2.5158 H   0  0  0  0  0  0  0  0  0  0  0  0
    0.6803    5.1230    5.2353 H   0  0  0  0  0  0  0  0  0  0  0  0
   -0.1108    4.0488    6.3799 H   0  0  0  0  0  0  0  0  0  0  0  0
    2.2739    3.3538    4.6136 H   0  0  0  0  0  0  0  0  0  0  0  0
    2.3170    3.5870    6.3438 H   0  0  0  0  0  0  0  0  0  0  0  0
    0.6933    1.6745    6.5878 H   0  0  0  0  0  0  0  0  0  0  0  0
    4.4564    0.4736    2.3868 H   0  0  0  0  0  0  0  0  0  0  0  0
    3.6122   -1.0900    2.4931 H   0  0  0  0  0  0  0  0  0  0  0  0
    2.9019    1.3375    0.8870 H   0  0  0  0  0  0  0  0  0  0  0  0
    2.4742   -0.3313    0.5614 H   0  0  0  0  0  0  0  0  0  0  0  0
    0.7058    1.5689    1.5789 H   0  0  0  0  0  0  0  0  0  0  0  0
    0.5168   -0.1665    1.8876 H   0  0  0  0  0  0  0  0  0  0  0  0
    4.1957   -0.0681    4.9975 H   0  0  0  0  0  0  0  0  0  0  0  0
  1  2  1  0
  1 25  1  0
  1 26  1  0
  1 27  1  0
  2 24  1  0
  2  3  2  0
  3  4  1  0
  4  5  1  0
  6  5  1  1
  5 24  2  0
  6 15  1  0
  6 23  1  0
  6  7  1  0
  7 12  1  0
  7  8  2  0
  8  9  1  0
  8 28  1  0
  9 10  2  0
  9 29  1  0
 10 11  1  0
 10 30  1  0
 11 12  2  0
 12 13  1  0
 13 14  1  0
 13 31  1  0
 13 32  1  0
 14 15  1  0
 14 33  1  0
 14 34  1  0
 15 16  1  0
 15 35  1  1
 16 17  2  0
 16 18  1  0
 18 19  2  0
 18 42  1  0
 19 23  1  0
 19 20  1  0
 20 21  1  0
 20 36  1  0
 20 37  1  0
 21 22  1  0
 21 38  1  0
 21 39  1  0
 22 23  1  0
 22 40  1  0
 22 41  1  0
M  CHG  1  18   1
M  END
>  <i_m_ct_stereo_status>  (362) 
1

>  <s_m_source_file>  (362) 
/var/tmp/pbs.5076255.sched01/tmpycp4azd_/132pnz8hy5b.sdf

>  <i_m_source_file_index>  (362) 
42

>  <i_lp_mmshare_version>  (362) 
48012

>  <i_f3d_flags>  (362) 
0

>  <s_epik_input>  (362) 
W0NIM11jMW5vYyhuMSlbQ0BAXTIzYzRjKG5bY0hdW2NIXVtjSF00KVtDSDJdW0NIMl1bQ0BASF0yQyg9TylOPUM1TjNbQ0gyXVtDSDJdW0NIMl01

>  <s_epik_cmdline>  (362) 
J2VwaWtfcHl0aG9uJywgJy1waHQnLCAnMi4wJywgJy1waCcsICc3LjAnLCAnLXRuJywgJzgnLCAnLW1hJywgJzIwMCcsICctaW1hZScsICc8aW5maWxlLm1hZT4nLCAnLW9tYWUnLCAnPG91dGZpbGUubWFlPic=

>  <r_lp_tautomer_probability>  (362) 
1

>  <r_epik_Ionization_Penalty>  (362) 
0.0469112

>  <r_epik_Ionization_Penalty_Charging>  (362) 
0.0462738

>  <r_epik_Ionization_Penalty_Neutral>  (362) 
0.000637475

>  <r_epik_State_Penalty>  (362) 
0.0393344

>  <r_epik_Charging_Adjusted_Penalty>  (362) 
0.0856082

>  <i_epik_Tot_Q>  (362) 
1

>  <i_epik_Tot_abs_Q>  (362) 
1

>  <s_epik_Chemistry_Notes>  (362) 
This compound has an imine and may undergo hydrolysis.

>  <s_lp_Force_Field>  (362) 
OPLS3e

>  <r_lp_Energy>  (362) 
35.8019

>  <b_lp_Chiralities_Consistent>  (362) 
1

>  <s_lp_Variant>  (362) 
117:0-1

>  <s_i_glide_gridfile>  (362) 
pfpi4k_grid

>  <i_i_glide_lignum>  (362) 
42

>  <i_i_glide_rotatable_bonds>  (362) 
1

>  <r_i_docking_score>  (362) 
-3.15596

>  <r_i_glide_ligand_efficiency>  (362) 
-0.131498

>  <r_i_glide_ligand_efficiency_sa>  (362) 
-0.379307

>  <r_i_glide_ligand_efficiency_ln>  (362) 
-0.755365

>  <r_i_glide_gscore>  (362) 
-3.15596

>  <r_i_glide_lipo>  (362) 
-0.0190449

>  <r_i_glide_hbond>  (362) 
-0.113571

>  <r_i_glide_metal>  (362) 
-0

>  <r_i_glide_rewards>  (362) 
-1.19757

>  <r_i_glide_evdw>  (362) 
-17.7481

>  <r_i_glide_ecoul>  (362) 
-6.43357

>  <r_i_glide_erotb>  (362) 
0.177996

>  <r_i_glide_esite>  (362) 
-0.151335

>  <r_i_glide_emodel>  (362) 
-30.1167

>  <r_i_glide_energy>  (362) 
-24.1816

>  <r_i_glide_einternal>  (362) 
0.7461

>  <r_i_glide_intrahb_reward>  (362) 
-0

>  <i_i_glide_confnum>  (362) 
3

>  <i_i_glide_posenum>  (362) 
34

>  <r_i_glide_eff_state_penalty>  (362) 
0

>  <ligand_id>  (362) 
117

>  <original_smiles>  (362) 
Cc1noc(C23c4cccnc4CCC2C(=O)N=C2CCCN23)n1

>  <smiles>  (362) 
[H]c1nc2c(c([H])c1[H])C1(c3nc(C([H])([H])[H])no3)N3C(=[N+]([H])C(=O)C1([H])C([H])([H])C2([H])[H])C([H])([H])C([H])([H])C3([H])[H]

$$$$
117:0:2
     RDKit          3D

 42 46  0  0  1  0  0  0  0  0999 V2000
    4.4653   -5.8408    0.3185 C   0  0  0  0  0  0  0  0  0  0  0  0
    3.8632   -6.8801    1.1954 C   0  0  0  0  0  0  0  0  0  0  0  0
    4.0936   -8.1688    0.9907 N   0  0  0  0  0  0  0  0  0  0  0  0
    3.3539   -8.7861    2.0061 O   0  0  0  0  0  0  0  0  0  0  0  0
    2.7859   -7.7889    2.7356 C   0  0  0  0  0  0  0  0  0  0  0  0
    2.0082   -8.1290    3.9956 C   0  0  1  0  0  0  0  0  0  0  0  0
    2.6634   -7.4481    5.2185 C   0  0  0  0  0  0  0  0  0  0  0  0
    4.0653   -7.5026    5.4077 C   0  0  0  0  0  0  0  0  0  0  0  0
    4.6274   -6.9793    6.5833 C   0  0  0  0  0  0  0  0  0  0  0  0
    3.7726   -6.4009    7.5366 C   0  0  0  0  0  0  0  0  0  0  0  0
    2.4432   -6.2807    7.3510 N   0  0  0  0  0  0  0  0  0  0  0  0
    1.9083   -6.7802    6.2184 C   0  0  0  0  0  0  0  0  0  0  0  0
    0.4186   -6.5478    6.0693 C   0  0  0  0  0  0  0  0  0  0  0  0
   -0.2301   -7.5924    5.1618 C   0  0  0  0  0  0  0  0  0  0  0  0
    0.5198   -7.6848    3.8179 C   0  0  2  0  0  0  0  0  0  0  0  0
   -0.2896   -8.5509    2.8478 C   0  0  0  0  0  0  0  0  0  0  0  0
   -1.1971   -8.0898    2.1552 O   0  0  0  0  0  0  0  0  0  0  0  0
    0.0361   -9.9420    2.8530 N   0  0  0  0  0  0  0  0  0  0  0  0
    1.1014  -10.3908    3.5521 C   0  0  0  0  0  0  0  0  0  0  0  0
    1.4301  -11.8370    3.6872 C   0  0  0  0  0  0  0  0  0  0  0  0
    2.5889  -11.8258    4.6942 C   0  0  0  0  0  0  0  0  0  0  0  0
    3.0925  -10.3870    4.7324 C   0  0  0  0  0  0  0  0  0  0  0  0
    1.9929   -9.6007    4.1671 N   0  0  0  0  0  0  0  0  0  0  0  0
    3.0577   -6.5750    2.2505 N   0  0  0  0  0  0  0  0  0  0  0  0
    5.2534   -6.2586   -0.3068 H   0  0  0  0  0  0  0  0  0  0  0  0
    4.8860   -5.0415    0.9275 H   0  0  0  0  0  0  0  0  0  0  0  0
    3.7034   -5.4233   -0.3352 H   0  0  0  0  0  0  0  0  0  0  0  0
    4.7065   -7.9710    4.6739 H   0  0  0  0  0  0  0  0  0  0  0  0
    5.6923   -7.0341    6.7608 H   0  0  0  0  0  0  0  0  0  0  0  0
    4.1665   -6.0163    8.4665 H   0  0  0  0  0  0  0  0  0  0  0  0
   -0.0752   -6.5331    7.0440 H   0  0  0  0  0  0  0  0  0  0  0  0
    0.2810   -5.5562    5.6337 H   0  0  0  0  0  0  0  0  0  0  0  0
   -0.2046   -8.5640    5.6622 H   0  0  0  0  0  0  0  0  0  0  0  0
   -1.2869   -7.3558    5.0117 H   0  0  0  0  0  0  0  0  0  0  0  0
    0.5154   -6.6771    3.3970 H   0  0  0  0  0  0  0  0  0  0  0  0
    0.5755  -12.4106    4.0517 H   0  0  0  0  0  0  0  0  0  0  0  0
    1.7524  -12.2376    2.7275 H   0  0  0  0  0  0  0  0  0  0  0  0
    2.2324  -12.1030    5.6817 H   0  0  0  0  0  0  0  0  0  0  0  0
    3.3745  -12.5266    4.4145 H   0  0  0  0  0  0  0  0  0  0  0  0
    3.3386  -10.0813    5.7488 H   0  0  0  0  0  0  0  0  0  0  0  0
    3.9743  -10.2674    4.1075 H   0  0  0  0  0  0  0  0  0  0  0  0
   -0.4693  -10.6307    2.3113 H   0  0  0  0  0  0  0  0  0  0  0  0
  1  2  1  0
  1 25  1  0
  1 26  1  0
  1 27  1  0
  2 24  1  0
  2  3  2  0
  3  4  1  0
  4  5  1  0
  6  5  1  6
  5 24  2  0
  6 15  1  0
  6 23  1  0
  6  7  1  0
  7 12  1  0
  7  8  2  0
  8  9  1  0
  8 28  1  0
  9 10  2  0
  9 29  1  0
 10 11  1  0
 10 30  1  0
 11 12  2  0
 12 13  1  0
 13 14  1  0
 13 31  1  0
 13 32  1  0
 14 15  1  0
 14 33  1  0
 14 34  1  0
 15 16  1  0
 15 35  1  6
 16 17  2  0
 16 18  1  0
 18 19  2  0
 18 42  1  0
 19 23  1  0
 19 20  1  0
 20 21  1  0
 20 36  1  0
 20 37  1  0
 21 22  1  0
 21 38  1  0
 21 39  1  0
 22 23  1  0
 22 40  1  0
 22 41  1  0
M  CHG  1  18   1
M  END
>  <i_m_ct_stereo_status>  (363) 
1

>  <s_m_source_file>  (363) 
/var/tmp/pbs.5076255.sched01/tmpycp4azd_/132pnz8hy5b.sdf

>  <i_m_source_file_index>  (363) 
42

>  <i_lp_mmshare_version>  (363) 
48012

>  <i_f3d_flags>  (363) 
0

>  <s_epik_input>  (363) 
W0NIM11jMW5vYyhuMSlbQ0BAXTIzYzRjKG5bY0hdW2NIXVtjSF00KVtDSDJdW0NIMl1bQ0BASF0yQyg9TylOPUM1TjNbQ0gyXVtDSDJdW0NIMl01

>  <s_epik_cmdline>  (363) 
J2VwaWtfcHl0aG9uJywgJy1waHQnLCAnMi4wJywgJy1waCcsICc3LjAnLCAnLXRuJywgJzgnLCAnLW1hJywgJzIwMCcsICctaW1hZScsICc8aW5maWxlLm1hZT4nLCAnLW9tYWUnLCAnPG91dGZpbGUubWFlPic=

>  <r_lp_tautomer_probability>  (363) 
1

>  <r_epik_Ionization_Penalty>  (363) 
0.0469112

>  <r_epik_Ionization_Penalty_Charging>  (363) 
0.0462738

>  <r_epik_Ionization_Penalty_Neutral>  (363) 
0.000637475

>  <r_epik_State_Penalty>  (363) 
0.0393344

>  <r_epik_Charging_Adjusted_Penalty>  (363) 
0.0856082

>  <i_epik_Tot_Q>  (363) 
1

>  <i_epik_Tot_abs_Q>  (363) 
1

>  <s_epik_Chemistry_Notes>  (363) 
This compound has an imine and may undergo hydrolysis.

>  <s_lp_Force_Field>  (363) 
OPLS3e

>  <r_lp_Energy>  (363) 
35.8019

>  <b_lp_Chiralities_Consistent>  (363) 
1

>  <s_lp_Variant>  (363) 
117:0-1

>  <s_i_glide_gridfile>  (363) 
pfpi4k_grid

>  <i_i_glide_lignum>  (363) 
42

>  <i_i_glide_rotatable_bonds>  (363) 
1

>  <r_i_docking_score>  (363) 
-3.11268

>  <r_i_glide_ligand_efficiency>  (363) 
-0.129695

>  <r_i_glide_ligand_efficiency_sa>  (363) 
-0.374105

>  <r_i_glide_ligand_efficiency_ln>  (363) 
-0.745008

>  <r_i_glide_gscore>  (363) 
-3.11268

>  <r_i_glide_lipo>  (363) 
-0.0938978

>  <r_i_glide_hbond>  (363) 
0

>  <r_i_glide_metal>  (363) 
-0

>  <r_i_glide_rewards>  (363) 
-1.4482

>  <r_i_glide_evdw>  (363) 
-19.4779

>  <r_i_glide_ecoul>  (363) 
-4.58892

>  <r_i_glide_erotb>  (363) 
0.177996

>  <r_i_glide_esite>  (363) 
-0.0863515

>  <r_i_glide_emodel>  (363) 
-29.6261

>  <r_i_glide_energy>  (363) 
-24.0668

>  <r_i_glide_einternal>  (363) 
1.39797

>  <r_i_glide_intrahb_reward>  (363) 
-0

>  <i_i_glide_confnum>  (363) 
2

>  <i_i_glide_posenum>  (363) 
25

>  <r_i_glide_eff_state_penalty>  (363) 
0

>  <ligand_id>  (363) 
117

>  <original_smiles>  (363) 
Cc1noc(C23c4cccnc4CCC2C(=O)N=C2CCCN23)n1

>  <smiles>  (363) 
[H]c1nc2c(c([H])c1[H])C1(c3nc(C([H])([H])[H])no3)N3C(=[N+]([H])C(=O)C1([H])C([H])([H])C2([H])[H])C([H])([H])C([H])([H])C3([H])[H]

$$$$
117:1:0
     RDKit          3D

 41 45  0  0  1  0  0  0  0  0999 V2000
    3.2018   -4.0326   -0.6454 C   0  0  0  0  0  0  0  0  0  0  0  0
    2.6474   -5.0675    0.2763 C   0  0  0  0  0  0  0  0  0  0  0  0
    1.4598   -5.6167    0.0618 N   0  0  0  0  0  0  0  0  0  0  0  0
    1.3184   -6.5051    1.1330 O   0  0  0  0  0  0  0  0  0  0  0  0
    2.4756   -6.4354    1.8446 C   0  0  0  0  0  0  0  0  0  0  0  0
    2.6960   -7.3741    3.0258 C   0  0  1  0  0  0  0  0  0  0  0  0
    4.1299   -7.9535    2.9525 C   0  0  0  0  0  0  0  0  0  0  0  0
    4.6262   -8.4824    1.7381 C   0  0  0  0  0  0  0  0  0  0  0  0
    5.8886   -9.1018    1.7168 C   0  0  0  0  0  0  0  0  0  0  0  0
    6.6218   -9.1677    2.9135 C   0  0  0  0  0  0  0  0  0  0  0  0
    6.1973   -8.6182    4.0655 N   0  0  0  0  0  0  0  0  0  0  0  0
    4.9870   -8.0198    4.0819 C   0  0  0  0  0  0  0  0  0  0  0  0
    4.6135   -7.3919    5.4074 C   0  0  0  0  0  0  0  0  0  0  0  0
    3.0969   -7.2917    5.5739 C   0  0  0  0  0  0  0  0  0  0  0  0
    2.4690   -6.5801    4.3570 C   0  0  2  0  0  0  0  0  0  0  0  0
    0.9668   -6.2833    4.6363 C   0  0  0  0  0  0  0  0  0  0  0  0
    0.6726   -5.2241    5.1902 O   0  0  0  0  0  0  0  0  0  0  0  0
    0.0311   -7.2529    4.2842 N   0  0  0  0  0  0  0  0  0  0  0  0
    0.4489   -8.2476    3.5671 C   0  0  0  0  0  0  0  0  0  0  0  0
   -0.4458   -9.3806    3.1361 C   0  0  0  0  0  0  0  0  0  0  0  0
    0.4965  -10.3945    2.4891 C   0  0  0  0  0  0  0  0  0  0  0  0
    1.6646   -9.5247    2.0463 C   0  0  0  0  0  0  0  0  0  0  0  0
    1.7175   -8.4729    3.0468 N   0  0  0  0  0  0  0  0  0  0  0  0
    3.3163   -5.5113    1.3742 N   0  0  0  0  0  0  0  0  0  0  0  0
    2.6388   -3.9877   -1.5763 H   0  0  0  0  0  0  0  0  0  0  0  0
    4.2441   -4.2561   -0.8793 H   0  0  0  0  0  0  0  0  0  0  0  0
    3.1332   -3.0490   -0.1884 H   0  0  0  0  0  0  0  0  0  0  0  0
    4.0415   -8.4408    0.8295 H   0  0  0  0  0  0  0  0  0  0  0  0
    6.2751   -9.5442    0.8106 H   0  0  0  0  0  0  0  0  0  0  0  0
    7.5777   -9.6728    2.9508 H   0  0  0  0  0  0  0  0  0  0  0  0
    5.0534   -7.9470    6.2415 H   0  0  0  0  0  0  0  0  0  0  0  0
    5.0496   -6.3920    5.4347 H   0  0  0  0  0  0  0  0  0  0  0  0
    2.6854   -8.2989    5.6696 H   0  0  0  0  0  0  0  0  0  0  0  0
    2.8503   -6.7836    6.5079 H   0  0  0  0  0  0  0  0  0  0  0  0
    2.9812   -5.6209    4.2710 H   0  0  0  0  0  0  0  0  0  0  0  0
   -0.9622   -9.8027    3.9964 H   0  0  0  0  0  0  0  0  0  0  0  0
   -1.1803   -9.0059    2.4206 H   0  0  0  0  0  0  0  0  0  0  0  0
    0.8544  -11.1053    3.2345 H   0  0  0  0  0  0  0  0  0  0  0  0
    0.0201  -10.9551    1.6848 H   0  0  0  0  0  0  0  0  0  0  0  0
    2.5879  -10.0957    1.9726 H   0  0  0  0  0  0  0  0  0  0  0  0
    1.4732   -9.0608    1.0825 H   0  0  0  0  0  0  0  0  0  0  0  0
  1  2  1  0
  1 25  1  0
  1 26  1  0
  1 27  1  0
  2 24  1  0
  2  3  2  0
  3  4  1  0
  4  5  1  0
  6  5  1  6
  5 24  2  0
  6 15  1  0
  6 23  1  0
  6  7  1  0
  7 12  1  0
  7  8  2  0
  8  9  1  0
  8 28  1  0
  9 10  2  0
  9 29  1  0
 10 11  1  0
 10 30  1  0
 11 12  2  0
 12 13  1  0
 13 14  1  0
 13 31  1  0
 13 32  1  0
 14 15  1  0
 14 33  1  0
 14 34  1  0
 15 16  1  0
 15 35  1  6
 16 17  2  0
 16 18  1  0
 18 19  2  0
 19 23  1  0
 19 20  1  0
 20 21  1  0
 20 36  1  0
 20 37  1  0
 21 22  1  0
 21 38  1  0
 21 39  1  0
 22 23  1  0
 22 40  1  0
 22 41  1  0
M  END
>  <i_m_ct_stereo_status>  (364) 
1

>  <s_m_source_file>  (364) 
/var/tmp/pbs.5076255.sched01/tmpycp4azd_/132pnz8hy5b.sdf

>  <i_m_source_file_index>  (364) 
43

>  <i_lp_mmshare_version>  (364) 
48012

>  <i_f3d_flags>  (364) 
0

>  <s_epik_input>  (364) 
W0NIM11jMW5vYyhuMSlbQ0BAXTIzYzRjKG5bY0hdW2NIXVtjSF00KVtDSDJdW0NIMl1bQ0BASF0yQyg9TylOPUM1TjNbQ0gyXVtDSDJdW0NIMl01

>  <s_epik_cmdline>  (364) 
J2VwaWtfcHl0aG9uJywgJy1waHQnLCAnMi4wJywgJy1waCcsICc3LjAnLCAnLXRuJywgJzgnLCAnLW1hJywgJzIwMCcsICctaW1hZScsICc8aW5maWxlLm1hZT4nLCAnLW9tYWUnLCAnPG91dGZpbGUubWFlPic=

>  <r_lp_tautomer_probability>  (364) 
1

>  <r_epik_Ionization_Penalty>  (364) 
1.53542

>  <r_epik_Ionization_Penalty_Charging>  (364) 
0

>  <r_epik_Ionization_Penalty_Neutral>  (364) 
1.53542

>  <r_epik_State_Penalty>  (364) 
1.62651

>  <r_epik_Charging_Adjusted_Penalty>  (364) 
1.62651

>  <i_epik_Tot_Q>  (364) 
0

>  <i_epik_Tot_abs_Q>  (364) 
0

>  <s_epik_Chemistry_Notes>  (364) 
This compound has an imine and may undergo hydrolysis.

>  <s_lp_Force_Field>  (364) 
OPLS3e

>  <r_lp_Energy>  (364) 
36.3917

>  <b_lp_Chiralities_Consistent>  (364) 
1

>  <s_lp_Variant>  (364) 
117:0-2

>  <s_i_glide_gridfile>  (364) 
pfpi4k_grid

>  <i_i_glide_lignum>  (364) 
43

>  <i_i_glide_rotatable_bonds>  (364) 
1

>  <r_i_docking_score>  (364) 
-3.38547

>  <r_i_glide_ligand_efficiency>  (364) 
-0.141061

>  <r_i_glide_ligand_efficiency_sa>  (364) 
-0.406891

>  <r_i_glide_ligand_efficiency_ln>  (364) 
-0.810297

>  <r_i_glide_gscore>  (364) 
-3.38547

>  <r_i_glide_lipo>  (364) 
-0.355005

>  <r_i_glide_hbond>  (364) 
0

>  <r_i_glide_metal>  (364) 
-0

>  <r_i_glide_rewards>  (364) 
-1.20444

>  <r_i_glide_evdw>  (364) 
-19.6729

>  <r_i_glide_ecoul>  (364) 
-5.07514

>  <r_i_glide_erotb>  (364) 
0.178976

>  <r_i_glide_esite>  (364) 
-0.260082

>  <r_i_glide_emodel>  (364) 
-29.6662

>  <r_i_glide_energy>  (364) 
-24.7481

>  <r_i_glide_einternal>  (364) 
1.18677

>  <r_i_glide_intrahb_reward>  (364) 
-0

>  <i_i_glide_confnum>  (364) 
4

>  <i_i_glide_posenum>  (364) 
1

>  <r_i_glide_eff_state_penalty>  (364) 
0

>  <ligand_id>  (364) 
117

>  <original_smiles>  (364) 
Cc1noc(C23c4cccnc4CCC2C(=O)N=C2CCCN23)n1

>  <smiles>  (364) 
[H]c1nc2c(c([H])c1[H])C1(c3nc(C([H])([H])[H])no3)N3C(=NC(=O)C1([H])C([H])([H])C2([H])[H])C([H])([H])C([H])([H])C3([H])[H]

$$$$
117:1:1
     RDKit          3D

 41 45  0  0  1  0  0  0  0  0999 V2000
   -0.3991    2.0133    9.6952 C   0  0  0  0  0  0  0  0  0  0  0  0
   -0.4528    2.5421    8.3040 C   0  0  0  0  0  0  0  0  0  0  0  0
   -0.8492    3.7807    8.0525 N   0  0  0  0  0  0  0  0  0  0  0  0
   -0.6913    3.8880    6.6640 O   0  0  0  0  0  0  0  0  0  0  0  0
   -0.1944    2.6955    6.2339 C   0  0  0  0  0  0  0  0  0  0  0  0
    0.1754    2.5120    4.7604 C   0  0  1  0  0  0  0  0  0  0  0  0
    1.3068    1.4609    4.6301 C   0  0  0  0  0  0  0  0  0  0  0  0
    2.4485    1.5342    5.4609 C   0  0  0  0  0  0  0  0  0  0  0  0
    3.5106    0.6325    5.2678 C   0  0  0  0  0  0  0  0  0  0  0  0
    3.3956   -0.3253    4.2465 C   0  0  0  0  0  0  0  0  0  0  0  0
    2.2958   -0.4537    3.4835 N   0  0  0  0  0  0  0  0  0  0  0  0
    1.2785    0.4149    3.6711 C   0  0  0  0  0  0  0  0  0  0  0  0
    0.0707    0.1641    2.7963 C   0  0  0  0  0  0  0  0  0  0  0  0
   -0.7516    1.4361    2.5980 C   0  0  0  0  0  0  0  0  0  0  0  0
   -1.0997    2.0682    3.9620 C   0  0  2  0  0  0  0  0  0  0  0  0
   -2.1130    3.2256    3.7457 C   0  0  0  0  0  0  0  0  0  0  0  0
   -3.3140    2.9508    3.7304 O   0  0  0  0  0  0  0  0  0  0  0  0
   -1.6144    4.5084    3.5376 N   0  0  0  0  0  0  0  0  0  0  0  0
   -0.3415    4.6840    3.7107 C   0  0  0  0  0  0  0  0  0  0  0  0
    0.3457    6.0013    3.4682 C   0  0  0  0  0  0  0  0  0  0  0  0
    1.8357    5.7037    3.6244 C   0  0  0  0  0  0  0  0  0  0  0  0
    1.8341    4.4750    4.5170 C   0  0  0  0  0  0  0  0  0  0  0  0
    0.6125    3.7783    4.1535 N   0  0  0  0  0  0  0  0  0  0  0  0
   -0.1043    1.7947    7.2190 N   0  0  0  0  0  0  0  0  0  0  0  0
   -0.4949    2.8139   10.4275 H   0  0  0  0  0  0  0  0  0  0  0  0
    0.5423    1.4890    9.8675 H   0  0  0  0  0  0  0  0  0  0  0  0
   -1.2286    1.3338    9.8511 H   0  0  0  0  0  0  0  0  0  0  0  0
    2.5269    2.2826    6.2370 H   0  0  0  0  0  0  0  0  0  0  0  0
    4.3975    0.6822    5.8805 H   0  0  0  0  0  0  0  0  0  0  0  0
    4.2044   -1.0144    4.0422 H   0  0  0  0  0  0  0  0  0  0  0  0
    0.3666   -0.2513    1.8274 H   0  0  0  0  0  0  0  0  0  0  0  0
   -0.5410   -0.5881    3.2948 H   0  0  0  0  0  0  0  0  0  0  0  0
   -0.1733    2.1409    1.9959 H   0  0  0  0  0  0  0  0  0  0  0  0
   -1.6474    1.2224    2.0100 H   0  0  0  0  0  0  0  0  0  0  0  0
   -1.6061    1.2922    4.5360 H   0  0  0  0  0  0  0  0  0  0  0  0
    0.1086    6.3537    2.4674 H   0  0  0  0  0  0  0  0  0  0  0  0
    0.0096    6.7285    4.2100 H   0  0  0  0  0  0  0  0  0  0  0  0
    2.2578    5.4379    2.6558 H   0  0  0  0  0  0  0  0  0  0  0  0
    2.4050    6.5388    4.0285 H   0  0  0  0  0  0  0  0  0  0  0  0
    2.7231    3.8713    4.3574 H   0  0  0  0  0  0  0  0  0  0  0  0
    1.7866    4.7582    5.5673 H   0  0  0  0  0  0  0  0  0  0  0  0
  1  2  1  0
  1 25  1  0
  1 26  1  0
  1 27  1  0
  2 24  1  0
  2  3  2  0
  3  4  1  0
  4  5  1  0
  6  5  1  1
  5 24  2  0
  6 15  1  0
  6 23  1  0
  6  7  1  0
  7 12  1  0
  7  8  2  0
  8  9  1  0
  8 28  1  0
  9 10  2  0
  9 29  1  0
 10 11  1  0
 10 30  1  0
 11 12  2  0
 12 13  1  0
 13 14  1  0
 13 31  1  0
 13 32  1  0
 14 15  1  0
 14 33  1  0
 14 34  1  0
 15 16  1  0
 15 35  1  1
 16 17  2  0
 16 18  1  0
 18 19  2  0
 19 23  1  0
 19 20  1  0
 20 21  1  0
 20 36  1  0
 20 37  1  0
 21 22  1  0
 21 38  1  0
 21 39  1  0
 22 23  1  0
 22 40  1  0
 22 41  1  0
M  END
>  <i_m_ct_stereo_status>  (365) 
1

>  <s_m_source_file>  (365) 
/var/tmp/pbs.5076255.sched01/tmpycp4azd_/132pnz8hy5b.sdf

>  <i_m_source_file_index>  (365) 
43

>  <i_lp_mmshare_version>  (365) 
48012

>  <i_f3d_flags>  (365) 
0

>  <s_epik_input>  (365) 
W0NIM11jMW5vYyhuMSlbQ0BAXTIzYzRjKG5bY0hdW2NIXVtjSF00KVtDSDJdW0NIMl1bQ0BASF0yQyg9TylOPUM1TjNbQ0gyXVtDSDJdW0NIMl01

>  <s_epik_cmdline>  (365) 
J2VwaWtfcHl0aG9uJywgJy1waHQnLCAnMi4wJywgJy1waCcsICc3LjAnLCAnLXRuJywgJzgnLCAnLW1hJywgJzIwMCcsICctaW1hZScsICc8aW5maWxlLm1hZT4nLCAnLW9tYWUnLCAnPG91dGZpbGUubWFlPic=

>  <r_lp_tautomer_probability>  (365) 
1

>  <r_epik_Ionization_Penalty>  (365) 
1.53542

>  <r_epik_Ionization_Penalty_Charging>  (365) 
0

>  <r_epik_Ionization_Penalty_Neutral>  (365) 
1.53542

>  <r_epik_State_Penalty>  (365) 
1.62651

>  <r_epik_Charging_Adjusted_Penalty>  (365) 
1.62651

>  <i_epik_Tot_Q>  (365) 
0

>  <i_epik_Tot_abs_Q>  (365) 
0

>  <s_epik_Chemistry_Notes>  (365) 
This compound has an imine and may undergo hydrolysis.

>  <s_lp_Force_Field>  (365) 
OPLS3e

>  <r_lp_Energy>  (365) 
36.3917

>  <b_lp_Chiralities_Consistent>  (365) 
1

>  <s_lp_Variant>  (365) 
117:0-2

>  <s_i_glide_gridfile>  (365) 
pfpi4k_grid

>  <i_i_glide_lignum>  (365) 
43

>  <i_i_glide_rotatable_bonds>  (365) 
1

>  <r_i_docking_score>  (365) 
-2.91192

>  <r_i_glide_ligand_efficiency>  (365) 
-0.12133

>  <r_i_glide_ligand_efficiency_sa>  (365) 
-0.349976

>  <r_i_glide_ligand_efficiency_ln>  (365) 
-0.696955

>  <r_i_glide_gscore>  (365) 
-2.91192

>  <r_i_glide_lipo>  (365) 
-0.00145239

>  <r_i_glide_hbond>  (365) 
-0.16

>  <r_i_glide_metal>  (365) 
-0

>  <r_i_glide_rewards>  (365) 
-1.20444

>  <r_i_glide_evdw>  (365) 
-20.4119

>  <r_i_glide_ecoul>  (365) 
-3.34023

>  <r_i_glide_erotb>  (365) 
0.178976

>  <r_i_glide_esite>  (365) 
-0.203373

>  <r_i_glide_emodel>  (365) 
-27.829

>  <r_i_glide_energy>  (365) 
-23.7521

>  <r_i_glide_einternal>  (365) 
1.26539

>  <r_i_glide_intrahb_reward>  (365) 
-0

>  <i_i_glide_confnum>  (365) 
4

>  <i_i_glide_posenum>  (365) 
5

>  <r_i_glide_eff_state_penalty>  (365) 
0

>  <ligand_id>  (365) 
117

>  <original_smiles>  (365) 
Cc1noc(C23c4cccnc4CCC2C(=O)N=C2CCCN23)n1

>  <smiles>  (365) 
[H]c1nc2c(c([H])c1[H])C1(c3nc(C([H])([H])[H])no3)N3C(=NC(=O)C1([H])C([H])([H])C2([H])[H])C([H])([H])C([H])([H])C3([H])[H]

$$$$
117:1:2
     RDKit          3D

 41 45  0  0  1  0  0  0  0  0999 V2000
   -1.2675   -9.4891    2.6184 C   0  0  0  0  0  0  0  0  0  0  0  0
   -0.3618   -8.3063    2.5911 C   0  0  0  0  0  0  0  0  0  0  0  0
   -0.8256   -7.0661    2.4808 N   0  0  0  0  0  0  0  0  0  0  0  0
    0.3369   -6.2836    2.5481 O   0  0  0  0  0  0  0  0  0  0  0  0
    1.3798   -7.1517    2.6570 C   0  0  0  0  0  0  0  0  0  0  0  0
    2.7971   -6.6161    2.8086 C   0  0  1  0  0  0  0  0  0  0  0  0
    2.9770   -5.3581    1.9269 C   0  0  0  0  0  0  0  0  0  0  0  0
    2.5772   -5.3725    0.5712 C   0  0  0  0  0  0  0  0  0  0  0  0
    2.8258   -4.2518   -0.2374 C   0  0  0  0  0  0  0  0  0  0  0  0
    3.4785   -3.1429    0.3284 C   0  0  0  0  0  0  0  0  0  0  0  0
    3.8316   -3.0911    1.6270 N   0  0  0  0  0  0  0  0  0  0  0  0
    3.5743   -4.1607    2.4056 C   0  0  0  0  0  0  0  0  0  0  0  0
    3.9507   -3.9843    3.8619 C   0  0  0  0  0  0  0  0  0  0  0  0
    4.2300   -5.3265    4.5356 C   0  0  0  0  0  0  0  0  0  0  0  0
    3.0423   -6.2865    4.3219 C   0  0  2  0  0  0  0  0  0  0  0  0
    3.2392   -7.5567    5.1960 C   0  0  0  0  0  0  0  0  0  0  0  0
    2.7915   -7.5502    6.3418 O   0  0  0  0  0  0  0  0  0  0  0  0
    3.9569   -8.6200    4.6495 N   0  0  0  0  0  0  0  0  0  0  0  0
    4.1898   -8.5869    3.3762 C   0  0  0  0  0  0  0  0  0  0  0  0
    4.9665   -9.6635    2.6566 C   0  0  0  0  0  0  0  0  0  0  0  0
    5.1861   -9.1030    1.2524 C   0  0  0  0  0  0  0  0  0  0  0  0
    4.0337   -8.1228    1.1011 C   0  0  0  0  0  0  0  0  0  0  0  0
    3.8060   -7.6283    2.4479 N   0  0  0  0  0  0  0  0  0  0  0  0
    0.9863   -8.4238    2.6994 N   0  0  0  0  0  0  0  0  0  0  0  0
   -2.3029   -9.1941    2.7791 H   0  0  0  0  0  0  0  0  0  0  0  0
   -0.9628  -10.1697    3.4139 H   0  0  0  0  0  0  0  0  0  0  0  0
   -1.2196  -10.0310    1.6762 H   0  0  0  0  0  0  0  0  0  0  0  0
    2.0940   -6.2400    0.1426 H   0  0  0  0  0  0  0  0  0  0  0  0
    2.5519   -4.2467   -1.2828 H   0  0  0  0  0  0  0  0  0  0  0  0
    3.7312   -2.2803   -0.2717 H   0  0  0  0  0  0  0  0  0  0  0  0
    4.8131   -3.3196    3.9638 H   0  0  0  0  0  0  0  0  0  0  0  0
    3.1134   -3.4936    4.3626 H   0  0  0  0  0  0  0  0  0  0  0  0
    5.1374   -5.7580    4.1073 H   0  0  0  0  0  0  0  0  0  0  0  0
    4.4398   -5.1830    5.5986 H   0  0  0  0  0  0  0  0  0  0  0  0
    2.1609   -5.7651    4.6990 H   0  0  0  0  0  0  0  0  0  0  0  0
    5.9082   -9.8757    3.1661 H   0  0  0  0  0  0  0  0  0  0  0  0
    4.3637  -10.5735    2.6189 H   0  0  0  0  0  0  0  0  0  0  0  0
    6.1302   -8.5593    1.2105 H   0  0  0  0  0  0  0  0  0  0  0  0
    5.1968   -9.8711    0.4832 H   0  0  0  0  0  0  0  0  0  0  0  0
    4.2774   -7.3314    0.3947 H   0  0  0  0  0  0  0  0  0  0  0  0
    3.1377   -8.6423    0.7686 H   0  0  0  0  0  0  0  0  0  0  0  0
  1  2  1  0
  1 25  1  0
  1 26  1  0
  1 27  1  0
  2 24  1  0
  2  3  2  0
  3  4  1  0
  4  5  1  0
  6  5  1  1
  5 24  2  0
  6 15  1  0
  6 23  1  0
  6  7  1  0
  7 12  1  0
  7  8  2  0
  8  9  1  0
  8 28  1  0
  9 10  2  0
  9 29  1  0
 10 11  1  0
 10 30  1  0
 11 12  2  0
 12 13  1  0
 13 14  1  0
 13 31  1  0
 13 32  1  0
 14 15  1  0
 14 33  1  0
 14 34  1  0
 15 16  1  0
 15 35  1  1
 16 17  2  0
 16 18  1  0
 18 19  2  0
 19 23  1  0
 19 20  1  0
 20 21  1  0
 20 36  1  0
 20 37  1  0
 21 22  1  0
 21 38  1  0
 21 39  1  0
 22 23  1  0
 22 40  1  0
 22 41  1  0
M  END
>  <i_m_ct_stereo_status>  (366) 
1

>  <s_m_source_file>  (366) 
/var/tmp/pbs.5076255.sched01/tmpycp4azd_/132pnz8hy5b.sdf

>  <i_m_source_file_index>  (366) 
43

>  <i_lp_mmshare_version>  (366) 
48012

>  <i_f3d_flags>  (366) 
0

>  <s_epik_input>  (366) 
W0NIM11jMW5vYyhuMSlbQ0BAXTIzYzRjKG5bY0hdW2NIXVtjSF00KVtDSDJdW0NIMl1bQ0BASF0yQyg9TylOPUM1TjNbQ0gyXVtDSDJdW0NIMl01

>  <s_epik_cmdline>  (366) 
J2VwaWtfcHl0aG9uJywgJy1waHQnLCAnMi4wJywgJy1waCcsICc3LjAnLCAnLXRuJywgJzgnLCAnLW1hJywgJzIwMCcsICctaW1hZScsICc8aW5maWxlLm1hZT4nLCAnLW9tYWUnLCAnPG91dGZpbGUubWFlPic=

>  <r_lp_tautomer_probability>  (366) 
1

>  <r_epik_Ionization_Penalty>  (366) 
1.53542

>  <r_epik_Ionization_Penalty_Charging>  (366) 
0

>  <r_epik_Ionization_Penalty_Neutral>  (366) 
1.53542

>  <r_epik_State_Penalty>  (366) 
1.62651

>  <r_epik_Charging_Adjusted_Penalty>  (366) 
1.62651

>  <i_epik_Tot_Q>  (366) 
0

>  <i_epik_Tot_abs_Q>  (366) 
0

>  <s_epik_Chemistry_Notes>  (366) 
This compound has an imine and may undergo hydrolysis.

>  <s_lp_Force_Field>  (366) 
OPLS3e

>  <r_lp_Energy>  (366) 
36.3917

>  <b_lp_Chiralities_Consistent>  (366) 
1

>  <s_lp_Variant>  (366) 
117:0-2

>  <s_i_glide_gridfile>  (366) 
pfpi4k_grid

>  <i_i_glide_lignum>  (366) 
43

>  <i_i_glide_rotatable_bonds>  (366) 
1

>  <r_i_docking_score>  (366) 
-2.89239

>  <r_i_glide_ligand_efficiency>  (366) 
-0.120516

>  <r_i_glide_ligand_efficiency_sa>  (366) 
-0.347629

>  <r_i_glide_ligand_efficiency_ln>  (366) 
-0.692282

>  <r_i_glide_gscore>  (366) 
-2.89239

>  <r_i_glide_lipo>  (366) 
-0.123078

>  <r_i_glide_hbond>  (366) 
0

>  <r_i_glide_metal>  (366) 
-0

>  <r_i_glide_rewards>  (366) 
-1.20444

>  <r_i_glide_evdw>  (366) 
-20.7958

>  <r_i_glide_ecoul>  (366) 
-3.07345

>  <r_i_glide_erotb>  (366) 
0.178976

>  <r_i_glide_esite>  (366) 
-0.243041

>  <r_i_glide_emodel>  (366) 
-28.575

>  <r_i_glide_energy>  (366) 
-23.8693

>  <r_i_glide_einternal>  (366) 
0.0796435

>  <r_i_glide_intrahb_reward>  (366) 
-0

>  <i_i_glide_confnum>  (366) 
1

>  <i_i_glide_posenum>  (366) 
2

>  <r_i_glide_eff_state_penalty>  (366) 
0

>  <ligand_id>  (366) 
117

>  <original_smiles>  (366) 
Cc1noc(C23c4cccnc4CCC2C(=O)N=C2CCCN23)n1

>  <smiles>  (366) 
[H]c1nc2c(c([H])c1[H])C1(c3nc(C([H])([H])[H])no3)N3C(=NC(=O)C1([H])C([H])([H])C2([H])[H])C([H])([H])C([H])([H])C3([H])[H]

$$$$
