0:0:0
     RDKit          3D

 66 71  0  0  1  0  0  0  0  0999 V2000
    2.7825   -2.9188   -1.4861 C   0  0  0  0  0  0  0  0  0  0  0  0
    4.0159   -2.1622   -0.9220 C   0  0  0  0  0  0  0  0  0  0  0  0
    4.6162   -1.3977   -2.1449 C   0  0  0  0  0  0  0  0  0  0  0  0
    3.6927   -1.2680    0.3038 C   0  0  2  0  0  0  0  0  0  0  0  0
    5.0737   -0.6983    0.7192 C   0  0  0  0  0  0  0  0  0  0  0  0
    5.9462   -1.9062    0.4243 C   0  0  0  0  0  0  0  0  0  0  0  0
    7.1725   -1.9486    0.5116 O   0  0  0  0  0  0  0  0  0  0  0  0
    5.0217   -3.0208   -0.0935 C   0  0  2  0  0  0  0  0  0  0  0  0
    5.7989   -4.0923   -0.8682 C   0  0  0  0  0  0  0  0  0  0  0  0
    4.2071   -3.4936    1.1594 C   0  0  2  0  0  0  0  0  0  0  0  0
    3.4442   -4.8309    0.9928 C   0  0  0  0  0  0  0  0  0  0  0  0
    3.5381   -5.7424    2.2152 C   0  0  1  0  0  0  0  0  0  0  0  0
    4.9232   -6.3841    2.2435 C   0  0  0  0  0  0  0  0  0  0  0  0
    2.7817   -5.2584    3.4103 C   0  0  1  0  0  0  0  0  0  0  0  0
    3.7455   -5.0003    4.5823 C   0  0  0  0  0  0  0  0  0  0  0  0
    1.5707   -4.3251    3.5067 C   0  0  2  0  0  0  0  0  0  0  0  0
    1.9186   -2.8117    3.5720 C   0  0  0  0  0  0  0  0  0  0  0  0
    2.3471   -2.0463    2.3151 C   0  0  0  0  0  0  0  0  0  0  0  0
    3.2907   -2.2883    1.3781 C   0  0  0  0  0  0  0  0  0  0  0  0
    0.6503   -4.7185    4.7242 C   0  0  0  0  0  0  0  0  0  0  0  0
    0.3292   -6.2210    5.0631 C   0  0  1  0  0  0  0  0  0  0  0  0
   -0.6743   -6.7522    4.2168 O   0  0  0  0  0  0  0  0  0  0  0  0
    1.5849   -7.1297    5.1438 C   0  0  1  0  0  0  0  0  0  0  0  0
    1.5789   -8.4106    5.9503 C   0  0  0  0  0  0  0  0  0  0  0  0
    0.7791   -8.6773    6.8457 O   0  0  0  0  0  0  0  0  0  0  0  0
    2.6078   -9.1610    5.5002 O   0  0  0  0  0  0  0  0  0  0  0  0
    3.2790   -8.5856    4.3724 C   0  0  0  0  0  0  0  0  0  0  0  0
    2.1692   -7.6684    3.8420 C   0  0  2  0  0  0  0  0  0  0  0  0
    2.3800   -6.6079    2.7380 C   0  0  2  0  0  0  0  0  0  0  0  0
    1.3036   -6.8526    1.6575 C   0  0  0  0  0  0  0  0  0  0  0  0
    2.2669   -2.3155   -2.2366 H   0  0  0  0  0  0  0  0  0  0  0  0
    2.0220   -3.1230   -0.7333 H   0  0  0  0  0  0  0  0  0  0  0  0
    3.0558   -3.8536   -1.9668 H   0  0  0  0  0  0  0  0  0  0  0  0
    5.5280   -0.8367   -1.9447 H   0  0  0  0  0  0  0  0  0  0  0  0
    3.8971   -0.6760   -2.5377 H   0  0  0  0  0  0  0  0  0  0  0  0
    4.8502   -2.0923   -2.9555 H   0  0  0  0  0  0  0  0  0  0  0  0
    2.9442   -0.4940    0.1206 H   0  0  0  0  0  0  0  0  0  0  0  0
    5.3928    0.1446    0.1076 H   0  0  0  0  0  0  0  0  0  0  0  0
    5.1233   -0.4171    1.7693 H   0  0  0  0  0  0  0  0  0  0  0  0
    5.1490   -4.7113   -1.4834 H   0  0  0  0  0  0  0  0  0  0  0  0
    6.3440   -4.7515   -0.1932 H   0  0  0  0  0  0  0  0  0  0  0  0
    6.5255   -3.6449   -1.5456 H   0  0  0  0  0  0  0  0  0  0  0  0
    4.8685   -3.5587    2.0239 H   0  0  0  0  0  0  0  0  0  0  0  0
    2.4116   -4.5770    0.7944 H   0  0  0  0  0  0  0  0  0  0  0  0
    3.7671   -5.3998    0.1227 H   0  0  0  0  0  0  0  0  0  0  0  0
    5.0469   -7.0413    3.0984 H   0  0  0  0  0  0  0  0  0  0  0  0
    5.7083   -5.6313    2.2911 H   0  0  0  0  0  0  0  0  0  0  0  0
    5.0748   -6.9873    1.3482 H   0  0  0  0  0  0  0  0  0  0  0  0
    3.2332   -4.6722    5.4832 H   0  0  0  0  0  0  0  0  0  0  0  0
    4.4568   -4.2200    4.3144 H   0  0  0  0  0  0  0  0  0  0  0  0
    4.3091   -5.8927    4.8383 H   0  0  0  0  0  0  0  0  0  0  0  0
    0.9660   -4.4453    2.6150 H   0  0  0  0  0  0  0  0  0  0  0  0
    1.0014   -2.3005    3.8655 H   0  0  0  0  0  0  0  0  0  0  0  0
    2.6261   -2.5847    4.3703 H   0  0  0  0  0  0  0  0  0  0  0  0
    1.8801   -1.0735    2.2365 H   0  0  0  0  0  0  0  0  0  0  0  0
    1.0791   -4.2823    5.6304 H   0  0  0  0  0  0  0  0  0  0  0  0
   -0.2996   -4.1916    4.6100 H   0  0  0  0  0  0  0  0  0  0  0  0
   -0.1287   -6.2139    6.0564 H   0  0  0  0  0  0  0  0  0  0  0  0
   -0.8196   -7.6554    4.4676 H   0  0  0  0  0  0  0  0  0  0  0  0
    2.3194   -6.5712    5.7097 H   0  0  0  0  0  0  0  0  0  0  0  0
    4.1603   -8.0469    4.7185 H   0  0  0  0  0  0  0  0  0  0  0  0
    3.5854   -9.3402    3.6474 H   0  0  0  0  0  0  0  0  0  0  0  0
    1.4495   -8.3888    3.4457 H   0  0  0  0  0  0  0  0  0  0  0  0
    0.3929   -7.2968    2.0456 H   0  0  0  0  0  0  0  0  0  0  0  0
    1.6972   -7.5313    0.9044 H   0  0  0  0  0  0  0  0  0  0  0  0
    0.9728   -5.9566    1.1489 H   0  0  0  0  0  0  0  0  0  0  0  0
  1  2  1  0
  1 31  1  0
  1 32  1  0
  1 33  1  0
  2  8  1  0
  2  3  1  0
  2  4  1  0
  3 34  1  0
  3 35  1  0
  3 36  1  0
  4 19  1  0
  4  5  1  0
  4 37  1  6
  5  6  1  0
  5 38  1  0
  5 39  1  0
  6  7  2  0
  6  8  1  0
  8  9  1  6
  8 10  1  0
  9 40  1  0
  9 41  1  0
  9 42  1  0
 10 19  1  0
 10 11  1  0
 10 43  1  1
 11 12  1  0
 11 44  1  0
 11 45  1  0
 12 29  1  0
 12 13  1  1
 12 14  1  0
 13 46  1  0
 13 47  1  0
 13 48  1  0
 14 29  1  0
 14 15  1  1
 14 16  1  0
 15 49  1  0
 15 50  1  0
 15 51  1  0
 16 17  1  0
 16 20  1  0
 16 52  1  6
 17 18  1  0
 17 53  1  0
 17 54  1  0
 18 19  2  3
 18 55  1  0
 20 21  1  0
 20 56  1  0
 20 57  1  0
 21 22  1  0
 21 23  1  0
 21 58  1  1
 22 59  1  0
 23 28  1  0
 23 24  1  0
 23 60  1  1
 24 25  2  0
 24 26  1  0
 26 27  1  0
 27 28  1  0
 27 61  1  0
 27 62  1  0
 28 29  1  0
 28 63  1  6
 29 30  1  6
 30 64  1  0
 30 65  1  0
 30 66  1  0
M  END
>  <i_m_ct_stereo_status>  (1) 
1

>  <s_m_source_file>  (1) 
/var/tmp/pbs.5076255.sched01/tmpnv36izql/0kitkh5ys.sdf

>  <i_m_source_file_index>  (1) 
1

>  <i_lp_mmshare_version>  (1) 
48012

>  <i_f3d_flags>  (1) 
0

>  <s_epik_input>  (1) 
Tz1DMVtDSDJdW0NAQEhdKEMyKFtDSDNdKVtDSDNdKVxDKFtDQEBIXTNbQ0BdMTJbQ0gzXSk9W0NIXVxbQ0gyXVtDQEhdNFtDQF01KFtDSDNdKVtDQEBdKFtDSDJdMykoW0NIM10pW0NAQF01KFtDSDNdKVtDQEBIXTZbQ0BASF0oW0NAQEhdKFtDSDJdNClbT0hdKUMoPU8pT1tDSDJdNg==

>  <s_epik_cmdline>  (1) 
J2VwaWtfcHl0aG9uJywgJy1waHQnLCAnMi4wJywgJy1waCcsICc3LjAnLCAnLXRuJywgJzgnLCAnLW1hJywgJzIwMCcsICctaW1hZScsICc8aW5maWxlLm1hZT4nLCAnLW9tYWUnLCAnPG91dGZpbGUubWFlPic=

>  <r_lp_tautomer_probability>  (1) 
1

>  <r_epik_Ionization_Penalty>  (1) 
1.608e-07

>  <r_epik_Ionization_Penalty_Charging>  (1) 
0

>  <r_epik_Ionization_Penalty_Neutral>  (1) 
1.608e-07

>  <r_epik_State_Penalty>  (1) 
-0

>  <r_epik_Charging_Adjusted_Penalty>  (1) 
0

>  <i_epik_Tot_Q>  (1) 
0

>  <i_epik_Tot_abs_Q>  (1) 
0

>  <s_epik_Chemistry_Notes>  (1) 
This compound has an ester and may undergo hydrolysis at high or low pH.

>  <s_lp_Force_Field>  (1) 
OPLS3e

>  <r_lp_Energy>  (1) 
94.4222

>  <b_lp_Chiralities_Consistent>  (1) 
1

>  <s_lp_Variant>  (1) 
0:0-1

>  <s_i_glide_gridfile>  (1) 
pfpi4k_grid

>  <i_i_glide_lignum>  (1) 
1

>  <i_i_glide_rotatable_bonds>  (1) 
1

>  <r_i_docking_score>  (1) 
-2.6836

>  <r_i_glide_ligand_efficiency>  (1) 
-0.0894534

>  <r_i_glide_ligand_efficiency_sa>  (1) 
-0.277952

>  <r_i_glide_ligand_efficiency_ln>  (1) 
-0.609743

>  <r_i_glide_gscore>  (1) 
-2.6836

>  <r_i_glide_lipo>  (1) 
-0.241087

>  <r_i_glide_hbond>  (1) 
0

>  <r_i_glide_metal>  (1) 
-0

>  <r_i_glide_rewards>  (1) 
-0.701571

>  <r_i_glide_evdw>  (1) 
-29.5316

>  <r_i_glide_ecoul>  (1) 
-1.63618

>  <r_i_glide_erotb>  (1) 
0

>  <r_i_glide_esite>  (1) 
-0.0189372

>  <r_i_glide_emodel>  (1) 
-36.1047

>  <r_i_glide_energy>  (1) 
-31.1678

>  <r_i_glide_einternal>  (1) 
0.392227

>  <r_i_glide_intrahb_reward>  (1) 
-0

>  <i_i_glide_confnum>  (1) 
2

>  <i_i_glide_posenum>  (1) 
4

>  <r_i_glide_eff_state_penalty>  (1) 
0

>  <ligand_id>  (1) 
0

>  <original_smiles>  (1) 
CC1(C)C2CC(=O)C1(C)C1CC3(C)C4(C)C(CC=C21)CC(O)C1C(=O)OCC1C34C

>  <smiles>  (1) 
[H]OC1([H])C([H])([H])C2([H])C([H])([H])C([H])=C3C([H])(C([H])([H])C4(C([H])([H])[H])C2(C([H])([H])[H])C4(C([H])([H])[H])C2([H])C([H])([H])OC(=O)C12[H])C1(C([H])([H])[H])C(=O)C([H])([H])C3([H])C1(C([H])([H])[H])C([H])([H])[H]

$$$$
0:0:1
     RDKit          3D

 66 71  0  0  1  0  0  0  0  0999 V2000
    0.5988   -9.6146    3.1305 C   0  0  0  0  0  0  0  0  0  0  0  0
    1.7288  -10.3985    3.8529 C   0  0  0  0  0  0  0  0  0  0  0  0
    1.0294  -11.6417    4.4801 C   0  0  0  0  0  0  0  0  0  0  0  0
    2.9236  -10.7309    2.9295 C   0  0  2  0  0  0  0  0  0  0  0  0
    3.9357  -11.4432    3.8581 C   0  0  0  0  0  0  0  0  0  0  0  0
    3.7134  -10.6352    5.1290 C   0  0  0  0  0  0  0  0  0  0  0  0
    4.3079  -10.7913    6.1939 O   0  0  0  0  0  0  0  0  0  0  0  0
    2.6399   -9.5759    4.8211 C   0  0  2  0  0  0  0  0  0  0  0  0
    1.9782   -9.0386    6.1035 C   0  0  0  0  0  0  0  0  0  0  0  0
    3.3643   -8.5380    3.8909 C   0  0  2  0  0  0  0  0  0  0  0  0
    2.6266   -7.1934    3.6970 C   0  0  0  0  0  0  0  0  0  0  0  0
    3.5524   -5.9788    3.7410 C   0  0  1  0  0  0  0  0  0  0  0  0
    3.9400   -5.7085    5.1912 C   0  0  0  0  0  0  0  0  0  0  0  0
    4.4558   -5.8437    2.5562 C   0  0  1  0  0  0  0  0  0  0  0  0
    5.9247   -5.9137    3.0027 C   0  0  0  0  0  0  0  0  0  0  0  0
    4.3007   -6.3744    1.1264 C   0  0  2  0  0  0  0  0  0  0  0  0
    4.8378   -7.8178    0.9220 C   0  0  0  0  0  0  0  0  0  0  0  0
    4.0531   -9.0381    1.4068 C   0  0  0  0  0  0  0  0  0  0  0  0
    3.5029   -9.3531    2.6013 C   0  0  0  0  0  0  0  0  0  0  0  0
    4.9688   -5.3985    0.0848 C   0  0  0  0  0  0  0  0  0  0  0  0
    4.8125   -3.8393    0.2064 C   0  0  1  0  0  0  0  0  0  0  0  0
    3.5517   -3.4096   -0.2665 O   0  0  0  0  0  0  0  0  0  0  0  0
    5.1364   -3.2711    1.6142 C   0  0  1  0  0  0  0  0  0  0  0  0
    5.5541   -1.8278    1.8109 C   0  0  0  0  0  0  0  0  0  0  0  0
    6.0176   -1.0950    0.9409 O   0  0  0  0  0  0  0  0  0  0  0  0
    5.3531   -1.5339    3.1135 O   0  0  0  0  0  0  0  0  0  0  0  0
    4.7282   -2.5990    3.8471 C   0  0  0  0  0  0  0  0  0  0  0  0
    4.0575   -3.3546    2.6936 C   0  0  2  0  0  0  0  0  0  0  0  0
    3.3954   -4.7414    2.8441 C   0  0  2  0  0  0  0  0  0  0  0  0
    1.9721   -4.6330    2.2763 C   0  0  0  0  0  0  0  0  0  0  0  0
   -0.1271  -10.2988    2.6843 H   0  0  0  0  0  0  0  0  0  0  0  0
    0.9460   -8.9949    2.3055 H   0  0  0  0  0  0  0  0  0  0  0  0
    0.0462   -8.9827    3.8288 H   0  0  0  0  0  0  0  0  0  0  0  0
    1.6816  -12.2972    5.0570 H   0  0  0  0  0  0  0  0  0  0  0  0
    0.5853  -12.2641    3.7018 H   0  0  0  0  0  0  0  0  0  0  0  0
    0.2226  -11.3373    5.1520 H   0  0  0  0  0  0  0  0  0  0  0  0
    2.6650  -11.3401    2.0772 H   0  0  0  0  0  0  0  0  0  0  0  0
    3.7034  -12.4942    4.0206 H   0  0  0  0  0  0  0  0  0  0  0  0
    4.9632  -11.3568    3.5062 H   0  0  0  0  0  0  0  0  0  0  0  0
    1.0418   -8.5226    5.9022 H   0  0  0  0  0  0  0  0  0  0  0  0
    2.6379   -8.3471    6.6266 H   0  0  0  0  0  0  0  0  0  0  0  0
    1.7436   -9.8487    6.7957 H   0  0  0  0  0  0  0  0  0  0  0  0
    4.3746   -8.3510    4.2592 H   0  0  0  0  0  0  0  0  0  0  0  0
    2.1314   -7.2492    2.7363 H   0  0  0  0  0  0  0  0  0  0  0  0
    1.8293   -7.0385    4.4195 H   0  0  0  0  0  0  0  0  0  0  0  0
    4.6005   -4.8540    5.2792 H   0  0  0  0  0  0  0  0  0  0  0  0
    4.4470   -6.5675    5.6307 H   0  0  0  0  0  0  0  0  0  0  0  0
    3.0488   -5.4923    5.7807 H   0  0  0  0  0  0  0  0  0  0  0  0
    6.6232   -5.7928    2.1775 H   0  0  0  0  0  0  0  0  0  0  0  0
    6.1263   -6.8822    3.4601 H   0  0  0  0  0  0  0  0  0  0  0  0
    6.1548   -5.1462    3.7360 H   0  0  0  0  0  0  0  0  0  0  0  0
    3.2511   -6.4204    0.8624 H   0  0  0  0  0  0  0  0  0  0  0  0
    4.8676   -7.9732   -0.1564 H   0  0  0  0  0  0  0  0  0  0  0  0
    5.8748   -7.9220    1.2472 H   0  0  0  0  0  0  0  0  0  0  0  0
    4.0414   -9.8422    0.6866 H   0  0  0  0  0  0  0  0  0  0  0  0
    6.0425   -5.5984    0.0714 H   0  0  0  0  0  0  0  0  0  0  0  0
    4.6317   -5.6836   -0.9144 H   0  0  0  0  0  0  0  0  0  0  0  0
    5.5346   -3.4044   -0.4913 H   0  0  0  0  0  0  0  0  0  0  0  0
    3.4512   -3.6779   -1.1715 H   0  0  0  0  0  0  0  0  0  0  0  0
    6.0459   -3.7624    1.9286 H   0  0  0  0  0  0  0  0  0  0  0  0
    5.4942   -3.1810    4.3594 H   0  0  0  0  0  0  0  0  0  0  0  0
    4.0143   -2.2248    4.5807 H   0  0  0  0  0  0  0  0  0  0  0  0
    3.2675   -2.6612    2.3954 H   0  0  0  0  0  0  0  0  0  0  0  0
    1.8891   -3.8803    1.4980 H   0  0  0  0  0  0  0  0  0  0  0  0
    1.2802   -4.3578    3.0704 H   0  0  0  0  0  0  0  0  0  0  0  0
    1.6047   -5.5362    1.8063 H   0  0  0  0  0  0  0  0  0  0  0  0
  1  2  1  0
  1 31  1  0
  1 32  1  0
  1 33  1  0
  2  8  1  0
  2  3  1  0
  2  4  1  0
  3 34  1  0
  3 35  1  0
  3 36  1  0
  4 19  1  0
  4  5  1  0
  4 37  1  6
  5  6  1  0
  5 38  1  0
  5 39  1  0
  6  7  2  0
  6  8  1  0
  8  9  1  1
  8 10  1  0
  9 40  1  0
  9 41  1  0
  9 42  1  0
 10 19  1  0
 10 11  1  0
 10 43  1  1
 11 12  1  0
 11 44  1  0
 11 45  1  0
 12 29  1  0
 12 13  1  1
 12 14  1  0
 13 46  1  0
 13 47  1  0
 13 48  1  0
 14 29  1  0
 14 15  1  1
 14 16  1  0
 15 49  1  0
 15 50  1  0
 15 51  1  0
 16 17  1  0
 16 20  1  0
 16 52  1  6
 17 18  1  0
 17 53  1  0
 17 54  1  0
 18 19  2  3
 18 55  1  0
 20 21  1  0
 20 56  1  0
 20 57  1  0
 21 22  1  0
 21 23  1  0
 21 58  1  6
 22 59  1  0
 23 28  1  0
 23 24  1  0
 23 60  1  1
 24 25  2  0
 24 26  1  0
 26 27  1  0
 27 28  1  0
 27 61  1  0
 27 62  1  0
 28 29  1  0
 28 63  1  6
 29 30  1  6
 30 64  1  0
 30 65  1  0
 30 66  1  0
M  END
>  <i_m_ct_stereo_status>  (2) 
1

>  <s_m_source_file>  (2) 
/var/tmp/pbs.5076255.sched01/tmpnv36izql/0kitkh5ys.sdf

>  <i_m_source_file_index>  (2) 
1

>  <i_lp_mmshare_version>  (2) 
48012

>  <i_f3d_flags>  (2) 
0

>  <s_epik_input>  (2) 
Tz1DMVtDSDJdW0NAQEhdKEMyKFtDSDNdKVtDSDNdKVxDKFtDQEBIXTNbQ0BdMTJbQ0gzXSk9W0NIXVxbQ0gyXVtDQEhdNFtDQF01KFtDSDNdKVtDQEBdKFtDSDJdMykoW0NIM10pW0NAQF01KFtDSDNdKVtDQEBIXTZbQ0BASF0oW0NAQEhdKFtDSDJdNClbT0hdKUMoPU8pT1tDSDJdNg==

>  <s_epik_cmdline>  (2) 
J2VwaWtfcHl0aG9uJywgJy1waHQnLCAnMi4wJywgJy1waCcsICc3LjAnLCAnLXRuJywgJzgnLCAnLW1hJywgJzIwMCcsICctaW1hZScsICc8aW5maWxlLm1hZT4nLCAnLW9tYWUnLCAnPG91dGZpbGUubWFlPic=

>  <r_lp_tautomer_probability>  (2) 
1

>  <r_epik_Ionization_Penalty>  (2) 
1.608e-07

>  <r_epik_Ionization_Penalty_Charging>  (2) 
0

>  <r_epik_Ionization_Penalty_Neutral>  (2) 
1.608e-07

>  <r_epik_State_Penalty>  (2) 
-0

>  <r_epik_Charging_Adjusted_Penalty>  (2) 
0

>  <i_epik_Tot_Q>  (2) 
0

>  <i_epik_Tot_abs_Q>  (2) 
0

>  <s_epik_Chemistry_Notes>  (2) 
This compound has an ester and may undergo hydrolysis at high or low pH.

>  <s_lp_Force_Field>  (2) 
OPLS3e

>  <r_lp_Energy>  (2) 
94.4222

>  <b_lp_Chiralities_Consistent>  (2) 
1

>  <s_lp_Variant>  (2) 
0:0-1

>  <s_i_glide_gridfile>  (2) 
pfpi4k_grid

>  <i_i_glide_lignum>  (2) 
1

>  <i_i_glide_rotatable_bonds>  (2) 
1

>  <r_i_docking_score>  (2) 
-2.59671

>  <r_i_glide_ligand_efficiency>  (2) 
-0.0865571

>  <r_i_glide_ligand_efficiency_sa>  (2) 
-0.268953

>  <r_i_glide_ligand_efficiency_ln>  (2) 
-0.590002

>  <r_i_glide_gscore>  (2) 
-2.59671

>  <r_i_glide_lipo>  (2) 
-0.305498

>  <r_i_glide_hbond>  (2) 
0

>  <r_i_glide_metal>  (2) 
-0

>  <r_i_glide_rewards>  (2) 
-0.733218

>  <r_i_glide_evdw>  (2) 
-28.3071

>  <r_i_glide_ecoul>  (2) 
-0.785362

>  <r_i_glide_erotb>  (2) 
0

>  <r_i_glide_esite>  (2) 
-0.0248403

>  <r_i_glide_emodel>  (2) 
-33.8977

>  <r_i_glide_energy>  (2) 
-29.0924

>  <r_i_glide_einternal>  (2) 
0.332321

>  <r_i_glide_intrahb_reward>  (2) 
-0

>  <i_i_glide_confnum>  (2) 
1

>  <i_i_glide_posenum>  (2) 
31

>  <r_i_glide_eff_state_penalty>  (2) 
0

>  <ligand_id>  (2) 
0

>  <original_smiles>  (2) 
CC1(C)C2CC(=O)C1(C)C1CC3(C)C4(C)C(CC=C21)CC(O)C1C(=O)OCC1C34C

>  <smiles>  (2) 
[H]OC1([H])C([H])([H])C2([H])C([H])([H])C([H])=C3C([H])(C([H])([H])C4(C([H])([H])[H])C2(C([H])([H])[H])C4(C([H])([H])[H])C2([H])C([H])([H])OC(=O)C12[H])C1(C([H])([H])[H])C(=O)C([H])([H])C3([H])C1(C([H])([H])[H])C([H])([H])[H]

$$$$
0:0:2
     RDKit          3D

 66 71  0  0  1  0  0  0  0  0999 V2000
   -0.1797   -7.7184    5.3061 C   0  0  0  0  0  0  0  0  0  0  0  0
    0.9511   -8.5431    5.9782 C   0  0  0  0  0  0  0  0  0  0  0  0
    0.2349   -9.4473    7.0347 C   0  0  0  0  0  0  0  0  0  0  0  0
    1.8267   -9.3109    4.9542 C   0  0  2  0  0  0  0  0  0  0  0  0
    2.9119   -9.9865    5.8320 C   0  0  0  0  0  0  0  0  0  0  0  0
    3.1168   -8.8965    6.8729 C   0  0  0  0  0  0  0  0  0  0  0  0
    3.8964   -8.9387    7.8246 O   0  0  0  0  0  0  0  0  0  0  0  0
    2.1771   -7.7332    6.5116 C   0  0  2  0  0  0  0  0  0  0  0  0
    1.9234   -6.8022    7.7174 C   0  0  0  0  0  0  0  0  0  0  0  0
    2.8113   -7.0937    5.2273 C   0  0  2  0  0  0  0  0  0  0  0  0
    2.2647   -5.6964    4.8411 C   0  0  0  0  0  0  0  0  0  0  0  0
    3.3485   -4.7160    4.3959 C   0  0  1  0  0  0  0  0  0  0  0  0
    4.1000   -4.2215    5.6292 C   0  0  0  0  0  0  0  0  0  0  0  0
    3.9572   -5.0276    3.0665 C   0  0  1  0  0  0  0  0  0  0  0  0
    5.4619   -5.3025    3.2312 C   0  0  0  0  0  0  0  0  0  0  0  0
    3.3966   -5.8161    1.8746 C   0  0  2  0  0  0  0  0  0  0  0  0
    3.6512   -7.3486    1.9440 C   0  0  0  0  0  0  0  0  0  0  0  0
    2.8191   -8.2473    2.8668 C   0  0  0  0  0  0  0  0  0  0  0  0
    2.5221   -8.1773    4.1851 C   0  0  0  0  0  0  0  0  0  0  0  0
    3.9422   -5.2379    0.5121 C   0  0  0  0  0  0  0  0  0  0  0  0
    4.0609   -3.6885    0.2597 C   0  0  1  0  0  0  0  0  0  0  0  0
    2.7988   -3.1256   -0.0549 O   0  0  0  0  0  0  0  0  0  0  0  0
    4.7942   -2.9143    1.3908 C   0  0  1  0  0  0  0  0  0  0  0  0
    5.4686   -1.5795    1.1325 C   0  0  0  0  0  0  0  0  0  0  0  0
    5.8242   -1.1569    0.0328 O   0  0  0  0  0  0  0  0  0  0  0  0
    5.6098   -0.9725    2.3327 O   0  0  0  0  0  0  0  0  0  0  0  0
    5.0112   -1.7030    3.4094 C   0  0  0  0  0  0  0  0  0  0  0  0
    3.9923   -2.5400    2.6337 C   0  0  2  0  0  0  0  0  0  0  0  0
    3.1758   -3.6939    3.2612 C   0  0  2  0  0  0  0  0  0  0  0  0
    1.6928   -3.4106    2.9700 C   0  0  0  0  0  0  0  0  0  0  0  0
   -1.0840   -8.3227    5.1974 H   0  0  0  0  0  0  0  0  0  0  0  0
    0.0598   -7.3776    4.2995 H   0  0  0  0  0  0  0  0  0  0  0  0
   -0.4418   -6.8447    5.9053 H   0  0  0  0  0  0  0  0  0  0  0  0
    0.8929  -10.0767    7.6307 H   0  0  0  0  0  0  0  0  0  0  0  0
   -0.4681  -10.1236    6.5467 H   0  0  0  0  0  0  0  0  0  0  0  0
   -0.3332   -8.8421    7.7443 H   0  0  0  0  0  0  0  0  0  0  0  0
    1.2794  -10.0157    4.3223 H   0  0  0  0  0  0  0  0  0  0  0  0
    2.5775  -10.9079    6.3085 H   0  0  0  0  0  0  0  0  0  0  0  0
    3.8315  -10.1917    5.2865 H   0  0  0  0  0  0  0  0  0  0  0  0
    1.0566   -6.1610    7.5757 H   0  0  0  0  0  0  0  0  0  0  0  0
    2.7822   -6.1589    7.9088 H   0  0  0  0  0  0  0  0  0  0  0  0
    1.7424   -7.3710    8.6285 H   0  0  0  0  0  0  0  0  0  0  0  0
    3.8947   -7.0368    5.3407 H   0  0  0  0  0  0  0  0  0  0  0  0
    1.5526   -5.8529    4.0422 H   0  0  0  0  0  0  0  0  0  0  0  0
    1.6958   -5.2287    5.6425 H   0  0  0  0  0  0  0  0  0  0  0  0
    4.8855   -3.5193    5.3695 H   0  0  0  0  0  0  0  0  0  0  0  0
    4.5588   -5.0473    6.1698 H   0  0  0  0  0  0  0  0  0  0  0  0
    3.4148   -3.7054    6.3018 H   0  0  0  0  0  0  0  0  0  0  0  0
    5.9588   -5.5058    2.2859 H   0  0  0  0  0  0  0  0  0  0  0  0
    5.6153   -6.1703    3.8713 H   0  0  0  0  0  0  0  0  0  0  0  0
    5.9666   -4.4590    3.6895 H   0  0  0  0  0  0  0  0  0  0  0  0
    2.3154   -5.7014    1.8404 H   0  0  0  0  0  0  0  0  0  0  0  0
    3.4239   -7.7406    0.9525 H   0  0  0  0  0  0  0  0  0  0  0  0
    4.7050   -7.5878    2.0945 H   0  0  0  0  0  0  0  0  0  0  0  0
    2.5178   -9.1691    2.3882 H   0  0  0  0  0  0  0  0  0  0  0  0
    4.9372   -5.6582    0.3410 H   0  0  0  0  0  0  0  0  0  0  0  0
    3.3406   -5.6563   -0.3008 H   0  0  0  0  0  0  0  0  0  0  0  0
    4.6575   -3.5802   -0.6508 H   0  0  0  0  0  0  0  0  0  0  0  0
    2.9066   -2.2230   -0.3231 H   0  0  0  0  0  0  0  0  0  0  0  0
    5.6632   -3.5084    1.6447 H   0  0  0  0  0  0  0  0  0  0  0  0
    5.7739   -2.3079    3.8976 H   0  0  0  0  0  0  0  0  0  0  0  0
    4.5520   -1.0449    4.1474 H   0  0  0  0  0  0  0  0  0  0  0  0
    3.2700   -1.7803    2.3245 H   0  0  0  0  0  0  0  0  0  0  0  0
    1.5378   -2.8424    2.0598 H   0  0  0  0  0  0  0  0  0  0  0  0
    1.2588   -2.8393    3.7864 H   0  0  0  0  0  0  0  0  0  0  0  0
    1.0912   -4.3013    2.8309 H   0  0  0  0  0  0  0  0  0  0  0  0
  1  2  1  0
  1 31  1  0
  1 32  1  0
  1 33  1  0
  2  8  1  0
  2  3  1  0
  2  4  1  0
  3 34  1  0
  3 35  1  0
  3 36  1  0
  4 19  1  0
  4  5  1  0
  4 37  1  6
  5  6  1  0
  5 38  1  0
  5 39  1  0
  6  7  2  0
  6  8  1  0
  8  9  1  1
  8 10  1  0
  9 40  1  0
  9 41  1  0
  9 42  1  0
 10 19  1  0
 10 11  1  0
 10 43  1  1
 11 12  1  0
 11 44  1  0
 11 45  1  0
 12 29  1  0
 12 13  1  1
 12 14  1  0
 13 46  1  0
 13 47  1  0
 13 48  1  0
 14 29  1  0
 14 15  1  1
 14 16  1  0
 15 49  1  0
 15 50  1  0
 15 51  1  0
 16 17  1  0
 16 20  1  0
 16 52  1  6
 17 18  1  0
 17 53  1  0
 17 54  1  0
 18 19  2  3
 18 55  1  0
 20 21  1  0
 20 56  1  0
 20 57  1  0
 21 22  1  0
 21 23  1  0
 21 58  1  6
 22 59  1  0
 23 28  1  0
 23 24  1  0
 23 60  1  1
 24 25  2  0
 24 26  1  0
 26 27  1  0
 27 28  1  0
 27 61  1  0
 27 62  1  0
 28 29  1  0
 28 63  1  6
 29 30  1  6
 30 64  1  0
 30 65  1  0
 30 66  1  0
M  END
>  <i_m_ct_stereo_status>  (3) 
1

>  <s_m_source_file>  (3) 
/var/tmp/pbs.5076255.sched01/tmpnv36izql/0kitkh5ys.sdf

>  <i_m_source_file_index>  (3) 
1

>  <i_lp_mmshare_version>  (3) 
48012

>  <i_f3d_flags>  (3) 
0

>  <s_epik_input>  (3) 
Tz1DMVtDSDJdW0NAQEhdKEMyKFtDSDNdKVtDSDNdKVxDKFtDQEBIXTNbQ0BdMTJbQ0gzXSk9W0NIXVxbQ0gyXVtDQEhdNFtDQF01KFtDSDNdKVtDQEBdKFtDSDJdMykoW0NIM10pW0NAQF01KFtDSDNdKVtDQEBIXTZbQ0BASF0oW0NAQEhdKFtDSDJdNClbT0hdKUMoPU8pT1tDSDJdNg==

>  <s_epik_cmdline>  (3) 
J2VwaWtfcHl0aG9uJywgJy1waHQnLCAnMi4wJywgJy1waCcsICc3LjAnLCAnLXRuJywgJzgnLCAnLW1hJywgJzIwMCcsICctaW1hZScsICc8aW5maWxlLm1hZT4nLCAnLW9tYWUnLCAnPG91dGZpbGUubWFlPic=

>  <r_lp_tautomer_probability>  (3) 
1

>  <r_epik_Ionization_Penalty>  (3) 
1.608e-07

>  <r_epik_Ionization_Penalty_Charging>  (3) 
0

>  <r_epik_Ionization_Penalty_Neutral>  (3) 
1.608e-07

>  <r_epik_State_Penalty>  (3) 
-0

>  <r_epik_Charging_Adjusted_Penalty>  (3) 
0

>  <i_epik_Tot_Q>  (3) 
0

>  <i_epik_Tot_abs_Q>  (3) 
0

>  <s_epik_Chemistry_Notes>  (3) 
This compound has an ester and may undergo hydrolysis at high or low pH.

>  <s_lp_Force_Field>  (3) 
OPLS3e

>  <r_lp_Energy>  (3) 
94.4222

>  <b_lp_Chiralities_Consistent>  (3) 
1

>  <s_lp_Variant>  (3) 
0:0-1

>  <s_i_glide_gridfile>  (3) 
pfpi4k_grid

>  <i_i_glide_lignum>  (3) 
1

>  <i_i_glide_rotatable_bonds>  (3) 
1

>  <r_i_docking_score>  (3) 
-2.36177

>  <r_i_glide_ligand_efficiency>  (3) 
-0.0787256

>  <r_i_glide_ligand_efficiency_sa>  (3) 
-0.244619

>  <r_i_glide_ligand_efficiency_ln>  (3) 
-0.536619

>  <r_i_glide_gscore>  (3) 
-2.36177

>  <r_i_glide_lipo>  (3) 
-0.204794

>  <r_i_glide_hbond>  (3) 
0

>  <r_i_glide_metal>  (3) 
-0

>  <r_i_glide_rewards>  (3) 
-0.74363

>  <r_i_glide_evdw>  (3) 
-23.4806

>  <r_i_glide_ecoul>  (3) 
-1.45795

>  <r_i_glide_erotb>  (3) 
0

>  <r_i_glide_esite>  (3) 
-0.0206237

>  <r_i_glide_emodel>  (3) 
-29.2986

>  <r_i_glide_energy>  (3) 
-24.9385

>  <r_i_glide_einternal>  (3) 
0.332204

>  <r_i_glide_intrahb_reward>  (3) 
-0

>  <i_i_glide_confnum>  (3) 
2

>  <i_i_glide_posenum>  (3) 
1

>  <r_i_glide_eff_state_penalty>  (3) 
0

>  <ligand_id>  (3) 
0

>  <original_smiles>  (3) 
CC1(C)C2CC(=O)C1(C)C1CC3(C)C4(C)C(CC=C21)CC(O)C1C(=O)OCC1C34C

>  <smiles>  (3) 
[H]OC1([H])C([H])([H])C2([H])C([H])([H])C([H])=C3C([H])(C([H])([H])C4(C([H])([H])[H])C2(C([H])([H])[H])C4(C([H])([H])[H])C2([H])C([H])([H])OC(=O)C12[H])C1(C([H])([H])[H])C(=O)C([H])([H])C3([H])C1(C([H])([H])[H])C([H])([H])[H]

$$$$
0:1:0
     RDKit          3D

 66 71  0  0  1  0  0  0  0  0999 V2000
    0.1018   -7.1652    1.6664 C   0  0  0  0  0  0  0  0  0  0  0  0
    0.0864   -8.1724    2.8431 C   0  0  0  0  0  0  0  0  0  0  0  0
   -1.2444   -8.9748    2.6317 C   0  0  0  0  0  0  0  0  0  0  0  0
    1.3658   -9.0374    2.8758 C   0  0  2  0  0  0  0  0  0  0  0  0
    1.1169   -9.9525    4.1066 C   0  0  0  0  0  0  0  0  0  0  0  0
    0.4300   -8.9519    5.0302 C   0  0  0  0  0  0  0  0  0  0  0  0
    0.0300   -9.1679    6.1787 O   0  0  0  0  0  0  0  0  0  0  0  0
    0.3372   -7.6170    4.2888 C   0  0  2  0  0  0  0  0  0  0  0  0
   -0.7575   -6.6950    4.8661 C   0  0  0  0  0  0  0  0  0  0  0  0
    1.7990   -7.0533    4.2950 C   0  0  2  0  0  0  0  0  0  0  0  0
    1.9246   -5.5445    3.8610 C   0  0  0  0  0  0  0  0  0  0  0  0
    3.3170   -4.8580    3.5791 C   0  0  1  0  0  0  0  0  0  0  0  0
    3.7654   -4.2582    4.9063 C   0  0  0  0  0  0  0  0  0  0  0  0
    4.3106   -5.3043    2.5096 C   0  0  1  0  0  0  0  0  0  0  0  0
    5.7246   -5.4546    3.1116 C   0  0  0  0  0  0  0  0  0  0  0  0
    4.1659   -6.2493    1.2904 C   0  0  2  0  0  0  0  0  0  0  0  0
    4.2548   -7.7779    1.6265 C   0  0  0  0  0  0  0  0  0  0  0  0
    3.7390   -8.0123    3.0181 C   0  0  0  0  0  0  0  0  0  0  0  0
    2.4294   -8.0332    3.3240 C   0  0  0  0  0  0  0  0  0  0  0  0
    5.1057   -5.8298    0.1048 C   0  0  0  0  0  0  0  0  0  0  0  0
    5.2981   -4.3198   -0.2863 C   0  0  1  0  0  0  0  0  0  0  0  0
    4.2045   -3.8522   -1.0526 O   0  0  0  0  0  0  0  0  0  0  0  0
    5.6499   -3.3806    0.9053 C   0  0  1  0  0  0  0  0  0  0  0  0
    6.3659   -2.0798    0.6815 C   0  0  0  0  0  0  0  0  0  0  0  0
    7.0282   -1.8084   -0.3127 O   0  0  0  0  0  0  0  0  0  0  0  0
    6.1602   -1.3214    1.7992 O   0  0  0  0  0  0  0  0  0  0  0  0
    5.2502   -1.9277    2.7358 C   0  0  0  0  0  0  0  0  0  0  0  0
    4.5292   -2.8898    1.8137 C   0  0  2  0  0  0  0  0  0  0  0  0
    3.5417   -3.9781    2.3109 C   0  0  2  0  0  0  0  0  0  0  0  0
    2.2775   -3.7627    1.4869 C   0  0  0  0  0  0  0  0  0  0  0  0
   -0.2760   -7.6249    0.7515 H   0  0  0  0  0  0  0  0  0  0  0  0
    1.1052   -6.8281    1.4181 H   0  0  0  0  0  0  0  0  0  0  0  0
   -0.5300   -6.3013    1.8684 H   0  0  0  0  0  0  0  0  0  0  0  0
   -1.4539   -9.7302    3.3846 H   0  0  0  0  0  0  0  0  0  0  0  0
   -1.2344   -9.5090    1.6814 H   0  0  0  0  0  0  0  0  0  0  0  0
   -2.1070   -8.3078    2.6171 H   0  0  0  0  0  0  0  0  0  0  0  0
    1.6097   -9.5763    1.9526 H   0  0  0  0  0  0  0  0  0  0  0  0
    0.4625  -10.8025    3.8940 H   0  0  0  0  0  0  0  0  0  0  0  0
    2.0376  -10.3267    4.5521 H   0  0  0  0  0  0  0  0  0  0  0  0
   -0.9326   -5.8469    4.2149 H   0  0  0  0  0  0  0  0  0  0  0  0
   -0.4843   -6.3238    5.8518 H   0  0  0  0  0  0  0  0  0  0  0  0
   -1.7019   -7.2252    4.9500 H   0  0  0  0  0  0  0  0  0  0  0  0
    2.2707   -7.1792    5.2736 H   0  0  0  0  0  0  0  0  0  0  0  0
    1.2609   -5.3871    3.0351 H   0  0  0  0  0  0  0  0  0  0  0  0
    1.4283   -4.9557    4.6366 H   0  0  0  0  0  0  0  0  0  0  0  0
    4.6592   -3.6606    4.7923 H   0  0  0  0  0  0  0  0  0  0  0  0
    3.9708   -5.0467    5.6288 H   0  0  0  0  0  0  0  0  0  0  0  0
    3.0013   -3.5927    5.3121 H   0  0  0  0  0  0  0  0  0  0  0  0
    6.4335   -5.9071    2.4210 H   0  0  0  0  0  0  0  0  0  0  0  0
    5.7235   -6.0536    4.0180 H   0  0  0  0  0  0  0  0  0  0  0  0
    6.1283   -4.5015    3.4104 H   0  0  0  0  0  0  0  0  0  0  0  0
    3.1689   -6.1470    0.9022 H   0  0  0  0  0  0  0  0  0  0  0  0
    3.6980   -8.3779    0.8960 H   0  0  0  0  0  0  0  0  0  0  0  0
    5.2934   -8.1189    1.5868 H   0  0  0  0  0  0  0  0  0  0  0  0
    4.3120   -7.4596    3.7257 H   0  0  0  0  0  0  0  0  0  0  0  0
    6.1012   -6.2344    0.2990 H   0  0  0  0  0  0  0  0  0  0  0  0
    4.7712   -6.3698   -0.7803 H   0  0  0  0  0  0  0  0  0  0  0  0
    6.1443   -4.2854   -0.9770 H   0  0  0  0  0  0  0  0  0  0  0  0
    3.9644   -4.5128   -1.6994 H   0  0  0  0  0  0  0  0  0  0  0  0
    6.4214   -3.9100    1.4510 H   0  0  0  0  0  0  0  0  0  0  0  0
    5.8186   -2.4125    3.5287 H   0  0  0  0  0  0  0  0  0  0  0  0
    4.6006   -1.1717    3.1908 H   0  0  0  0  0  0  0  0  0  0  0  0
    3.9501   -2.1808    1.2102 H   0  0  0  0  0  0  0  0  0  0  0  0
    2.4247   -3.2704    0.5297 H   0  0  0  0  0  0  0  0  0  0  0  0
    1.5812   -3.1565    2.0655 H   0  0  0  0  0  0  0  0  0  0  0  0
    1.8130   -4.6881    1.2072 H   0  0  0  0  0  0  0  0  0  0  0  0
  1  2  1  0
  1 31  1  0
  1 32  1  0
  1 33  1  0
  2  8  1  0
  2  3  1  0
  2  4  1  0
  3 34  1  0
  3 35  1  0
  3 36  1  0
  4 19  1  0
  4  5  1  0
  4 37  1  6
  5  6  1  0
  5 38  1  0
  5 39  1  0
  6  7  2  0
  6  8  1  0
  8  9  1  1
  8 10  1  0
  9 40  1  0
  9 41  1  0
  9 42  1  0
 10 19  1  0
 10 11  1  0
 10 43  1  1
 11 12  1  0
 11 44  1  0
 11 45  1  0
 12 29  1  0
 12 13  1  1
 12 14  1  0
 13 46  1  0
 13 47  1  0
 13 48  1  0
 14 29  1  0
 14 15  1  1
 14 16  1  0
 15 49  1  0
 15 50  1  0
 15 51  1  0
 16 17  1  0
 16 20  1  0
 16 52  1  6
 17 18  1  0
 17 53  1  0
 17 54  1  0
 18 19  2  3
 18 55  1  0
 20 21  1  0
 20 56  1  0
 20 57  1  0
 21 22  1  0
 21 23  1  0
 21 58  1  6
 22 59  1  0
 23 28  1  0
 23 24  1  0
 23 60  1  1
 24 25  2  0
 24 26  1  0
 26 27  1  0
 27 28  1  0
 27 61  1  0
 27 62  1  0
 28 29  1  0
 28 63  1  6
 29 30  1  6
 30 64  1  0
 30 65  1  0
 30 66  1  0
M  END
>  <i_m_ct_stereo_status>  (4) 
1

>  <s_m_source_file>  (4) 
/var/tmp/pbs.5076255.sched01/tmpnv36izql/0kitkh5ys.sdf

>  <i_m_source_file_index>  (4) 
2

>  <i_lp_mmshare_version>  (4) 
48012

>  <i_f3d_flags>  (4) 
0

>  <s_epik_input>  (4) 
Tz1DMVtDSDJdW0NAQEhdKEMyKFtDSDNdKVtDSDNdKVxDKFtDQEBIXTNbQ0BdMTJbQ0gzXSk9W0NIXVxbQ0gyXVtDQEhdNFtDQF01KFtDSDNdKVtDQEBdKFtDSDJdMykoW0NIM10pW0NAQF01KFtDSDNdKVtDQEBIXTZbQ0BASF0oW0NAQEhdKFtDSDJdNClbT0hdKUMoPU8pT1tDSDJdNg==

>  <s_epik_cmdline>  (4) 
J2VwaWtfcHl0aG9uJywgJy1waHQnLCAnMi4wJywgJy1waCcsICc3LjAnLCAnLXRuJywgJzgnLCAnLW1hJywgJzIwMCcsICctaW1hZScsICc8aW5maWxlLm1hZT4nLCAnLW9tYWUnLCAnPG91dGZpbGUubWFlPic=

>  <r_lp_tautomer_probability>  (4) 
1

>  <r_epik_Ionization_Penalty>  (4) 
1.608e-07

>  <r_epik_Ionization_Penalty_Charging>  (4) 
0

>  <r_epik_Ionization_Penalty_Neutral>  (4) 
1.608e-07

>  <r_epik_State_Penalty>  (4) 
-0

>  <r_epik_Charging_Adjusted_Penalty>  (4) 
0

>  <i_epik_Tot_Q>  (4) 
0

>  <i_epik_Tot_abs_Q>  (4) 
0

>  <s_epik_Chemistry_Notes>  (4) 
This compound has an ester and may undergo hydrolysis at high or low pH.

>  <s_lp_Force_Field>  (4) 
OPLS3e

>  <r_lp_Energy>  (4) 
131.929

>  <b_lp_Chiralities_Consistent>  (4) 
1

>  <s_lp_Variant>  (4) 
0:0-2

>  <s_i_glide_gridfile>  (4) 
pfpi4k_grid

>  <i_i_glide_lignum>  (4) 
2

>  <i_i_glide_rotatable_bonds>  (4) 
1

>  <r_i_docking_score>  (4) 
-3.62882

>  <r_i_glide_ligand_efficiency>  (4) 
-0.120961

>  <r_i_glide_ligand_efficiency_sa>  (4) 
-0.375853

>  <r_i_glide_ligand_efficiency_ln>  (4) 
-0.824508

>  <r_i_glide_gscore>  (4) 
-3.62882

>  <r_i_glide_lipo>  (4) 
-0.45911

>  <r_i_glide_hbond>  (4) 
-0.41962

>  <r_i_glide_metal>  (4) 
-0

>  <r_i_glide_rewards>  (4) 
-0.704807

>  <r_i_glide_evdw>  (4) 
-30.3563

>  <r_i_glide_ecoul>  (4) 
-3.20581

>  <r_i_glide_erotb>  (4) 
0

>  <r_i_glide_esite>  (4) 
-0.0465993

>  <r_i_glide_emodel>  (4) 
-40.1795

>  <r_i_glide_energy>  (4) 
-33.5621

>  <r_i_glide_einternal>  (4) 
0.520221

>  <r_i_glide_intrahb_reward>  (4) 
-0

>  <i_i_glide_confnum>  (4) 
1

>  <i_i_glide_posenum>  (4) 
24

>  <r_i_glide_eff_state_penalty>  (4) 
0

>  <ligand_id>  (4) 
0

>  <original_smiles>  (4) 
CC1(C)C2CC(=O)C1(C)C1CC3(C)C4(C)C(CC=C21)CC(O)C1C(=O)OCC1C34C

>  <smiles>  (4) 
[H]OC1([H])C([H])([H])C2([H])C([H])([H])C([H])=C3C([H])(C([H])([H])C4(C([H])([H])[H])C2(C([H])([H])[H])C4(C([H])([H])[H])C2([H])C([H])([H])OC(=O)C12[H])C1(C([H])([H])[H])C(=O)C([H])([H])C3([H])C1(C([H])([H])[H])C([H])([H])[H]

$$$$
0:1:1
     RDKit          3D

 66 71  0  0  1  0  0  0  0  0999 V2000
    2.3774   -0.0782    3.2128 C   0  0  0  0  0  0  0  0  0  0  0  0
    2.8155   -0.6220    4.5898 C   0  0  0  0  0  0  0  0  0  0  0  0
    2.0973    0.3079    5.6228 C   0  0  0  0  0  0  0  0  0  0  0  0
    2.4930   -2.1268    4.7353 C   0  0  2  0  0  0  0  0  0  0  0  0
    2.9993   -2.4365    6.1732 C   0  0  0  0  0  0  0  0  0  0  0  0
    4.2529   -1.5640    6.1905 C   0  0  0  0  0  0  0  0  0  0  0  0
    5.0230   -1.4344    7.1396 O   0  0  0  0  0  0  0  0  0  0  0  0
    4.3522   -0.8511    4.8320 C   0  0  2  0  0  0  0  0  0  0  0  0
    5.2381    0.4071    4.8864 C   0  0  0  0  0  0  0  0  0  0  0  0
    4.7955   -1.9769    3.8318 C   0  0  2  0  0  0  0  0  0  0  0  0
    5.2630   -1.4495    2.4195 C   0  0  0  0  0  0  0  0  0  0  0  0
    5.4999   -2.4050    1.1904 C   0  0  1  0  0  0  0  0  0  0  0  0
    6.9524   -2.8114    1.2048 C   0  0  0  0  0  0  0  0  0  0  0  0
    4.4531   -3.3345    0.5899 C   0  0  1  0  0  0  0  0  0  0  0  0
    5.0088   -4.7746    0.4487 C   0  0  0  0  0  0  0  0  0  0  0  0
    2.9144   -3.3903    0.6916 C   0  0  2  0  0  0  0  0  0  0  0  0
    2.4034   -4.1032    1.9911 C   0  0  0  0  0  0  0  0  0  0  0  0
    3.3974   -3.9278    3.1122 C   0  0  0  0  0  0  0  0  0  0  0  0
    3.5120   -2.7797    3.7942 C   0  0  0  0  0  0  0  0  0  0  0  0
    2.2751   -3.9214   -0.6441 C   0  0  0  0  0  0  0  0  0  0  0  0
    2.7671   -3.4378   -2.0240 C   0  0  1  0  0  0  0  0  0  0  0  0
    2.3046   -2.1902   -2.4264 O   0  0  0  0  0  0  0  0  0  0  0  0
    4.2807   -3.5652   -2.1834 C   0  0  1  0  0  0  0  0  0  0  0  0
    4.8821   -3.7305   -3.5218 C   0  0  0  0  0  0  0  0  0  0  0  0
    4.2776   -4.1325   -4.4899 O   0  0  0  0  0  0  0  0  0  0  0  0
    6.1657   -3.4261   -3.4162 O   0  0  0  0  0  0  0  0  0  0  0  0
    6.5635   -2.9644   -2.1378 C   0  0  0  0  0  0  0  0  0  0  0  0
    5.2059   -2.4767   -1.6430 C   0  0  2  0  0  0  0  0  0  0  0  0
    4.9251   -2.0753   -0.1910 C   0  0  2  0  0  0  0  0  0  0  0  0
    4.2285   -0.7179   -0.2863 C   0  0  0  0  0  0  0  0  0  0  0  0
    1.3285    0.2263    3.2241 H   0  0  0  0  0  0  0  0  0  0  0  0
    2.4423   -0.8220    2.4251 H   0  0  0  0  0  0  0  0  0  0  0  0
    2.9559    0.8003    2.9204 H   0  0  0  0  0  0  0  0  0  0  0  0
    2.3095    0.1160    6.6752 H   0  0  0  0  0  0  0  0  0  0  0  0
    1.0128    0.2367    5.5148 H   0  0  0  0  0  0  0  0  0  0  0  0
    2.3621    1.3513    5.4450 H   0  0  0  0  0  0  0  0  0  0  0  0
    1.4568   -2.4206    4.5607 H   0  0  0  0  0  0  0  0  0  0  0  0
    2.3116   -2.1280    6.9617 H   0  0  0  0  0  0  0  0  0  0  0  0
    3.2615   -3.4850    6.3229 H   0  0  0  0  0  0  0  0  0  0  0  0
    5.1341    0.9986    3.9774 H   0  0  0  0  0  0  0  0  0  0  0  0
    6.2953    0.1546    5.0080 H   0  0  0  0  0  0  0  0  0  0  0  0
    4.9645    1.0532    5.7250 H   0  0  0  0  0  0  0  0  0  0  0  0
    5.5844   -2.6049    4.2513 H   0  0  0  0  0  0  0  0  0  0  0  0
    4.5889   -0.6624    2.1365 H   0  0  0  0  0  0  0  0  0  0  0  0
    6.1878   -0.8902    2.5766 H   0  0  0  0  0  0  0  0  0  0  0  0
    7.2626   -3.3318    0.3030 H   0  0  0  0  0  0  0  0  0  0  0  0
    7.1218   -3.4778    2.0365 H   0  0  0  0  0  0  0  0  0  0  0  0
    7.5822   -1.9120    1.2542 H   0  0  0  0  0  0  0  0  0  0  0  0
    4.2534   -5.4872    0.1371 H   0  0  0  0  0  0  0  0  0  0  0  0
    5.4472   -5.1346    1.3710 H   0  0  0  0  0  0  0  0  0  0  0  0
    5.8079   -4.8297   -0.2760 H   0  0  0  0  0  0  0  0  0  0  0  0
    2.5679   -2.3758    0.8098 H   0  0  0  0  0  0  0  0  0  0  0  0
    1.4432   -3.6949    2.3069 H   0  0  0  0  0  0  0  0  0  0  0  0
    2.2713   -5.1705    1.8148 H   0  0  0  0  0  0  0  0  0  0  0  0
    4.3375   -4.3410    2.8412 H   0  0  0  0  0  0  0  0  0  0  0  0
    2.2925   -5.0124   -0.6251 H   0  0  0  0  0  0  0  0  0  0  0  0
    1.2277   -3.6636   -0.7285 H   0  0  0  0  0  0  0  0  0  0  0  0
    2.2456   -4.0775   -2.7511 H   0  0  0  0  0  0  0  0  0  0  0  0
    1.7174   -1.8187   -1.7656 H   0  0  0  0  0  0  0  0  0  0  0  0
    4.5217   -4.5541   -1.8182 H   0  0  0  0  0  0  0  0  0  0  0  0
    7.0024   -3.7996   -1.6020 H   0  0  0  0  0  0  0  0  0  0  0  0
    7.2886   -2.1676   -2.2526 H   0  0  0  0  0  0  0  0  0  0  0  0
    5.0388   -1.6054   -2.2878 H   0  0  0  0  0  0  0  0  0  0  0  0
    3.7331   -0.5807   -1.2400 H   0  0  0  0  0  0  0  0  0  0  0  0
    4.9697    0.0712   -0.1651 H   0  0  0  0  0  0  0  0  0  0  0  0
    3.4457   -0.5732    0.4382 H   0  0  0  0  0  0  0  0  0  0  0  0
  1  2  1  0
  1 31  1  0
  1 32  1  0
  1 33  1  0
  2  8  1  0
  2  3  1  0
  2  4  1  0
  3 34  1  0
  3 35  1  0
  3 36  1  0
  4 19  1  0
  4  5  1  0
  4 37  1  1
  5  6  1  0
  5 38  1  0
  5 39  1  0
  6  7  2  0
  6  8  1  0
  8  9  1  1
  8 10  1  0
  9 40  1  0
  9 41  1  0
  9 42  1  0
 10 19  1  0
 10 11  1  0
 10 43  1  1
 11 12  1  0
 11 44  1  0
 11 45  1  0
 12 29  1  0
 12 13  1  6
 12 14  1  0
 13 46  1  0
 13 47  1  0
 13 48  1  0
 14 29  1  0
 14 15  1  6
 14 16  1  0
 15 49  1  0
 15 50  1  0
 15 51  1  0
 16 17  1  0
 16 20  1  0
 16 52  1  1
 17 18  1  0
 17 53  1  0
 17 54  1  0
 18 19  2  3
 18 55  1  0
 20 21  1  0
 20 56  1  0
 20 57  1  0
 21 22  1  0
 21 23  1  0
 21 58  1  6
 22 59  1  0
 23 28  1  0
 23 24  1  0
 23 60  1  1
 24 25  2  0
 24 26  1  0
 26 27  1  0
 27 28  1  0
 27 61  1  0
 27 62  1  0
 28 29  1  0
 28 63  1  6
 29 30  1  6
 30 64  1  0
 30 65  1  0
 30 66  1  0
M  END
>  <i_m_ct_stereo_status>  (5) 
1

>  <s_m_source_file>  (5) 
/var/tmp/pbs.5076255.sched01/tmpnv36izql/0kitkh5ys.sdf

>  <i_m_source_file_index>  (5) 
2

>  <i_lp_mmshare_version>  (5) 
48012

>  <i_f3d_flags>  (5) 
0

>  <s_epik_input>  (5) 
Tz1DMVtDSDJdW0NAQEhdKEMyKFtDSDNdKVtDSDNdKVxDKFtDQEBIXTNbQ0BdMTJbQ0gzXSk9W0NIXVxbQ0gyXVtDQEhdNFtDQF01KFtDSDNdKVtDQEBdKFtDSDJdMykoW0NIM10pW0NAQF01KFtDSDNdKVtDQEBIXTZbQ0BASF0oW0NAQEhdKFtDSDJdNClbT0hdKUMoPU8pT1tDSDJdNg==

>  <s_epik_cmdline>  (5) 
J2VwaWtfcHl0aG9uJywgJy1waHQnLCAnMi4wJywgJy1waCcsICc3LjAnLCAnLXRuJywgJzgnLCAnLW1hJywgJzIwMCcsICctaW1hZScsICc8aW5maWxlLm1hZT4nLCAnLW9tYWUnLCAnPG91dGZpbGUubWFlPic=

>  <r_lp_tautomer_probability>  (5) 
1

>  <r_epik_Ionization_Penalty>  (5) 
1.608e-07

>  <r_epik_Ionization_Penalty_Charging>  (5) 
0

>  <r_epik_Ionization_Penalty_Neutral>  (5) 
1.608e-07

>  <r_epik_State_Penalty>  (5) 
-0

>  <r_epik_Charging_Adjusted_Penalty>  (5) 
0

>  <i_epik_Tot_Q>  (5) 
0

>  <i_epik_Tot_abs_Q>  (5) 
0

>  <s_epik_Chemistry_Notes>  (5) 
This compound has an ester and may undergo hydrolysis at high or low pH.

>  <s_lp_Force_Field>  (5) 
OPLS3e

>  <r_lp_Energy>  (5) 
131.929

>  <b_lp_Chiralities_Consistent>  (5) 
1

>  <s_lp_Variant>  (5) 
0:0-2

>  <s_i_glide_gridfile>  (5) 
pfpi4k_grid

>  <i_i_glide_lignum>  (5) 
2

>  <i_i_glide_rotatable_bonds>  (5) 
1

>  <r_i_docking_score>  (5) 
-2.89242

>  <r_i_glide_ligand_efficiency>  (5) 
-0.0964141

>  <r_i_glide_ligand_efficiency_sa>  (5) 
-0.299581

>  <r_i_glide_ligand_efficiency_ln>  (5) 
-0.65719

>  <r_i_glide_gscore>  (5) 
-2.89242

>  <r_i_glide_lipo>  (5) 
-0.521148

>  <r_i_glide_hbond>  (5) 
-0.0133204

>  <r_i_glide_metal>  (5) 
-0

>  <r_i_glide_rewards>  (5) 
-0.739333

>  <r_i_glide_evdw>  (5) 
-11.5838

>  <r_i_glide_ecoul>  (5) 
-6.92955

>  <r_i_glide_erotb>  (5) 
0

>  <r_i_glide_esite>  (5) 
0

>  <r_i_glide_emodel>  (5) 
-22.8313

>  <r_i_glide_energy>  (5) 
-18.5133

>  <r_i_glide_einternal>  (5) 
1.41496

>  <r_i_glide_intrahb_reward>  (5) 
-0

>  <i_i_glide_confnum>  (5) 
1

>  <i_i_glide_posenum>  (5) 
2

>  <r_i_glide_eff_state_penalty>  (5) 
0

>  <ligand_id>  (5) 
0

>  <original_smiles>  (5) 
CC1(C)C2CC(=O)C1(C)C1CC3(C)C4(C)C(CC=C21)CC(O)C1C(=O)OCC1C34C

>  <smiles>  (5) 
[H]OC1([H])C([H])([H])C2([H])C([H])([H])C([H])=C3C([H])(C([H])([H])C4(C([H])([H])[H])C2(C([H])([H])[H])C4(C([H])([H])[H])C2([H])C([H])([H])OC(=O)C12[H])C1(C([H])([H])[H])C(=O)C([H])([H])C3([H])C1(C([H])([H])[H])C([H])([H])[H]

$$$$
0:1:2
     RDKit          3D

 66 71  0  0  1  0  0  0  0  0999 V2000
    1.2901   -7.6519    4.3790 C   0  0  0  0  0  0  0  0  0  0  0  0
    2.1839   -8.4761    5.3365 C   0  0  0  0  0  0  0  0  0  0  0  0
    1.2215   -9.5601    5.9255 C   0  0  0  0  0  0  0  0  0  0  0  0
    3.4333   -9.0343    4.6129 C   0  0  2  0  0  0  0  0  0  0  0  0
    4.1508   -9.8143    5.7529 C   0  0  0  0  0  0  0  0  0  0  0  0
    3.8790   -8.8815    6.9302 C   0  0  0  0  0  0  0  0  0  0  0  0
    4.2457   -9.0509    8.0912 O   0  0  0  0  0  0  0  0  0  0  0  0
    3.0576   -7.6962    6.3912 C   0  0  2  0  0  0  0  0  0  0  0  0
    2.2900   -6.9541    7.5003 C   0  0  0  0  0  0  0  0  0  0  0  0
    4.0847   -6.8432    5.5523 C   0  0  2  0  0  0  0  0  0  0  0  0
    3.5609   -5.4116    5.1482 C   0  0  0  0  0  0  0  0  0  0  0  0
    4.3260   -4.4904    4.1249 C   0  0  1  0  0  0  0  0  0  0  0  0
    5.2813   -3.6372    4.9578 C   0  0  0  0  0  0  0  0  0  0  0  0
    4.6230   -4.8593    2.6726 C   0  0  1  0  0  0  0  0  0  0  0  0
    6.1177   -4.6352    2.3397 C   0  0  0  0  0  0  0  0  0  0  0  0
    4.0675   -5.9677    1.7401 C   0  0  2  0  0  0  0  0  0  0  0  0
    4.7092   -7.3812    1.9454 C   0  0  0  0  0  0  0  0  0  0  0  0
    5.1440   -7.5380    3.3864 C   0  0  0  0  0  0  0  0  0  0  0  0
    4.2865   -7.7837    4.3779 C   0  0  0  0  0  0  0  0  0  0  0  0
    4.0650   -5.5259    0.2342 C   0  0  0  0  0  0  0  0  0  0  0  0
    3.6314   -4.0716   -0.1795 C   0  0  1  0  0  0  0  0  0  0  0  0
    2.2277   -3.9608   -0.2139 O   0  0  0  0  0  0  0  0  0  0  0  0
    4.3282   -2.9236    0.6077 C   0  0  1  0  0  0  0  0  0  0  0  0
    4.4731   -1.5235    0.0364 C   0  0  0  0  0  0  0  0  0  0  0  0
    4.4076   -1.2317   -1.1575 O   0  0  0  0  0  0  0  0  0  0  0  0
    4.7422   -0.7003    1.0729 O   0  0  0  0  0  0  0  0  0  0  0  0
    4.6954   -1.3480    2.3508 C   0  0  0  0  0  0  0  0  0  0  0  0
    3.8225   -2.5640    2.0063 C   0  0  2  0  0  0  0  0  0  0  0  0
    3.5726   -3.7609    2.9684 C   0  0  2  0  0  0  0  0  0  0  0  0
    2.0389   -3.9375    3.0271 C   0  0  0  0  0  0  0  0  0  0  0  0
    0.5959   -8.3004    3.8396 H   0  0  0  0  0  0  0  0  0  0  0  0
    1.8617   -7.1451    3.6052 H   0  0  0  0  0  0  0  0  0  0  0  0
    0.6909   -6.9183    4.9213 H   0  0  0  0  0  0  0  0  0  0  0  0
    1.6586  -10.2340    6.6647 H   0  0  0  0  0  0  0  0  0  0  0  0
    0.8308  -10.2043    5.1349 H   0  0  0  0  0  0  0  0  0  0  0  0
    0.3623   -9.0939    6.4113 H   0  0  0  0  0  0  0  0  0  0  0  0
    3.2426   -9.6288    3.7188 H   0  0  0  0  0  0  0  0  0  0  0  0
    3.7240  -10.7994    5.9379 H   0  0  0  0  0  0  0  0  0  0  0  0
    5.2200   -9.9262    5.5805 H   0  0  0  0  0  0  0  0  0  0  0  0
    1.5671   -6.2500    7.0933 H   0  0  0  0  0  0  0  0  0  0  0  0
    2.9664   -6.3982    8.1478 H   0  0  0  0  0  0  0  0  0  0  0  0
    1.7392   -7.6493    8.1339 H   0  0  0  0  0  0  0  0  0  0  0  0
    5.0307   -6.7303    6.0867 H   0  0  0  0  0  0  0  0  0  0  0  0
    2.5315   -5.5130    4.8587 H   0  0  0  0  0  0  0  0  0  0  0  0
    3.4574   -4.8454    6.0734 H   0  0  0  0  0  0  0  0  0  0  0  0
    5.7747   -2.8799    4.3566 H   0  0  0  0  0  0  0  0  0  0  0  0
    6.0492   -4.2597    5.4158 H   0  0  0  0  0  0  0  0  0  0  0  0
    4.7423   -3.1078    5.7431 H   0  0  0  0  0  0  0  0  0  0  0  0
    6.4085   -5.0183    1.3659 H   0  0  0  0  0  0  0  0  0  0  0  0
    6.7762   -5.0904    3.0737 H   0  0  0  0  0  0  0  0  0  0  0  0
    6.3657   -3.5804    2.3576 H   0  0  0  0  0  0  0  0  0  0  0  0
    3.0275   -6.1206    2.0034 H   0  0  0  0  0  0  0  0  0  0  0  0
    4.0082   -8.1738    1.6688 H   0  0  0  0  0  0  0  0  0  0  0  0
    5.5939   -7.5017    1.3196 H   0  0  0  0  0  0  0  0  0  0  0  0
    5.8559   -6.7814    3.6426 H   0  0  0  0  0  0  0  0  0  0  0  0
    5.0603   -5.6880   -0.1853 H   0  0  0  0  0  0  0  0  0  0  0  0
    3.4316   -6.2316   -0.3082 H   0  0  0  0  0  0  0  0  0  0  0  0
    3.9198   -3.9565   -1.2255 H   0  0  0  0  0  0  0  0  0  0  0  0
    1.9216   -4.3795   -1.0041 H   0  0  0  0  0  0  0  0  0  0  0  0
    5.3724   -3.1977    0.6100 H   0  0  0  0  0  0  0  0  0  0  0  0
    5.7065   -1.6028    2.6629 H   0  0  0  0  0  0  0  0  0  0  0  0
    4.2451   -0.7067    3.1089 H   0  0  0  0  0  0  0  0  0  0  0  0
    2.8577   -2.0763    1.8575 H   0  0  0  0  0  0  0  0  0  0  0  0
    1.5193   -3.5511    2.1582 H   0  0  0  0  0  0  0  0  0  0  0  0
    1.6453   -3.4154    3.8965 H   0  0  0  0  0  0  0  0  0  0  0  0
    1.7153   -4.9710    3.0723 H   0  0  0  0  0  0  0  0  0  0  0  0
  1  2  1  0
  1 31  1  0
  1 32  1  0
  1 33  1  0
  2  8  1  0
  2  3  1  0
  2  4  1  0
  3 34  1  0
  3 35  1  0
  3 36  1  0
  4 19  1  0
  4  5  1  0
  4 37  1  6
  5  6  1  0
  5 38  1  0
  5 39  1  0
  6  7  2  0
  6  8  1  0
  8  9  1  1
  8 10  1  0
  9 40  1  0
  9 41  1  0
  9 42  1  0
 10 19  1  0
 10 11  1  0
 10 43  1  1
 11 12  1  0
 11 44  1  0
 11 45  1  0
 12 29  1  0
 12 13  1  1
 12 14  1  0
 13 46  1  0
 13 47  1  0
 13 48  1  0
 14 29  1  0
 14 15  1  6
 14 16  1  0
 15 49  1  0
 15 50  1  0
 15 51  1  0
 16 17  1  0
 16 20  1  0
 16 52  1  1
 17 18  1  0
 17 53  1  0
 17 54  1  0
 18 19  2  3
 18 55  1  0
 20 21  1  0
 20 56  1  0
 20 57  1  0
 21 22  1  0
 21 23  1  0
 21 58  1  6
 22 59  1  0
 23 28  1  0
 23 24  1  0
 23 60  1  1
 24 25  2  0
 24 26  1  0
 26 27  1  0
 27 28  1  0
 27 61  1  0
 27 62  1  0
 28 29  1  0
 28 63  1  6
 29 30  1  1
 30 64  1  0
 30 65  1  0
 30 66  1  0
M  END
>  <i_m_ct_stereo_status>  (6) 
1

>  <s_m_source_file>  (6) 
/var/tmp/pbs.5076255.sched01/tmpnv36izql/0kitkh5ys.sdf

>  <i_m_source_file_index>  (6) 
2

>  <i_lp_mmshare_version>  (6) 
48012

>  <i_f3d_flags>  (6) 
0

>  <s_epik_input>  (6) 
Tz1DMVtDSDJdW0NAQEhdKEMyKFtDSDNdKVtDSDNdKVxDKFtDQEBIXTNbQ0BdMTJbQ0gzXSk9W0NIXVxbQ0gyXVtDQEhdNFtDQF01KFtDSDNdKVtDQEBdKFtDSDJdMykoW0NIM10pW0NAQF01KFtDSDNdKVtDQEBIXTZbQ0BASF0oW0NAQEhdKFtDSDJdNClbT0hdKUMoPU8pT1tDSDJdNg==

>  <s_epik_cmdline>  (6) 
J2VwaWtfcHl0aG9uJywgJy1waHQnLCAnMi4wJywgJy1waCcsICc3LjAnLCAnLXRuJywgJzgnLCAnLW1hJywgJzIwMCcsICctaW1hZScsICc8aW5maWxlLm1hZT4nLCAnLW9tYWUnLCAnPG91dGZpbGUubWFlPic=

>  <r_lp_tautomer_probability>  (6) 
1

>  <r_epik_Ionization_Penalty>  (6) 
1.608e-07

>  <r_epik_Ionization_Penalty_Charging>  (6) 
0

>  <r_epik_Ionization_Penalty_Neutral>  (6) 
1.608e-07

>  <r_epik_State_Penalty>  (6) 
-0

>  <r_epik_Charging_Adjusted_Penalty>  (6) 
0

>  <i_epik_Tot_Q>  (6) 
0

>  <i_epik_Tot_abs_Q>  (6) 
0

>  <s_epik_Chemistry_Notes>  (6) 
This compound has an ester and may undergo hydrolysis at high or low pH.

>  <s_lp_Force_Field>  (6) 
OPLS3e

>  <r_lp_Energy>  (6) 
131.929

>  <b_lp_Chiralities_Consistent>  (6) 
1

>  <s_lp_Variant>  (6) 
0:0-2

>  <s_i_glide_gridfile>  (6) 
pfpi4k_grid

>  <i_i_glide_lignum>  (6) 
2

>  <i_i_glide_rotatable_bonds>  (6) 
1

>  <r_i_docking_score>  (6) 
-2.07804

>  <r_i_glide_ligand_efficiency>  (6) 
-0.069268

>  <r_i_glide_ligand_efficiency_sa>  (6) 
-0.215232

>  <r_i_glide_ligand_efficiency_ln>  (6) 
-0.472153

>  <r_i_glide_gscore>  (6) 
-2.07804

>  <r_i_glide_lipo>  (6) 
-0.203946

>  <r_i_glide_hbond>  (6) 
0

>  <r_i_glide_metal>  (6) 
-0

>  <r_i_glide_rewards>  (6) 
-0.596171

>  <r_i_glide_evdw>  (6) 
-20.8935

>  <r_i_glide_ecoul>  (6) 
-1.37138

>  <r_i_glide_erotb>  (6) 
0

>  <r_i_glide_esite>  (6) 
-0.0275394

>  <r_i_glide_emodel>  (6) 
-25.8202

>  <r_i_glide_energy>  (6) 
-22.2649

>  <r_i_glide_einternal>  (6) 
0.545281

>  <r_i_glide_intrahb_reward>  (6) 
-0

>  <i_i_glide_confnum>  (6) 
1

>  <i_i_glide_posenum>  (6) 
9

>  <r_i_glide_eff_state_penalty>  (6) 
0

>  <ligand_id>  (6) 
0

>  <original_smiles>  (6) 
CC1(C)C2CC(=O)C1(C)C1CC3(C)C4(C)C(CC=C21)CC(O)C1C(=O)OCC1C34C

>  <smiles>  (6) 
[H]OC1([H])C([H])([H])C2([H])C([H])([H])C([H])=C3C([H])(C([H])([H])C4(C([H])([H])[H])C2(C([H])([H])[H])C4(C([H])([H])[H])C2([H])C([H])([H])OC(=O)C12[H])C1(C([H])([H])[H])C(=O)C([H])([H])C3([H])C1(C([H])([H])[H])C([H])([H])[H]

$$$$
1:0:0
     RDKit          3D

 75 82  0  0  1  0  0  0  0  0999 V2000
    5.4951  -12.0127    3.1697 C   0  0  0  0  0  0  0  0  0  0  0  0
    4.9464  -10.8017    2.4890 N   0  0  2  0  0  0  0  0  0  0  0  0
    5.9624   -9.8533    1.9655 C   0  0  0  0  0  0  0  0  0  0  0  0
    6.9037   -9.2288    3.0117 C   0  0  0  0  0  0  0  0  0  0  0  0
    6.6458   -9.3188    4.5237 C   0  0  0  0  0  0  0  0  0  0  0  0
    7.7630   -9.5070    5.3750 C   0  0  0  0  0  0  0  0  0  0  0  0
    7.6142   -9.8422    6.7221 C   0  0  0  0  0  0  0  0  0  0  0  0
    6.3218  -10.0183    7.2324 C   0  0  0  0  0  0  0  0  0  0  0  0
    5.1964   -9.7808    6.4315 C   0  0  0  0  0  0  0  0  0  0  0  0
    5.3131   -9.3716    5.0656 C   0  0  0  0  0  0  0  0  0  0  0  0
    4.0222   -8.9867    4.2096 C   0  0  1  0  0  0  0  0  0  0  0  0
    4.2620   -7.5840    3.5136 C   0  0  0  0  0  0  0  0  0  0  0  0
    3.4621   -7.1667    2.2409 C   0  0  0  0  0  0  0  0  0  0  0  0
    3.9192   -5.8835    1.6516 N   0  0  0  0  0  0  0  0  0  0  0  0
    5.1685   -6.0415    0.8500 C   0  0  0  0  0  0  0  0  0  0  0  0
    5.6907   -4.7010    0.3469 C   0  0  0  0  0  0  0  0  0  0  0  0
    4.6135   -3.9859   -0.4779 C   0  0  0  0  0  0  0  0  0  0  0  0
    3.3139   -3.8463    0.3266 C   0  0  0  0  0  0  0  0  0  0  0  0
    2.8518   -5.2186    0.8559 C   0  0  0  0  0  0  0  0  0  0  0  0
    3.7521  -10.1458    3.1308 C   0  0  2  0  0  0  0  0  0  0  0  0
    2.6363  -11.1371    3.4977 C   0  0  0  0  0  0  0  0  0  0  0  0
    1.3030  -10.3967    3.5880 C   0  0  0  0  0  0  0  0  0  0  0  0
    0.2150  -10.5477    2.7258 C   0  0  0  0  0  0  0  0  0  0  0  0
   -0.6869   -9.4643    2.4951 C   0  0  0  0  0  0  0  0  0  0  0  0
   -0.4350   -8.1849    3.0415 C   0  0  0  0  0  0  0  0  0  0  0  0
   -1.2067   -7.1252    2.6692 O   0  0  0  0  0  0  0  0  0  0  0  0
    0.6618   -7.9958    3.9145 C   0  0  0  0  0  0  0  0  0  0  0  0
    1.4308   -9.1439    4.2105 C   0  0  0  0  0  0  0  0  0  0  0  0
    2.6450   -8.7634    5.0482 C   0  0  2  0  0  0  0  0  0  0  0  0
    2.0824   -7.3420    5.3128 C   0  0  1  0  0  0  0  0  0  0  0  0
    2.8297   -6.6747    6.3950 C   0  0  0  0  0  0  0  0  0  0  0  0
    3.2238   -7.6770    7.1680 C   0  0  0  0  0  0  0  0  0  0  0  0
    2.7908   -9.0513    6.6010 C   0  0  1  0  0  0  0  0  0  0  0  0
    1.5934   -9.4167    7.2783 O   0  0  0  0  0  0  0  0  0  0  0  0
    3.8255  -10.0995    6.9515 C   0  0  1  0  0  0  0  0  0  0  0  0
    3.4663  -11.3984    6.5576 O   0  0  0  0  0  0  0  0  0  0  0  0
    1.1466   -6.8072    4.4138 O   0  0  0  0  0  0  0  0  0  0  0  0
    5.7843  -11.8468    4.2032 H   0  0  0  0  0  0  0  0  0  0  0  0
    6.3573  -12.3776    2.6383 H   0  0  0  0  0  0  0  0  0  0  0  0
    4.7603  -12.8052    3.1520 H   0  0  0  0  0  0  0  0  0  0  0  0
    6.5773  -10.3783    1.2631 H   0  0  0  0  0  0  0  0  0  0  0  0
    5.4935   -9.0796    1.3888 H   0  0  0  0  0  0  0  0  0  0  0  0
    7.8480   -9.7556    2.8811 H   0  0  0  0  0  0  0  0  0  0  0  0
    7.1859   -8.2100    2.7222 H   0  0  0  0  0  0  0  0  0  0  0  0
    8.7661   -9.4544    4.9577 H   0  0  0  0  0  0  0  0  0  0  0  0
    8.4780  -10.0287    7.3502 H   0  0  0  0  0  0  0  0  0  0  0  0
    6.1862  -10.3597    8.2566 H   0  0  0  0  0  0  0  0  0  0  0  0
    4.2565   -6.7649    4.2362 H   0  0  0  0  0  0  0  0  0  0  0  0
    5.2814   -7.5481    3.2259 H   0  0  0  0  0  0  0  0  0  0  0  0
    3.4758   -7.8936    1.4304 H   0  0  0  0  0  0  0  0  0  0  0  0
    2.4202   -7.0874    2.4851 H   0  0  0  0  0  0  0  0  0  0  0  0
    5.9900   -6.4946    1.4115 H   0  0  0  0  0  0  0  0  0  0  0  0
    4.9632   -6.7053    0.0114 H   0  0  0  0  0  0  0  0  0  0  0  0
    5.9956   -4.0883    1.1982 H   0  0  0  0  0  0  0  0  0  0  0  0
    6.5836   -4.8765   -0.2550 H   0  0  0  0  0  0  0  0  0  0  0  0
    4.9753   -3.0065   -0.7774 H   0  0  0  0  0  0  0  0  0  0  0  0
    4.4232   -4.5550   -1.3915 H   0  0  0  0  0  0  0  0  0  0  0  0
    3.4666   -3.1692    1.1702 H   0  0  0  0  0  0  0  0  0  0  0  0
    2.5302   -3.4045   -0.2955 H   0  0  0  0  0  0  0  0  0  0  0  0
    2.5840   -5.8603    0.0184 H   0  0  0  0  0  0  0  0  0  0  0  0
    1.9469   -5.0752    1.4517 H   0  0  0  0  0  0  0  0  0  0  0  0
    3.3099   -9.7048    2.2549 H   0  0  0  0  0  0  0  0  0  0  0  0
    2.5364  -11.8900    2.7210 H   0  0  0  0  0  0  0  0  0  0  0  0
    2.8250  -11.6920    4.3925 H   0  0  0  0  0  0  0  0  0  0  0  0
    0.1171  -11.4554    2.1322 H   0  0  0  0  0  0  0  0  0  0  0  0
   -1.4882   -9.6155    1.8069 H   0  0  0  0  0  0  0  0  0  0  0  0
   -1.9436   -7.4422    2.1615 H   0  0  0  0  0  0  0  0  0  0  0  0
    1.2312   -7.4588    6.0100 H   0  0  0  0  0  0  0  0  0  0  0  0
    3.0270   -5.6136    6.4707 H   0  0  0  0  0  0  0  0  0  0  0  0
    3.8577   -7.5620    8.0312 H   0  0  0  0  0  0  0  0  0  0  0  0
    1.4802  -10.3607    7.2776 H   0  0  0  0  0  0  0  0  0  0  0  0
    3.9116  -10.0838    8.0353 H   0  0  0  0  0  0  0  0  0  0  0  0
    2.7428  -11.7617    7.0777 H   0  0  0  0  0  0  0  0  0  0  0  0
    4.1064   -5.2611    2.4207 H   0  0  0  0  0  0  0  0  0  0  0  0
    4.5910  -11.2268    1.6350 H   0  0  0  0  0  0  0  0  0  0  0  0
  1  2  1  0
  1 38  1  0
  1 39  1  0
  1 40  1  0
  2 20  1  0
  2  3  1  0
  2 75  1  6
  3  4  1  0
  3 41  1  0
  3 42  1  0
  4  5  1  0
  4 43  1  0
  4 44  1  0
  5 10  2  0
  5  6  1  0
  6  7  2  0
  6 45  1  0
  7  8  1  0
  7 46  1  0
  8  9  2  0
  8 47  1  0
  9 35  1  0
  9 10  1  0
 10 11  1  0
 11 29  1  0
 11 12  1  6
 11 20  1  0
 12 13  1  0
 12 48  1  0
 12 49  1  0
 13 14  1  0
 13 50  1  0
 13 51  1  0
 14 19  1  0
 14 15  1  0
 14 74  1  0
 15 16  1  0
 15 52  1  0
 15 53  1  0
 16 17  1  0
 16 54  1  0
 16 55  1  0
 17 18  1  0
 17 56  1  0
 17 57  1  0
 18 19  1  0
 18 58  1  0
 18 59  1  0
 19 60  1  0
 19 61  1  0
 20 21  1  0
 20 62  1  6
 21 22  1  0
 21 63  1  0
 21 64  1  0
 22 28  2  0
 22 23  1  0
 23 24  2  0
 23 65  1  0
 24 25  1  0
 24 66  1  0
 25 26  1  0
 25 27  2  0
 26 67  1  0
 27 37  1  0
 27 28  1  0
 29 28  1  6
 29 33  1  0
 29 30  1  0
 30 31  1  0
 30 37  1  0
 30 68  1  1
 31 32  2  0
 31 69  1  0
 32 33  1  0
 32 70  1  0
 33 34  1  1
 33 35  1  0
 34 71  1  0
 35 36  1  0
 35 72  1  1
 36 73  1  0
M  CHG  2   2   1  14   1
M  END
>  <i_m_ct_stereo_status>  (7) 
1

>  <s_m_source_file>  (7) 
/var/tmp/pbs.5076255.sched01/tmpnv36izql/0kitkh5ys.sdf

>  <i_m_source_file_index>  (7) 
3

>  <i_lp_mmshare_version>  (7) 
48012

>  <i_f3d_flags>  (7) 
0

>  <s_epik_input>  (7) 
W0NIMl0xW0NIMl1OKFtDSDNdKVtDQEhdMltDSDJdYyhbY0hdW2NIXWMzW09IXSljNGMzT1tDQEBIXTVbQ0hdPVtDSF1bQ0BdNihbT0hdKVtDQEBIXShbT0hdKWM3W2NIXVtjSF1bY0hdYzFjN1tDQEBdMihbQ0BdNDU2KVtDSDJdW0NIMl1OOFtDSDJdW0NIMl1bQ0gyXVtDSDJdW0NIMl04

>  <s_epik_cmdline>  (7) 
J2VwaWtfcHl0aG9uJywgJy1waHQnLCAnMi4wJywgJy1waCcsICc3LjAnLCAnLXRuJywgJzgnLCAnLW1hJywgJzIwMCcsICctaW1hZScsICc8aW5maWxlLm1hZT4nLCAnLW9tYWUnLCAnPG91dGZpbGUubWFlPic=

>  <r_lp_tautomer_probability>  (7) 
1

>  <r_epik_Ionization_Penalty>  (7) 
0.202633

>  <r_epik_Ionization_Penalty_Charging>  (7) 
0.178969

>  <r_epik_Ionization_Penalty_Neutral>  (7) 
0.0236637

>  <r_epik_State_Penalty>  (7) 
0.177942

>  <r_epik_Charging_Adjusted_Penalty>  (7) 
0.356911

>  <i_epik_Tot_Q>  (7) 
2

>  <i_epik_Tot_abs_Q>  (7) 
2

>  <s_lp_Force_Field>  (7) 
OPLS3e

>  <r_lp_Energy>  (7) 
169.898

>  <b_lp_Chiralities_Consistent>  (7) 
1

>  <s_lp_Variant>  (7) 
1:0-1

>  <s_i_glide_gridfile>  (7) 
pfpi4k_grid

>  <i_i_glide_lignum>  (7) 
3

>  <i_i_glide_rotatable_bonds>  (7) 
6

>  <r_i_docking_score>  (7) 
-3.98433

>  <r_i_glide_ligand_efficiency>  (7) 
-0.107685

>  <r_i_glide_ligand_efficiency_sa>  (7) 
-0.358829

>  <r_i_glide_ligand_efficiency_ln>  (7) 
-0.864107

>  <r_i_glide_gscore>  (7) 
-3.98433

>  <r_i_glide_lipo>  (7) 
-0.593202

>  <r_i_glide_hbond>  (7) 
-0.2

>  <r_i_glide_metal>  (7) 
-0

>  <r_i_glide_rewards>  (7) 
0

>  <r_i_glide_evdw>  (7) 
-22.0566

>  <r_i_glide_ecoul>  (7) 
-14.9019

>  <r_i_glide_erotb>  (7) 
0.242642

>  <r_i_glide_esite>  (7) 
-0.0956608

>  <r_i_glide_emodel>  (7) 
-47.9906

>  <r_i_glide_energy>  (7) 
-36.9584

>  <r_i_glide_einternal>  (7) 
1.76944

>  <r_i_glide_intrahb_reward>  (7) 
-0

>  <i_i_glide_confnum>  (7) 
2

>  <i_i_glide_posenum>  (7) 
40

>  <r_i_glide_eff_state_penalty>  (7) 
0

>  <ligand_id>  (7) 
1

>  <original_smiles>  (7) 
CN1CCc2cccc3c2C2(CCN4CCCCC4)C1Cc1ccc(O)c4c1C21C(C=CC1(O)C3O)O4

>  <smiles>  (7) 
[H]Oc1c([H])c([H])c2c3c1OC1([H])C([H])=C([H])C4(O[H])C([H])(O[H])c5c([H])c([H])c([H])c6c5C(C([H])([H])C([H])([H])[N+]5([H])C([H])([H])C([H])([H])C([H])([H])C([H])([H])C5([H])[H])(C314)C([H])(C2([H])[H])[N+]([H])(C([H])([H])[H])C([H])([H])C6([H])[H]

$$$$
1:0:1
     RDKit          3D

 75 82  0  0  1  0  0  0  0  0999 V2000
    5.5376  -11.8658    3.1573 C   0  0  0  0  0  0  0  0  0  0  0  0
    4.9559  -10.6707    2.4882 N   0  0  2  0  0  0  0  0  0  0  0  0
    5.9411   -9.6919    1.9699 C   0  0  0  0  0  0  0  0  0  0  0  0
    6.8754   -9.0343    3.0052 C   0  0  0  0  0  0  0  0  0  0  0  0
    6.6051   -9.1435    4.5144 C   0  0  0  0  0  0  0  0  0  0  0  0
    7.7254   -9.3054    5.3688 C   0  0  0  0  0  0  0  0  0  0  0  0
    7.5825   -9.6486    6.7132 C   0  0  0  0  0  0  0  0  0  0  0  0
    6.2983   -9.8703    7.2151 C   0  0  0  0  0  0  0  0  0  0  0  0
    5.1583   -9.6721    6.4145 C   0  0  0  0  0  0  0  0  0  0  0  0
    5.2702   -9.2317    5.0554 C   0  0  0  0  0  0  0  0  0  0  0  0
    3.9723   -8.8813    4.1951 C   0  0  1  0  0  0  0  0  0  0  0  0
    4.1987   -7.4733    3.4869 C   0  0  0  0  0  0  0  0  0  0  0  0
    3.3497   -7.0754    2.2436 C   0  0  0  0  0  0  0  0  0  0  0  0
    3.7128   -5.7395    1.7186 N   0  0  0  0  0  0  0  0  0  0  0  0
    3.3909   -5.6121    0.2732 C   0  0  0  0  0  0  0  0  0  0  0  0
    3.8823   -4.2715   -0.2894 C   0  0  0  0  0  0  0  0  0  0  0  0
    3.3024   -3.0964    0.5101 C   0  0  0  0  0  0  0  0  0  0  0  0
    3.6000   -3.2662    2.0078 C   0  0  0  0  0  0  0  0  0  0  0  0
    3.1119   -4.6317    2.5118 C   0  0  0  0  0  0  0  0  0  0  0  0
    3.7473  -10.0512    3.1247 C   0  0  2  0  0  0  0  0  0  0  0  0
    2.6456  -11.0832    3.4862 C   0  0  0  0  0  0  0  0  0  0  0  0
    1.3100  -10.3680    3.5765 C   0  0  0  0  0  0  0  0  0  0  0  0
    0.2130  -10.5514    2.7154 C   0  0  0  0  0  0  0  0  0  0  0  0
   -0.7096   -9.5050    2.4933 C   0  0  0  0  0  0  0  0  0  0  0  0
   -0.4998   -8.2225    3.0398 C   0  0  0  0  0  0  0  0  0  0  0  0
   -1.3093   -7.1882    2.6849 O   0  0  0  0  0  0  0  0  0  0  0  0
    0.5834   -8.0103    3.9139 C   0  0  0  0  0  0  0  0  0  0  0  0
    1.3945   -9.1277    4.2202 C   0  0  0  0  0  0  0  0  0  0  0  0
    2.5962   -8.7044    5.0550 C   0  0  2  0  0  0  0  0  0  0  0  0
    1.9783   -7.3069    5.3245 C   0  0  1  0  0  0  0  0  0  0  0  0
    2.7256   -6.6182    6.3955 C   0  0  0  0  0  0  0  0  0  0  0  0
    3.1440   -7.6171    7.1746 C   0  0  0  0  0  0  0  0  0  0  0  0
    2.7519   -9.0069    6.6065 C   0  0  1  0  0  0  0  0  0  0  0  0
    1.5604   -9.4424    7.2717 O   0  0  0  0  0  0  0  0  0  0  0  0
    3.8006  -10.0284    6.9428 C   0  0  1  0  0  0  0  0  0  0  0  0
    3.4322  -11.3365    6.5704 O   0  0  0  0  0  0  0  0  0  0  0  0
    1.0392   -6.8071    4.4050 O   0  0  0  0  0  0  0  0  0  0  0  0
    5.8229  -11.6918    4.1927 H   0  0  0  0  0  0  0  0  0  0  0  0
    6.4209  -12.2051    2.6131 H   0  0  0  0  0  0  0  0  0  0  0  0
    4.8200  -12.6854    3.1334 H   0  0  0  0  0  0  0  0  0  0  0  0
    6.5775  -10.2019    1.2446 H   0  0  0  0  0  0  0  0  0  0  0  0
    5.4478   -8.9214    1.3820 H   0  0  0  0  0  0  0  0  0  0  0  0
    7.8367   -9.5335    2.8804 H   0  0  0  0  0  0  0  0  0  0  0  0
    7.1192   -8.0065    2.7290 H   0  0  0  0  0  0  0  0  0  0  0  0
    8.7231   -9.2171    4.9571 H   0  0  0  0  0  0  0  0  0  0  0  0
    8.4521   -9.8066    7.3364 H   0  0  0  0  0  0  0  0  0  0  0  0
    6.1817  -10.2107    8.2337 H   0  0  0  0  0  0  0  0  0  0  0  0
    4.1792   -6.6916    4.2395 H   0  0  0  0  0  0  0  0  0  0  0  0
    5.1970   -7.3589    3.1214 H   0  0  0  0  0  0  0  0  0  0  0  0
    3.4940   -7.7889    1.4373 H   0  0  0  0  0  0  0  0  0  0  0  0
    2.2866   -7.0757    2.4194 H   0  0  0  0  0  0  0  0  0  0  0  0
    3.8526   -6.4181   -0.3007 H   0  0  0  0  0  0  0  0  0  0  0  0
    2.3118   -5.7030    0.1373 H   0  0  0  0  0  0  0  0  0  0  0  0
    4.9726   -4.2441   -0.2649 H   0  0  0  0  0  0  0  0  0  0  0  0
    3.5967   -4.1909   -1.3403 H   0  0  0  0  0  0  0  0  0  0  0  0
    3.7168   -2.1566    0.1469 H   0  0  0  0  0  0  0  0  0  0  0  0
    2.2244   -3.0416    0.3519 H   0  0  0  0  0  0  0  0  0  0  0  0
    4.6721   -3.1692    2.1881 H   0  0  0  0  0  0  0  0  0  0  0  0
    3.1176   -2.4692    2.5785 H   0  0  0  0  0  0  0  0  0  0  0  0
    2.0242   -4.6803    2.4386 H   0  0  0  0  0  0  0  0  0  0  0  0
    3.3553   -4.7258    3.5705 H   0  0  0  0  0  0  0  0  0  0  0  0
    3.2828   -9.6216    2.2443 H   0  0  0  0  0  0  0  0  0  0  0  0
    2.5697  -11.8351    2.7042 H   0  0  0  0  0  0  0  0  0  0  0  0
    2.8535  -11.6400    4.3807 H   0  0  0  0  0  0  0  0  0  0  0  0
    0.1459  -11.4616    2.1340 H   0  0  0  0  0  0  0  0  0  0  0  0
   -1.5188   -9.6761    1.8049 H   0  0  0  0  0  0  0  0  0  0  0  0
   -2.0414   -7.4941    2.1715 H   0  0  0  0  0  0  0  0  0  0  0  0
    1.1302   -7.4512    6.0194 H   0  0  0  0  0  0  0  0  0  0  0  0
    2.8833   -5.5527    6.4790 H   0  0  0  0  0  0  0  0  0  0  0  0
    3.7691   -7.4910    8.0461 H   0  0  0  0  0  0  0  0  0  0  0  0
    1.5085  -10.3947    7.2651 H   0  0  0  0  0  0  0  0  0  0  0  0
    3.8951  -10.0218    8.0317 H   0  0  0  0  0  0  0  0  0  0  0  0
    2.7522  -11.6921    7.1489 H   0  0  0  0  0  0  0  0  0  0  0  0
    4.7163   -5.6504    1.7924 H   0  0  0  0  0  0  0  0  0  0  0  0
    4.5927  -11.0973    1.6278 H   0  0  0  0  0  0  0  0  0  0  0  0
  1  2  1  0
  1 38  1  0
  1 39  1  0
  1 40  1  0
  2 20  1  0
  2  3  1  0
  2 75  1  6
  3  4  1  0
  3 41  1  0
  3 42  1  0
  4  5  1  0
  4 43  1  0
  4 44  1  0
  5 10  2  0
  5  6  1  0
  6  7  2  0
  6 45  1  0
  7  8  1  0
  7 46  1  0
  8  9  2  0
  8 47  1  0
  9 35  1  0
  9 10  1  0
 10 11  1  0
 11 29  1  0
 11 12  1  6
 11 20  1  0
 12 13  1  0
 12 48  1  0
 12 49  1  0
 13 14  1  0
 13 50  1  0
 13 51  1  0
 14 19  1  0
 14 15  1  0
 14 74  1  0
 15 16  1  0
 15 52  1  0
 15 53  1  0
 16 17  1  0
 16 54  1  0
 16 55  1  0
 17 18  1  0
 17 56  1  0
 17 57  1  0
 18 19  1  0
 18 58  1  0
 18 59  1  0
 19 60  1  0
 19 61  1  0
 20 21  1  0
 20 62  1  6
 21 22  1  0
 21 63  1  0
 21 64  1  0
 22 28  2  0
 22 23  1  0
 23 24  2  0
 23 65  1  0
 24 25  1  0
 24 66  1  0
 25 26  1  0
 25 27  2  0
 26 67  1  0
 27 37  1  0
 27 28  1  0
 29 28  1  6
 29 33  1  0
 29 30  1  0
 30 31  1  0
 30 37  1  0
 30 68  1  1
 31 32  2  0
 31 69  1  0
 32 33  1  0
 32 70  1  0
 33 34  1  1
 33 35  1  0
 34 71  1  0
 35 36  1  0
 35 72  1  1
 36 73  1  0
M  CHG  2   2   1  14   1
M  END
>  <i_m_ct_stereo_status>  (8) 
1

>  <s_m_source_file>  (8) 
/var/tmp/pbs.5076255.sched01/tmpnv36izql/0kitkh5ys.sdf

>  <i_m_source_file_index>  (8) 
3

>  <i_lp_mmshare_version>  (8) 
48012

>  <i_f3d_flags>  (8) 
0

>  <s_epik_input>  (8) 
W0NIMl0xW0NIMl1OKFtDSDNdKVtDQEhdMltDSDJdYyhbY0hdW2NIXWMzW09IXSljNGMzT1tDQEBIXTVbQ0hdPVtDSF1bQ0BdNihbT0hdKVtDQEBIXShbT0hdKWM3W2NIXVtjSF1bY0hdYzFjN1tDQEBdMihbQ0BdNDU2KVtDSDJdW0NIMl1OOFtDSDJdW0NIMl1bQ0gyXVtDSDJdW0NIMl04

>  <s_epik_cmdline>  (8) 
J2VwaWtfcHl0aG9uJywgJy1waHQnLCAnMi4wJywgJy1waCcsICc3LjAnLCAnLXRuJywgJzgnLCAnLW1hJywgJzIwMCcsICctaW1hZScsICc8aW5maWxlLm1hZT4nLCAnLW9tYWUnLCAnPG91dGZpbGUubWFlPic=

>  <r_lp_tautomer_probability>  (8) 
1

>  <r_epik_Ionization_Penalty>  (8) 
0.202633

>  <r_epik_Ionization_Penalty_Charging>  (8) 
0.178969

>  <r_epik_Ionization_Penalty_Neutral>  (8) 
0.0236637

>  <r_epik_State_Penalty>  (8) 
0.177942

>  <r_epik_Charging_Adjusted_Penalty>  (8) 
0.356911

>  <i_epik_Tot_Q>  (8) 
2

>  <i_epik_Tot_abs_Q>  (8) 
2

>  <s_lp_Force_Field>  (8) 
OPLS3e

>  <r_lp_Energy>  (8) 
169.898

>  <b_lp_Chiralities_Consistent>  (8) 
1

>  <s_lp_Variant>  (8) 
1:0-1

>  <s_i_glide_gridfile>  (8) 
pfpi4k_grid

>  <i_i_glide_lignum>  (8) 
3

>  <i_i_glide_rotatable_bonds>  (8) 
6

>  <r_i_docking_score>  (8) 
-3.78681

>  <r_i_glide_ligand_efficiency>  (8) 
-0.102346

>  <r_i_glide_ligand_efficiency_sa>  (8) 
-0.34104

>  <r_i_glide_ligand_efficiency_ln>  (8) 
-0.82127

>  <r_i_glide_gscore>  (8) 
-3.78681

>  <r_i_glide_lipo>  (8) 
-0.379347

>  <r_i_glide_hbond>  (8) 
-0.2

>  <r_i_glide_metal>  (8) 
-0

>  <r_i_glide_rewards>  (8) 
0

>  <r_i_glide_evdw>  (8) 
-21.5021

>  <r_i_glide_ecoul>  (8) 
-15.2518

>  <r_i_glide_erotb>  (8) 
0.242642

>  <r_i_glide_esite>  (8) 
-0.0872237

>  <r_i_glide_emodel>  (8) 
-47.7037

>  <r_i_glide_energy>  (8) 
-36.7539

>  <r_i_glide_einternal>  (8) 
1.02015

>  <r_i_glide_intrahb_reward>  (8) 
-0

>  <i_i_glide_confnum>  (8) 
2

>  <i_i_glide_posenum>  (8) 
30

>  <r_i_glide_eff_state_penalty>  (8) 
0

>  <ligand_id>  (8) 
1

>  <original_smiles>  (8) 
CN1CCc2cccc3c2C2(CCN4CCCCC4)C1Cc1ccc(O)c4c1C21C(C=CC1(O)C3O)O4

>  <smiles>  (8) 
[H]Oc1c([H])c([H])c2c3c1OC1([H])C([H])=C([H])C4(O[H])C([H])(O[H])c5c([H])c([H])c([H])c6c5C(C([H])([H])C([H])([H])[N+]5([H])C([H])([H])C([H])([H])C([H])([H])C([H])([H])C5([H])[H])(C314)C([H])(C2([H])[H])[N+]([H])(C([H])([H])[H])C([H])([H])C6([H])[H]

$$$$
1:0:2
     RDKit          3D

 75 82  0  0  1  0  0  0  0  0999 V2000
    5.6323  -11.5817    2.8552 C   0  0  0  0  0  0  0  0  0  0  0  0
    4.9386  -10.4178    2.2237 N   0  0  2  0  0  0  0  0  0  0  0  0
    5.8404   -9.4123    1.6045 C   0  0  0  0  0  0  0  0  0  0  0  0
    6.7010   -8.6179    2.6155 C   0  0  0  0  0  0  0  0  0  0  0  0
    6.5707   -8.8031    4.1400 C   0  0  0  0  0  0  0  0  0  0  0  0
    7.7541   -8.8718    4.9277 C   0  0  0  0  0  0  0  0  0  0  0  0
    7.7034   -9.2166    6.2856 C   0  0  0  0  0  0  0  0  0  0  0  0
    6.4734   -9.5343    6.8599 C   0  0  0  0  0  0  0  0  0  0  0  0
    5.2708   -9.4203    6.1213 C   0  0  0  0  0  0  0  0  0  0  0  0
    5.2909   -8.9711    4.7668 C   0  0  0  0  0  0  0  0  0  0  0  0
    3.9298   -8.6989    3.9882 C   0  0  1  0  0  0  0  0  0  0  0  0
    3.9532   -7.3119    3.2301 C   0  0  0  0  0  0  0  0  0  0  0  0
    4.7043   -6.1213    3.8916 C   0  0  0  0  0  0  0  0  0  0  0  0
    4.6464   -4.8853    3.0691 N   0  0  0  0  0  0  0  0  0  0  0  0
    4.7490   -3.6479    3.8935 C   0  0  0  0  0  0  0  0  0  0  0  0
    4.5925   -2.3794    3.0380 C   0  0  0  0  0  0  0  0  0  0  0  0
    5.5918   -2.3755    1.8752 C   0  0  0  0  0  0  0  0  0  0  0  0
    5.4994   -3.6694    1.0613 C   0  0  0  0  0  0  0  0  0  0  0  0
    5.6440   -4.8956    1.9695 C   0  0  0  0  0  0  0  0  0  0  0  0
    3.7133   -9.8571    2.9005 C   0  0  2  0  0  0  0  0  0  0  0  0
    2.7192  -10.9798    3.3060 C   0  0  0  0  0  0  0  0  0  0  0  0
    1.3421  -10.3747    3.4698 C   0  0  0  0  0  0  0  0  0  0  0  0
    0.2267  -10.6519    2.6674 C   0  0  0  0  0  0  0  0  0  0  0  0
   -0.7771   -9.6637    2.4764 C   0  0  0  0  0  0  0  0  0  0  0  0
   -0.6204   -8.3652    3.0019 C   0  0  0  0  0  0  0  0  0  0  0  0
   -1.5459   -7.4066    2.7349 O   0  0  0  0  0  0  0  0  0  0  0  0
    0.5089   -8.0668    3.7863 C   0  0  0  0  0  0  0  0  0  0  0  0
    1.3859   -9.1206    4.0937 C   0  0  0  0  0  0  0  0  0  0  0  0
    2.5839   -8.6262    4.9004 C   0  0  2  0  0  0  0  0  0  0  0  0
    1.8602   -7.2858    5.2027 C   0  0  1  0  0  0  0  0  0  0  0  0
    2.4989   -6.5715    6.3224 C   0  0  0  0  0  0  0  0  0  0  0  0
    3.0955   -7.5420    7.0233 C   0  0  0  0  0  0  0  0  0  0  0  0
    2.8108   -8.9458    6.4350 C   0  0  1  0  0  0  0  0  0  0  0  0
    1.6704   -9.4608    7.1357 O   0  0  0  0  0  0  0  0  0  0  0  0
    3.9684   -9.8812    6.7167 C   0  0  1  0  0  0  0  0  0  0  0  0
    3.6807  -11.2197    6.3711 O   0  0  0  0  0  0  0  0  0  0  0  0
    0.8882   -6.8395    4.2835 O   0  0  0  0  0  0  0  0  0  0  0  0
    5.9668  -11.3919    3.8736 H   0  0  0  0  0  0  0  0  0  0  0  0
    6.4968  -11.8502    2.2515 H   0  0  0  0  0  0  0  0  0  0  0  0
    4.9728  -12.4469    2.8492 H   0  0  0  0  0  0  0  0  0  0  0  0
    6.5059   -9.9189    0.9101 H   0  0  0  0  0  0  0  0  0  0  0  0
    5.2893   -8.7562    0.9307 H   0  0  0  0  0  0  0  0  0  0  0  0
    7.6928   -9.0325    2.4396 H   0  0  0  0  0  0  0  0  0  0  0  0
    6.8029   -7.5736    2.3216 H   0  0  0  0  0  0  0  0  0  0  0  0
    8.7165   -8.7018    4.4601 H   0  0  0  0  0  0  0  0  0  0  0  0
    8.6203   -9.3019    6.8629 H   0  0  0  0  0  0  0  0  0  0  0  0
    6.4302   -9.8737    7.8889 H   0  0  0  0  0  0  0  0  0  0  0  0
    4.4256   -7.4086    2.2699 H   0  0  0  0  0  0  0  0  0  0  0  0
    2.9338   -7.0609    2.9266 H   0  0  0  0  0  0  0  0  0  0  0  0
    4.2690   -5.8703    4.8579 H   0  0  0  0  0  0  0  0  0  0  0  0
    5.7358   -6.3820    4.1305 H   0  0  0  0  0  0  0  0  0  0  0  0
    3.9830   -3.6242    4.6727 H   0  0  0  0  0  0  0  0  0  0  0  0
    5.7128   -3.6395    4.4010 H   0  0  0  0  0  0  0  0  0  0  0  0
    3.5760   -2.3239    2.6478 H   0  0  0  0  0  0  0  0  0  0  0  0
    4.7318   -1.4943    3.6642 H   0  0  0  0  0  0  0  0  0  0  0  0
    5.4323   -1.5113    1.2378 H   0  0  0  0  0  0  0  0  0  0  0  0
    6.5971   -2.2797    2.2790 H   0  0  0  0  0  0  0  0  0  0  0  0
    4.5401   -3.7102    0.5407 H   0  0  0  0  0  0  0  0  0  0  0  0
    6.2802   -3.6997    0.2920 H   0  0  0  0  0  0  0  0  0  0  0  0
    6.6459   -4.9209    2.4002 H   0  0  0  0  0  0  0  0  0  0  0  0
    5.5482   -5.7787    1.3352 H   0  0  0  0  0  0  0  0  0  0  0  0
    3.2063   -9.3677    2.0648 H   0  0  0  0  0  0  0  0  0  0  0  0
    2.6679  -11.7376    2.5219 H   0  0  0  0  0  0  0  0  0  0  0  0
    3.0299  -11.5268    4.1797 H   0  0  0  0  0  0  0  0  0  0  0  0
    0.1973  -11.5617    2.0918 H   0  0  0  0  0  0  0  0  0  0  0  0
   -1.6175   -9.9034    1.8542 H   0  0  0  0  0  0  0  0  0  0  0  0
   -2.2600   -7.7722    2.2369 H   0  0  0  0  0  0  0  0  0  0  0  0
    1.0289   -7.5403    5.8799 H   0  0  0  0  0  0  0  0  0  0  0  0
    2.5709   -5.5102    6.4320 H   0  0  0  0  0  0  0  0  0  0  0  0
    3.8008   -7.3538    7.8176 H   0  0  0  0  0  0  0  0  0  0  0  0
    1.6695  -10.4038    7.1372 H   0  0  0  0  0  0  0  0  0  0  0  0
    4.1129   -9.8459    7.7951 H   0  0  0  0  0  0  0  0  0  0  0  0
    2.9811  -11.5785    6.9124 H   0  0  0  0  0  0  0  0  0  0  0  0
    3.7305   -4.8488    2.6490 H   0  0  0  0  0  0  0  0  0  0  0  0
    4.5550  -10.9105    1.4089 H   0  0  0  0  0  0  0  0  0  0  0  0
  1  2  1  0
  1 38  1  0
  1 39  1  0
  1 40  1  0
  2 20  1  0
  2  3  1  0
  2 75  1  6
  3  4  1  0
  3 41  1  0
  3 42  1  0
  4  5  1  0
  4 43  1  0
  4 44  1  0
  5 10  2  0
  5  6  1  0
  6  7  2  0
  6 45  1  0
  7  8  1  0
  7 46  1  0
  8  9  2  0
  8 47  1  0
  9 35  1  0
  9 10  1  0
 10 11  1  0
 11 29  1  0
 11 12  1  6
 11 20  1  0
 12 13  1  0
 12 48  1  0
 12 49  1  0
 13 14  1  0
 13 50  1  0
 13 51  1  0
 14 19  1  0
 14 15  1  0
 14 74  1  0
 15 16  1  0
 15 52  1  0
 15 53  1  0
 16 17  1  0
 16 54  1  0
 16 55  1  0
 17 18  1  0
 17 56  1  0
 17 57  1  0
 18 19  1  0
 18 58  1  0
 18 59  1  0
 19 60  1  0
 19 61  1  0
 20 21  1  0
 20 62  1  6
 21 22  1  0
 21 63  1  0
 21 64  1  0
 22 28  2  0
 22 23  1  0
 23 24  2  0
 23 65  1  0
 24 25  1  0
 24 66  1  0
 25 26  1  0
 25 27  2  0
 26 67  1  0
 27 37  1  0
 27 28  1  0
 29 28  1  6
 29 33  1  0
 29 30  1  0
 30 31  1  0
 30 37  1  0
 30 68  1  1
 31 32  2  0
 31 69  1  0
 32 33  1  0
 32 70  1  0
 33 34  1  1
 33 35  1  0
 34 71  1  0
 35 36  1  0
 35 72  1  1
 36 73  1  0
M  CHG  2   2   1  14   1
M  END
>  <i_m_ct_stereo_status>  (9) 
1

>  <s_m_source_file>  (9) 
/var/tmp/pbs.5076255.sched01/tmpnv36izql/0kitkh5ys.sdf

>  <i_m_source_file_index>  (9) 
3

>  <i_lp_mmshare_version>  (9) 
48012

>  <i_f3d_flags>  (9) 
0

>  <s_epik_input>  (9) 
W0NIMl0xW0NIMl1OKFtDSDNdKVtDQEhdMltDSDJdYyhbY0hdW2NIXWMzW09IXSljNGMzT1tDQEBIXTVbQ0hdPVtDSF1bQ0BdNihbT0hdKVtDQEBIXShbT0hdKWM3W2NIXVtjSF1bY0hdYzFjN1tDQEBdMihbQ0BdNDU2KVtDSDJdW0NIMl1OOFtDSDJdW0NIMl1bQ0gyXVtDSDJdW0NIMl04

>  <s_epik_cmdline>  (9) 
J2VwaWtfcHl0aG9uJywgJy1waHQnLCAnMi4wJywgJy1waCcsICc3LjAnLCAnLXRuJywgJzgnLCAnLW1hJywgJzIwMCcsICctaW1hZScsICc8aW5maWxlLm1hZT4nLCAnLW9tYWUnLCAnPG91dGZpbGUubWFlPic=

>  <r_lp_tautomer_probability>  (9) 
1

>  <r_epik_Ionization_Penalty>  (9) 
0.202633

>  <r_epik_Ionization_Penalty_Charging>  (9) 
0.178969

>  <r_epik_Ionization_Penalty_Neutral>  (9) 
0.0236637

>  <r_epik_State_Penalty>  (9) 
0.177942

>  <r_epik_Charging_Adjusted_Penalty>  (9) 
0.356911

>  <i_epik_Tot_Q>  (9) 
2

>  <i_epik_Tot_abs_Q>  (9) 
2

>  <s_lp_Force_Field>  (9) 
OPLS3e

>  <r_lp_Energy>  (9) 
169.898

>  <b_lp_Chiralities_Consistent>  (9) 
1

>  <s_lp_Variant>  (9) 
1:0-1

>  <s_i_glide_gridfile>  (9) 
pfpi4k_grid

>  <i_i_glide_lignum>  (9) 
3

>  <i_i_glide_rotatable_bonds>  (9) 
6

>  <r_i_docking_score>  (9) 
-3.49803

>  <r_i_glide_ligand_efficiency>  (9) 
-0.0945413

>  <r_i_glide_ligand_efficiency_sa>  (9) 
-0.315033

>  <r_i_glide_ligand_efficiency_ln>  (9) 
-0.75864

>  <r_i_glide_gscore>  (9) 
-3.49803

>  <r_i_glide_lipo>  (9) 
-0.594107

>  <r_i_glide_hbond>  (9) 
-0.2

>  <r_i_glide_metal>  (9) 
-0

>  <r_i_glide_rewards>  (9) 
0

>  <r_i_glide_evdw>  (9) 
-21.9916

>  <r_i_glide_ecoul>  (9) 
-11.7238

>  <r_i_glide_erotb>  (9) 
0.242642

>  <r_i_glide_esite>  (9) 
-0.0884127

>  <r_i_glide_emodel>  (9) 
-43.0305

>  <r_i_glide_energy>  (9) 
-33.7154

>  <r_i_glide_einternal>  (9) 
0.620529

>  <r_i_glide_intrahb_reward>  (9) 
-0

>  <i_i_glide_confnum>  (9) 
2

>  <i_i_glide_posenum>  (9) 
8

>  <r_i_glide_eff_state_penalty>  (9) 
0

>  <ligand_id>  (9) 
1

>  <original_smiles>  (9) 
CN1CCc2cccc3c2C2(CCN4CCCCC4)C1Cc1ccc(O)c4c1C21C(C=CC1(O)C3O)O4

>  <smiles>  (9) 
[H]Oc1c([H])c([H])c2c3c1OC1([H])C([H])=C([H])C4(O[H])C([H])(O[H])c5c([H])c([H])c([H])c6c5C(C([H])([H])C([H])([H])[N+]5([H])C([H])([H])C([H])([H])C([H])([H])C([H])([H])C5([H])[H])(C314)C([H])(C2([H])[H])[N+]([H])(C([H])([H])[H])C([H])([H])C6([H])[H]

$$$$
1:1:0
     RDKit          3D

 74 81  0  0  1  0  0  0  0  0999 V2000
    2.1220   -7.4489    6.5831 C   0  0  0  0  0  0  0  0  0  0  0  0
    2.7898   -6.3598    5.8715 N   0  0  0  0  0  0  0  0  0  0  0  0
    1.9135   -5.2988    5.3890 C   0  0  0  0  0  0  0  0  0  0  0  0
    0.8951   -5.6792    4.2985 C   0  0  0  0  0  0  0  0  0  0  0  0
    0.9457   -7.0400    3.5969 C   0  0  0  0  0  0  0  0  0  0  0  0
   -0.2788   -7.7071    3.3303 C   0  0  0  0  0  0  0  0  0  0  0  0
   -0.3289   -9.0550    2.9448 C   0  0  0  0  0  0  0  0  0  0  0  0
    0.8694   -9.7769    2.8809 C   0  0  0  0  0  0  0  0  0  0  0  0
    2.1146   -9.1501    3.0975 C   0  0  0  0  0  0  0  0  0  0  0  0
    2.1999   -7.7421    3.3811 C   0  0  0  0  0  0  0  0  0  0  0  0
    3.6180   -7.0070    3.4577 C   0  0  1  0  0  0  0  0  0  0  0  0
    3.5615   -5.6785    2.5958 C   0  0  0  0  0  0  0  0  0  0  0  0
    4.6010   -4.5397    2.8163 C   0  0  0  0  0  0  0  0  0  0  0  0
    4.4527   -3.4303    1.8465 N   0  0  0  0  0  0  0  0  0  0  0  0
    3.3418   -2.5106    2.2331 C   0  0  0  0  0  0  0  0  0  0  0  0
    3.1243   -1.4165    1.1951 C   0  0  0  0  0  0  0  0  0  0  0  0
    4.4172   -0.6264    0.9550 C   0  0  0  0  0  0  0  0  0  0  0  0
    5.5691   -1.5713    0.5829 C   0  0  0  0  0  0  0  0  0  0  0  0
    5.7305   -2.6792    1.6310 C   0  0  0  0  0  0  0  0  0  0  0  0
    3.9189   -6.6693    4.9786 C   0  0  2  0  0  0  0  0  0  0  0  0
    4.9413   -7.5949    5.6770 C   0  0  0  0  0  0  0  0  0  0  0  0
    6.2961   -7.4918    5.0078 C   0  0  0  0  0  0  0  0  0  0  0  0
    7.4857   -6.9636    5.5477 C   0  0  0  0  0  0  0  0  0  0  0  0
    8.4553   -6.3686    4.6982 C   0  0  0  0  0  0  0  0  0  0  0  0
    8.2081   -6.2321    3.3095 C   0  0  0  0  0  0  0  0  0  0  0  0
    9.0318   -5.4677    2.5351 O   0  0  0  0  0  0  0  0  0  0  0  0
    7.0685   -6.8165    2.7211 C   0  0  0  0  0  0  0  0  0  0  0  0
    6.1825   -7.4727    3.6080 C   0  0  0  0  0  0  0  0  0  0  0  0
    4.8907   -7.8443    2.8817 C   0  0  2  0  0  0  0  0  0  0  0  0
    5.4978   -7.4717    1.5033 C   0  0  1  0  0  0  0  0  0  0  0  0
    4.6151   -7.9466    0.4281 C   0  0  0  0  0  0  0  0  0  0  0  0
    4.0800   -9.0560    0.9234 C   0  0  0  0  0  0  0  0  0  0  0  0
    4.5019   -9.3045    2.3874 C   0  0  1  0  0  0  0  0  0  0  0  0
    5.5802  -10.2373    2.3655 O   0  0  0  0  0  0  0  0  0  0  0  0
    3.3796   -9.9434    3.1396 C   0  0  1  0  0  0  0  0  0  0  0  0
    3.7096  -10.3466    4.4478 O   0  0  0  0  0  0  0  0  0  0  0  0
    6.5993   -6.6000    1.4492 O   0  0  0  0  0  0  0  0  0  0  0  0
    1.3555   -7.0554    7.2532 H   0  0  0  0  0  0  0  0  0  0  0  0
    2.8325   -7.9831    7.2135 H   0  0  0  0  0  0  0  0  0  0  0  0
    1.6484   -8.1765    5.9261 H   0  0  0  0  0  0  0  0  0  0  0  0
    1.3524   -4.9032    6.2387 H   0  0  0  0  0  0  0  0  0  0  0  0
    2.5129   -4.4513    5.0603 H   0  0  0  0  0  0  0  0  0  0  0  0
   -0.0722   -5.6818    4.8092 H   0  0  0  0  0  0  0  0  0  0  0  0
    0.7603   -4.8714    3.5715 H   0  0  0  0  0  0  0  0  0  0  0  0
   -1.2074   -7.1879    3.4951 H   0  0  0  0  0  0  0  0  0  0  0  0
   -1.2732   -9.5516    2.7978 H   0  0  0  0  0  0  0  0  0  0  0  0
    0.8356  -10.8300    2.6672 H   0  0  0  0  0  0  0  0  0  0  0  0
    3.4698   -5.9206    1.5397 H   0  0  0  0  0  0  0  0  0  0  0  0
    2.6342   -5.1923    2.7793 H   0  0  0  0  0  0  0  0  0  0  0  0
    4.5727   -4.1222    3.8223 H   0  0  0  0  0  0  0  0  0  0  0  0
    5.6032   -4.8862    2.7195 H   0  0  0  0  0  0  0  0  0  0  0  0
    2.4033   -3.0447    2.3611 H   0  0  0  0  0  0  0  0  0  0  0  0
    3.5907   -2.0658    3.2018 H   0  0  0  0  0  0  0  0  0  0  0  0
    2.7743   -1.8651    0.2642 H   0  0  0  0  0  0  0  0  0  0  0  0
    2.3269   -0.7554    1.5381 H   0  0  0  0  0  0  0  0  0  0  0  0
    4.2581    0.1108    0.1673 H   0  0  0  0  0  0  0  0  0  0  0  0
    4.6766   -0.0729    1.8606 H   0  0  0  0  0  0  0  0  0  0  0  0
    5.3811   -2.0195   -0.3928 H   0  0  0  0  0  0  0  0  0  0  0  0
    6.4993   -1.0100    0.4914 H   0  0  0  0  0  0  0  0  0  0  0  0
    6.0428   -2.2466    2.5839 H   0  0  0  0  0  0  0  0  0  0  0  0
    6.5304   -3.3533    1.3192 H   0  0  0  0  0  0  0  0  0  0  0  0
    4.4527   -5.7297    5.0024 H   0  0  0  0  0  0  0  0  0  0  0  0
    5.0906   -7.2676    6.7090 H   0  0  0  0  0  0  0  0  0  0  0  0
    4.6238   -8.6244    5.7518 H   0  0  0  0  0  0  0  0  0  0  0  0
    7.6001   -6.9057    6.6132 H   0  0  0  0  0  0  0  0  0  0  0  0
    9.3189   -5.9067    5.1372 H   0  0  0  0  0  0  0  0  0  0  0  0
    9.6231   -4.9338    3.0454 H   0  0  0  0  0  0  0  0  0  0  0  0
    6.2234   -8.2595    1.2365 H   0  0  0  0  0  0  0  0  0  0  0  0
    4.5152   -7.5089   -0.5596 H   0  0  0  0  0  0  0  0  0  0  0  0
    3.3918   -9.7083    0.4006 H   0  0  0  0  0  0  0  0  0  0  0  0
    5.2564  -11.0359    1.9796 H   0  0  0  0  0  0  0  0  0  0  0  0
    3.1559  -10.8760    2.6175 H   0  0  0  0  0  0  0  0  0  0  0  0
    3.0396  -10.9322    4.7505 H   0  0  0  0  0  0  0  0  0  0  0  0
    4.2261   -3.8318    0.9425 H   0  0  0  0  0  0  0  0  0  0  0  0
  1  2  1  0
  1 38  1  0
  1 39  1  0
  1 40  1  0
  2 20  1  0
  2  3  1  0
  3  4  1  0
  3 41  1  0
  3 42  1  0
  4  5  1  0
  4 43  1  0
  4 44  1  0
  5 10  2  0
  5  6  1  0
  6  7  2  0
  6 45  1  0
  7  8  1  0
  7 46  1  0
  8  9  2  0
  8 47  1  0
  9 35  1  0
  9 10  1  0
 10 11  1  0
 11 29  1  0
 11 12  1  6
 11 20  1  0
 12 13  1  0
 12 48  1  0
 12 49  1  0
 13 14  1  0
 13 50  1  0
 13 51  1  0
 14 19  1  0
 14 15  1  0
 14 74  1  0
 15 16  1  0
 15 52  1  0
 15 53  1  0
 16 17  1  0
 16 54  1  0
 16 55  1  0
 17 18  1  0
 17 56  1  0
 17 57  1  0
 18 19  1  0
 18 58  1  0
 18 59  1  0
 19 60  1  0
 19 61  1  0
 20 21  1  0
 20 62  1  6
 21 22  1  0
 21 63  1  0
 21 64  1  0
 22 28  2  0
 22 23  1  0
 23 24  2  0
 23 65  1  0
 24 25  1  0
 24 66  1  0
 25 26  1  0
 25 27  2  0
 26 67  1  0
 27 37  1  0
 27 28  1  0
 29 28  1  1
 29 33  1  0
 29 30  1  0
 30 31  1  0
 30 37  1  0
 30 68  1  6
 31 32  2  0
 31 69  1  0
 32 33  1  0
 32 70  1  0
 33 34  1  6
 33 35  1  0
 34 71  1  0
 35 36  1  0
 35 72  1  6
 36 73  1  0
M  CHG  1  14   1
M  END
>  <i_m_ct_stereo_status>  (10) 
1

>  <s_m_source_file>  (10) 
/var/tmp/pbs.5076255.sched01/tmpnv36izql/0kitkh5ys.sdf

>  <i_m_source_file_index>  (10) 
4

>  <i_lp_mmshare_version>  (10) 
48012

>  <i_f3d_flags>  (10) 
0

>  <s_epik_input>  (10) 
W0NIMl0xW0NIMl1OKFtDSDNdKVtDQEhdMltDSDJdYyhbY0hdW2NIXWMzW09IXSljNGMzT1tDQEBIXTVbQ0hdPVtDSF1bQ0BdNihbT0hdKVtDQEBIXShbT0hdKWM3W2NIXVtjSF1bY0hdYzFjN1tDQEBdMihbQ0BdNDU2KVtDSDJdW0NIMl1OOFtDSDJdW0NIMl1bQ0gyXVtDSDJdW0NIMl04

>  <s_epik_cmdline>  (10) 
J2VwaWtfcHl0aG9uJywgJy1waHQnLCAnMi4wJywgJy1waCcsICc3LjAnLCAnLXRuJywgJzgnLCAnLW1hJywgJzIwMCcsICctaW1hZScsICc8aW5maWxlLm1hZT4nLCAnLW9tYWUnLCAnPG91dGZpbGUubWFlPic=

>  <r_lp_tautomer_probability>  (10) 
1

>  <r_epik_Ionization_Penalty>  (10) 
0.81899

>  <r_epik_Ionization_Penalty_Charging>  (10) 
0.00172719

>  <r_epik_Ionization_Penalty_Neutral>  (10) 
0.817263

>  <r_epik_State_Penalty>  (10) 
0.8578

>  <r_epik_Charging_Adjusted_Penalty>  (10) 
0.859527

>  <i_epik_Tot_Q>  (10) 
1

>  <i_epik_Tot_abs_Q>  (10) 
1

>  <s_lp_Force_Field>  (10) 
OPLS3e

>  <r_lp_Energy>  (10) 
156.135

>  <b_lp_Chiralities_Consistent>  (10) 
1

>  <s_lp_Variant>  (10) 
1:0-2

>  <s_i_glide_gridfile>  (10) 
pfpi4k_grid

>  <i_i_glide_lignum>  (10) 
4

>  <i_i_glide_rotatable_bonds>  (10) 
6

>  <r_i_docking_score>  (10) 
-2.86325

>  <r_i_glide_ligand_efficiency>  (10) 
-0.0773851

>  <r_i_glide_ligand_efficiency_sa>  (10) 
-0.257864

>  <r_i_glide_ligand_efficiency_ln>  (10) 
-0.620971

>  <r_i_glide_gscore>  (10) 
-2.86325

>  <r_i_glide_lipo>  (10) 
-0.477235

>  <r_i_glide_hbond>  (10) 
0

>  <r_i_glide_metal>  (10) 
-0

>  <r_i_glide_rewards>  (10) 
0

>  <r_i_glide_evdw>  (10) 
-26.2676

>  <r_i_glide_ecoul>  (10) 
-8.77445

>  <r_i_glide_erotb>  (10) 
0.243537

>  <r_i_glide_esite>  (10) 
0

>  <r_i_glide_emodel>  (10) 
-39.8375

>  <r_i_glide_energy>  (10) 
-35.0421

>  <r_i_glide_einternal>  (10) 
1.87414

>  <r_i_glide_intrahb_reward>  (10) 
-0

>  <i_i_glide_confnum>  (10) 
3

>  <i_i_glide_posenum>  (10) 
14

>  <r_i_glide_eff_state_penalty>  (10) 
0

>  <ligand_id>  (10) 
1

>  <original_smiles>  (10) 
CN1CCc2cccc3c2C2(CCN4CCCCC4)C1Cc1ccc(O)c4c1C21C(C=CC1(O)C3O)O4

>  <smiles>  (10) 
[H]Oc1c([H])c([H])c2c3c1OC1([H])C([H])=C([H])C4(O[H])C([H])(O[H])c5c([H])c([H])c([H])c6c5C(C([H])([H])C([H])([H])[N+]5([H])C([H])([H])C([H])([H])C([H])([H])C([H])([H])C5([H])[H])(C([H])(N(C([H])([H])[H])C([H])([H])C6([H])[H])C2([H])[H])C314

$$$$
1:1:1
     RDKit          3D

 74 81  0  0  1  0  0  0  0  0999 V2000
    2.3377   -7.6994    6.7086 C   0  0  0  0  0  0  0  0  0  0  0  0
    2.9595   -6.5742    6.0160 N   0  0  0  0  0  0  0  0  0  0  0  0
    2.0586   -5.5050    5.6110 C   0  0  0  0  0  0  0  0  0  0  0  0
    1.0028   -5.8576    4.5331 C   0  0  0  0  0  0  0  0  0  0  0  0
    1.0527   -7.1950    3.7807 C   0  0  0  0  0  0  0  0  0  0  0  0
   -0.1811   -7.8624    3.5321 C   0  0  0  0  0  0  0  0  0  0  0  0
   -0.2234   -9.1905    3.1033 C   0  0  0  0  0  0  0  0  0  0  0  0
    0.9727   -9.8941    2.9583 C   0  0  0  0  0  0  0  0  0  0  0  0
    2.2184   -9.2523    3.1627 C   0  0  0  0  0  0  0  0  0  0  0  0
    2.2931   -7.8651    3.4969 C   0  0  0  0  0  0  0  0  0  0  0  0
    3.7057   -7.1128    3.5547 C   0  0  1  0  0  0  0  0  0  0  0  0
    3.5848   -5.7457    2.7558 C   0  0  0  0  0  0  0  0  0  0  0  0
    4.6591   -4.6186    2.9209 C   0  0  0  0  0  0  0  0  0  0  0  0
    4.3867   -3.4179    2.1004 N   0  0  0  0  0  0  0  0  0  0  0  0
    5.1611   -2.2565    2.6042 C   0  0  0  0  0  0  0  0  0  0  0  0
    4.7803   -0.9713    1.8602 C   0  0  0  0  0  0  0  0  0  0  0  0
    4.9717   -1.1385    0.3451 C   0  0  0  0  0  0  0  0  0  0  0  0
    4.2241   -2.3823   -0.1609 C   0  0  0  0  0  0  0  0  0  0  0  0
    4.6277   -3.6309    0.6436 C   0  0  0  0  0  0  0  0  0  0  0  0
    4.0595   -6.8398    5.0811 C   0  0  2  0  0  0  0  0  0  0  0  0
    5.1347   -7.7781    5.6969 C   0  0  0  0  0  0  0  0  0  0  0  0
    6.4525   -7.6142    4.9652 C   0  0  0  0  0  0  0  0  0  0  0  0
    7.6530   -7.0986    5.4926 C   0  0  0  0  0  0  0  0  0  0  0  0
    8.5746   -6.4507    4.6270 C   0  0  0  0  0  0  0  0  0  0  0  0
    8.2864   -6.2728    3.2548 C   0  0  0  0  0  0  0  0  0  0  0  0
    9.0746   -5.4612    2.4858 O   0  0  0  0  0  0  0  0  0  0  0  0
    7.1362   -6.8428    2.6944 C   0  0  0  0  0  0  0  0  0  0  0  0
    6.2835   -7.5424    3.5755 C   0  0  0  0  0  0  0  0  0  0  0  0
    4.9689   -7.8992    2.8874 C   0  0  2  0  0  0  0  0  0  0  0  0
    5.5137   -7.4717    1.5033 C   0  0  1  0  0  0  0  0  0  0  0  0
    4.6230   -7.9304    0.4398 C   0  0  0  0  0  0  0  0  0  0  0  0
    4.1061   -9.0560    0.9203 C   0  0  0  0  0  0  0  0  0  0  0  0
    4.5950   -9.3441    2.3617 C   0  0  1  0  0  0  0  0  0  0  0  0
    5.6789  -10.2676    2.2620 O   0  0  0  0  0  0  0  0  0  0  0  0
    3.4916  -10.0398    3.1291 C   0  0  1  0  0  0  0  0  0  0  0  0
    3.8819  -10.4812    4.4025 O   0  0  0  0  0  0  0  0  0  0  0  0
    6.6372   -6.6281    1.4319 O   0  0  0  0  0  0  0  0  0  0  0  0
    1.5939   -7.3398    7.4231 H   0  0  0  0  0  0  0  0  0  0  0  0
    3.0791   -8.2494    7.2878 H   0  0  0  0  0  0  0  0  0  0  0  0
    1.8457   -8.4065    6.0378 H   0  0  0  0  0  0  0  0  0  0  0  0
    1.5247   -5.1526    6.4906 H   0  0  0  0  0  0  0  0  0  0  0  0
    2.6392   -4.6345    5.2974 H   0  0  0  0  0  0  0  0  0  0  0  0
    0.0636   -5.8929    5.0801 H   0  0  0  0  0  0  0  0  0  0  0  0
    0.8353   -5.0232    3.8482 H   0  0  0  0  0  0  0  0  0  0  0  0
   -1.1092   -7.3584    3.7587 H   0  0  0  0  0  0  0  0  0  0  0  0
   -1.1735   -9.6991    2.9778 H   0  0  0  0  0  0  0  0  0  0  0  0
    0.9481  -10.9500    2.7092 H   0  0  0  0  0  0  0  0  0  0  0  0
    3.4037   -5.9819    1.7147 H   0  0  0  0  0  0  0  0  0  0  0  0
    2.7118   -5.2024    3.0277 H   0  0  0  0  0  0  0  0  0  0  0  0
    4.7645   -4.3249    3.9704 H   0  0  0  0  0  0  0  0  0  0  0  0
    5.6605   -4.8985    2.6297 H   0  0  0  0  0  0  0  0  0  0  0  0
    4.9957   -2.1079    3.6751 H   0  0  0  0  0  0  0  0  0  0  0  0
    6.2257   -2.4538    2.4769 H   0  0  0  0  0  0  0  0  0  0  0  0
    3.7409   -0.7237    2.0831 H   0  0  0  0  0  0  0  0  0  0  0  0
    5.3872   -0.1398    2.2324 H   0  0  0  0  0  0  0  0  0  0  0  0
    4.6170   -0.2519   -0.1731 H   0  0  0  0  0  0  0  0  0  0  0  0
    6.0340   -1.2378    0.1223 H   0  0  0  0  0  0  0  0  0  0  0  0
    3.1452   -2.2280   -0.0731 H   0  0  0  0  0  0  0  0  0  0  0  0
    4.4237   -2.5423   -1.2253 H   0  0  0  0  0  0  0  0  0  0  0  0
    5.6809   -3.8492    0.4605 H   0  0  0  0  0  0  0  0  0  0  0  0
    4.0706   -4.4805    0.2453 H   0  0  0  0  0  0  0  0  0  0  0  0
    4.5856   -5.8914    5.1232 H   0  0  0  0  0  0  0  0  0  0  0  0
    5.3030   -7.4776    6.7229 H   0  0  0  0  0  0  0  0  0  0  0  0
    4.8204   -8.8110    5.7394 H   0  0  0  0  0  0  0  0  0  0  0  0
    7.8124   -7.0830    6.5692 H   0  0  0  0  0  0  0  0  0  0  0  0
    9.4562   -5.9996    5.0574 H   0  0  0  0  0  0  0  0  0  0  0  0
    9.6559   -4.9261    3.0002 H   0  0  0  0  0  0  0  0  0  0  0  0
    6.2361   -8.2471    1.1967 H   0  0  0  0  0  0  0  0  0  0  0  0
    4.4737   -7.4563   -0.5126 H   0  0  0  0  0  0  0  0  0  0  0  0
    3.4062   -9.6896    0.3979 H   0  0  0  0  0  0  0  0  0  0  0  0
    5.3334  -11.0618    1.8697 H   0  0  0  0  0  0  0  0  0  0  0  0
    3.2670  -10.9500    2.5747 H   0  0  0  0  0  0  0  0  0  0  0  0
    3.2159  -11.0731    4.7130 H   0  0  0  0  0  0  0  0  0  0  0  0
    3.4134   -3.1927    2.2203 H   0  0  0  0  0  0  0  0  0  0  0  0
  1  2  1  0
  1 38  1  0
  1 39  1  0
  1 40  1  0
  2 20  1  0
  2  3  1  0
  3  4  1  0
  3 41  1  0
  3 42  1  0
  4  5  1  0
  4 43  1  0
  4 44  1  0
  5 10  2  0
  5  6  1  0
  6  7  2  0
  6 45  1  0
  7  8  1  0
  7 46  1  0
  8  9  2  0
  8 47  1  0
  9 35  1  0
  9 10  1  0
 10 11  1  0
 11 29  1  0
 11 12  1  6
 11 20  1  0
 12 13  1  0
 12 48  1  0
 12 49  1  0
 13 14  1  0
 13 50  1  0
 13 51  1  0
 14 19  1  0
 14 15  1  0
 14 74  1  0
 15 16  1  0
 15 52  1  0
 15 53  1  0
 16 17  1  0
 16 54  1  0
 16 55  1  0
 17 18  1  0
 17 56  1  0
 17 57  1  0
 18 19  1  0
 18 58  1  0
 18 59  1  0
 19 60  1  0
 19 61  1  0
 20 21  1  0
 20 62  1  6
 21 22  1  0
 21 63  1  0
 21 64  1  0
 22 28  2  0
 22 23  1  0
 23 24  2  0
 23 65  1  0
 24 25  1  0
 24 66  1  0
 25 26  1  0
 25 27  2  0
 26 67  1  0
 27 37  1  0
 27 28  1  0
 29 28  1  1
 29 33  1  0
 29 30  1  0
 30 31  1  0
 30 37  1  0
 30 68  1  6
 31 32  2  0
 31 69  1  0
 32 33  1  0
 32 70  1  0
 33 34  1  6
 33 35  1  0
 34 71  1  0
 35 36  1  0
 35 72  1  6
 36 73  1  0
M  CHG  1  14   1
M  END
>  <i_m_ct_stereo_status>  (11) 
1

>  <s_m_source_file>  (11) 
/var/tmp/pbs.5076255.sched01/tmpnv36izql/0kitkh5ys.sdf

>  <i_m_source_file_index>  (11) 
4

>  <i_lp_mmshare_version>  (11) 
48012

>  <i_f3d_flags>  (11) 
0

>  <s_epik_input>  (11) 
W0NIMl0xW0NIMl1OKFtDSDNdKVtDQEhdMltDSDJdYyhbY0hdW2NIXWMzW09IXSljNGMzT1tDQEBIXTVbQ0hdPVtDSF1bQ0BdNihbT0hdKVtDQEBIXShbT0hdKWM3W2NIXVtjSF1bY0hdYzFjN1tDQEBdMihbQ0BdNDU2KVtDSDJdW0NIMl1OOFtDSDJdW0NIMl1bQ0gyXVtDSDJdW0NIMl04

>  <s_epik_cmdline>  (11) 
J2VwaWtfcHl0aG9uJywgJy1waHQnLCAnMi4wJywgJy1waCcsICc3LjAnLCAnLXRuJywgJzgnLCAnLW1hJywgJzIwMCcsICctaW1hZScsICc8aW5maWxlLm1hZT4nLCAnLW9tYWUnLCAnPG91dGZpbGUubWFlPic=

>  <r_lp_tautomer_probability>  (11) 
1

>  <r_epik_Ionization_Penalty>  (11) 
0.81899

>  <r_epik_Ionization_Penalty_Charging>  (11) 
0.00172719

>  <r_epik_Ionization_Penalty_Neutral>  (11) 
0.817263

>  <r_epik_State_Penalty>  (11) 
0.8578

>  <r_epik_Charging_Adjusted_Penalty>  (11) 
0.859527

>  <i_epik_Tot_Q>  (11) 
1

>  <i_epik_Tot_abs_Q>  (11) 
1

>  <s_lp_Force_Field>  (11) 
OPLS3e

>  <r_lp_Energy>  (11) 
156.135

>  <b_lp_Chiralities_Consistent>  (11) 
1

>  <s_lp_Variant>  (11) 
1:0-2

>  <s_i_glide_gridfile>  (11) 
pfpi4k_grid

>  <i_i_glide_lignum>  (11) 
4

>  <i_i_glide_rotatable_bonds>  (11) 
6

>  <r_i_docking_score>  (11) 
-2.84963

>  <r_i_glide_ligand_efficiency>  (11) 
-0.0770171

>  <r_i_glide_ligand_efficiency_sa>  (11) 
-0.256638

>  <r_i_glide_ligand_efficiency_ln>  (11) 
-0.618019

>  <r_i_glide_gscore>  (11) 
-2.84963

>  <r_i_glide_lipo>  (11) 
-0.489518

>  <r_i_glide_hbond>  (11) 
0

>  <r_i_glide_metal>  (11) 
-0

>  <r_i_glide_rewards>  (11) 
0

>  <r_i_glide_evdw>  (11) 
-25.8777

>  <r_i_glide_ecoul>  (11) 
-8.73179

>  <r_i_glide_erotb>  (11) 
0.243537

>  <r_i_glide_esite>  (11) 
0

>  <r_i_glide_emodel>  (11) 
-39.7815

>  <r_i_glide_energy>  (11) 
-34.6095

>  <r_i_glide_einternal>  (11) 
1.06959

>  <r_i_glide_intrahb_reward>  (11) 
-0

>  <i_i_glide_confnum>  (11) 
4

>  <i_i_glide_posenum>  (11) 
21

>  <r_i_glide_eff_state_penalty>  (11) 
0

>  <ligand_id>  (11) 
1

>  <original_smiles>  (11) 
CN1CCc2cccc3c2C2(CCN4CCCCC4)C1Cc1ccc(O)c4c1C21C(C=CC1(O)C3O)O4

>  <smiles>  (11) 
[H]Oc1c([H])c([H])c2c3c1OC1([H])C([H])=C([H])C4(O[H])C([H])(O[H])c5c([H])c([H])c([H])c6c5C(C([H])([H])C([H])([H])[N+]5([H])C([H])([H])C([H])([H])C([H])([H])C([H])([H])C5([H])[H])(C([H])(N(C([H])([H])[H])C([H])([H])C6([H])[H])C2([H])[H])C314

$$$$
1:1:2
     RDKit          3D

 74 81  0  0  1  0  0  0  0  0999 V2000
    2.5191   -5.4814    6.5879 C   0  0  0  0  0  0  0  0  0  0  0  0
    3.1048   -4.9670    5.3510 N   0  0  0  0  0  0  0  0  0  0  0  0
    2.2227   -4.1350    4.5439 C   0  0  0  0  0  0  0  0  0  0  0  0
    0.9812   -4.8212    3.9291 C   0  0  0  0  0  0  0  0  0  0  0  0
    0.8001   -6.3460    3.9891 C   0  0  0  0  0  0  0  0  0  0  0  0
   -0.4869   -6.8631    4.2533 C   0  0  0  0  0  0  0  0  0  0  0  0
   -0.7054   -8.2073    4.5785 C   0  0  0  0  0  0  0  0  0  0  0  0
    0.4058   -9.0453    4.7093 C   0  0  0  0  0  0  0  0  0  0  0  0
    1.7005   -8.5836    4.4186 C   0  0  0  0  0  0  0  0  0  0  0  0
    1.9369   -7.2440    3.9623 C   0  0  0  0  0  0  0  0  0  0  0  0
    3.3821   -6.7878    3.4695 C   0  0  1  0  0  0  0  0  0  0  0  0
    3.2429   -6.0251    2.0853 C   0  0  0  0  0  0  0  0  0  0  0  0
    4.3625   -5.0589    1.6004 C   0  0  0  0  0  0  0  0  0  0  0  0
    4.1943   -4.6563    0.1811 N   0  0  0  0  0  0  0  0  0  0  0  0
    3.1778   -3.5803    0.0384 C   0  0  0  0  0  0  0  0  0  0  0  0
    2.9316   -3.2302   -1.4332 C   0  0  0  0  0  0  0  0  0  0  0  0
    4.2421   -2.8364   -2.1284 C   0  0  0  0  0  0  0  0  0  0  0  0
    5.3060   -3.9260   -1.9431 C   0  0  0  0  0  0  0  0  0  0  0  0
    5.4856   -4.2664   -0.4502 C   0  0  0  0  0  0  0  0  0  0  0  0
    4.0075   -5.8255    4.5738 C   0  0  2  0  0  0  0  0  0  0  0  0
    5.0934   -6.4664    5.4867 C   0  0  0  0  0  0  0  0  0  0  0  0
    6.2764   -6.9090    4.6616 C   0  0  0  0  0  0  0  0  0  0  0  0
    7.5851   -6.3833    4.7070 C   0  0  0  0  0  0  0  0  0  0  0  0
    8.3997   -6.4014    3.5460 C   0  0  0  0  0  0  0  0  0  0  0  0
    7.8838   -6.8459    2.3127 C   0  0  0  0  0  0  0  0  0  0  0  0
    8.6092   -6.6835    1.1763 O   0  0  0  0  0  0  0  0  0  0  0  0
    6.6037   -7.4386    2.2533 C   0  0  0  0  0  0  0  0  0  0  0  0
    5.8807   -7.5148    3.4621 C   0  0  0  0  0  0  0  0  0  0  0  0
    4.4505   -7.9861    3.1954 C   0  0  2  0  0  0  0  0  0  0  0  0
    4.8101   -8.4092    1.7500 C   0  0  1  0  0  0  0  0  0  0  0  0
    3.7062   -9.2038    1.1719 C   0  0  0  0  0  0  0  0  0  0  0  0
    3.1998   -9.8472    2.2225 C   0  0  0  0  0  0  0  0  0  0  0  0
    3.8858   -9.4231    3.5427 C   0  0  1  0  0  0  0  0  0  0  0  0
    4.8852  -10.3831    3.8549 O   0  0  0  0  0  0  0  0  0  0  0  0
    2.8908   -9.4584    4.6703 C   0  0  1  0  0  0  0  0  0  0  0  0
    3.4467   -9.2537    5.9436 O   0  0  0  0  0  0  0  0  0  0  0  0
    5.8754   -7.7479    1.1234 O   0  0  0  0  0  0  0  0  0  0  0  0
    1.9270   -4.7069    7.0818 H   0  0  0  0  0  0  0  0  0  0  0  0
    3.3011   -5.7616    7.2921 H   0  0  0  0  0  0  0  0  0  0  0  0
    1.8746   -6.3488    6.4440 H   0  0  0  0  0  0  0  0  0  0  0  0
    1.8676   -3.3091    5.1577 H   0  0  0  0  0  0  0  0  0  0  0  0
    2.7972   -3.6465    3.7587 H   0  0  0  0  0  0  0  0  0  0  0  0
    0.1422   -4.4335    4.5053 H   0  0  0  0  0  0  0  0  0  0  0  0
    0.7693   -4.4347    2.9285 H   0  0  0  0  0  0  0  0  0  0  0  0
   -1.3379   -6.1985    4.2720 H   0  0  0  0  0  0  0  0  0  0  0  0
   -1.6925   -8.5703    4.8221 H   0  0  0  0  0  0  0  0  0  0  0  0
    0.2501  -10.0623    5.0453 H   0  0  0  0  0  0  0  0  0  0  0  0
    2.9786   -6.7267    1.2984 H   0  0  0  0  0  0  0  0  0  0  0  0
    2.3868   -5.3922    2.0975 H   0  0  0  0  0  0  0  0  0  0  0  0
    4.4249   -4.1633    2.2175 H   0  0  0  0  0  0  0  0  0  0  0  0
    5.3398   -5.4905    1.7142 H   0  0  0  0  0  0  0  0  0  0  0  0
    2.2270   -3.8740    0.4869 H   0  0  0  0  0  0  0  0  0  0  0  0
    3.5199   -2.6935    0.5742 H   0  0  0  0  0  0  0  0  0  0  0  0
    2.4576   -4.0740   -1.9331 H   0  0  0  0  0  0  0  0  0  0  0  0
    2.2228   -2.4103   -1.5008 H   0  0  0  0  0  0  0  0  0  0  0  0
    4.0533   -2.6566   -3.1843 H   0  0  0  0  0  0  0  0  0  0  0  0
    4.5991   -1.8957   -1.7041 H   0  0  0  0  0  0  0  0  0  0  0  0
    5.0107   -4.8190   -2.4913 H   0  0  0  0  0  0  0  0  0  0  0  0
    6.2547   -3.5963   -2.3728 H   0  0  0  0  0  0  0  0  0  0  0  0
    5.8990   -3.4058    0.0774 H   0  0  0  0  0  0  0  0  0  0  0  0
    6.2110   -5.0767   -0.3426 H   0  0  0  0  0  0  0  0  0  0  0  0
    4.5979   -5.0824    4.0509 H   0  0  0  0  0  0  0  0  0  0  0  0
    5.4567   -5.7256    6.1896 H   0  0  0  0  0  0  0  0  0  0  0  0
    4.7166   -7.2819    6.0922 H   0  0  0  0  0  0  0  0  0  0  0  0
    7.9229   -5.8508    5.5769 H   0  0  0  0  0  0  0  0  0  0  0  0
    9.3729   -5.9388    3.5734 H   0  0  0  0  0  0  0  0  0  0  0  0
    9.5108   -7.0489    1.2725 H   0  0  0  0  0  0  0  0  0  0  0  0
    5.4396   -9.3123    1.7997 H   0  0  0  0  0  0  0  0  0  0  0  0
    3.4551   -9.2995    0.1262 H   0  0  0  0  0  0  0  0  0  0  0  0
    2.3748  -10.5433    2.1758 H   0  0  0  0  0  0  0  0  0  0  0  0
    4.4555  -11.1870    4.0967 H   0  0  0  0  0  0  0  0  0  0  0  0
    2.5072  -10.4725    4.7022 H   0  0  0  0  0  0  0  0  0  0  0  0
    2.8387   -9.6029    6.5723 H   0  0  0  0  0  0  0  0  0  0  0  0
    3.8729   -5.4580   -0.3492 H   0  0  0  0  0  0  0  0  0  0  0  0
  1  2  1  0
  1 38  1  0
  1 39  1  0
  1 40  1  0
  2 20  1  0
  2  3  1  0
  3  4  1  0
  3 41  1  0
  3 42  1  0
  4  5  1  0
  4 43  1  0
  4 44  1  0
  5 10  2  0
  5  6  1  0
  6  7  2  0
  6 45  1  0
  7  8  1  0
  7 46  1  0
  8  9  2  0
  8 47  1  0
  9 35  1  0
  9 10  1  0
 10 11  1  0
 11 29  1  0
 11 12  1  6
 11 20  1  0
 12 13  1  0
 12 48  1  0
 12 49  1  0
 13 14  1  0
 13 50  1  0
 13 51  1  0
 14 19  1  0
 14 15  1  0
 14 74  1  0
 15 16  1  0
 15 52  1  0
 15 53  1  0
 16 17  1  0
 16 54  1  0
 16 55  1  0
 17 18  1  0
 17 56  1  0
 17 57  1  0
 18 19  1  0
 18 58  1  0
 18 59  1  0
 19 60  1  0
 19 61  1  0
 20 21  1  0
 20 62  1  6
 21 22  1  0
 21 63  1  0
 21 64  1  0
 22 28  2  0
 22 23  1  0
 23 24  2  0
 23 65  1  0
 24 25  1  0
 24 66  1  0
 25 26  1  0
 25 27  2  0
 26 67  1  0
 27 37  1  0
 27 28  1  0
 29 28  1  1
 29 33  1  0
 29 30  1  0
 30 31  1  0
 30 37  1  0
 30 68  1  1
 31 32  2  0
 31 69  1  0
 32 33  1  0
 32 70  1  0
 33 34  1  1
 33 35  1  0
 34 71  1  0
 35 36  1  0
 35 72  1  1
 36 73  1  0
M  CHG  1  14   1
M  END
>  <i_m_ct_stereo_status>  (12) 
1

>  <s_m_source_file>  (12) 
/var/tmp/pbs.5076255.sched01/tmpnv36izql/0kitkh5ys.sdf

>  <i_m_source_file_index>  (12) 
4

>  <i_lp_mmshare_version>  (12) 
48012

>  <i_f3d_flags>  (12) 
0

>  <s_epik_input>  (12) 
W0NIMl0xW0NIMl1OKFtDSDNdKVtDQEhdMltDSDJdYyhbY0hdW2NIXWMzW09IXSljNGMzT1tDQEBIXTVbQ0hdPVtDSF1bQ0BdNihbT0hdKVtDQEBIXShbT0hdKWM3W2NIXVtjSF1bY0hdYzFjN1tDQEBdMihbQ0BdNDU2KVtDSDJdW0NIMl1OOFtDSDJdW0NIMl1bQ0gyXVtDSDJdW0NIMl04

>  <s_epik_cmdline>  (12) 
J2VwaWtfcHl0aG9uJywgJy1waHQnLCAnMi4wJywgJy1waCcsICc3LjAnLCAnLXRuJywgJzgnLCAnLW1hJywgJzIwMCcsICctaW1hZScsICc8aW5maWxlLm1hZT4nLCAnLW9tYWUnLCAnPG91dGZpbGUubWFlPic=

>  <r_lp_tautomer_probability>  (12) 
1

>  <r_epik_Ionization_Penalty>  (12) 
0.81899

>  <r_epik_Ionization_Penalty_Charging>  (12) 
0.00172719

>  <r_epik_Ionization_Penalty_Neutral>  (12) 
0.817263

>  <r_epik_State_Penalty>  (12) 
0.8578

>  <r_epik_Charging_Adjusted_Penalty>  (12) 
0.859527

>  <i_epik_Tot_Q>  (12) 
1

>  <i_epik_Tot_abs_Q>  (12) 
1

>  <s_lp_Force_Field>  (12) 
OPLS3e

>  <r_lp_Energy>  (12) 
156.135

>  <b_lp_Chiralities_Consistent>  (12) 
1

>  <s_lp_Variant>  (12) 
1:0-2

>  <s_i_glide_gridfile>  (12) 
pfpi4k_grid

>  <i_i_glide_lignum>  (12) 
4

>  <i_i_glide_rotatable_bonds>  (12) 
6

>  <r_i_docking_score>  (12) 
-2.82632

>  <r_i_glide_ligand_efficiency>  (12) 
-0.0763869

>  <r_i_glide_ligand_efficiency_sa>  (12) 
-0.254538

>  <r_i_glide_ligand_efficiency_ln>  (12) 
-0.612962

>  <r_i_glide_gscore>  (12) 
-2.82632

>  <r_i_glide_lipo>  (12) 
-0.213783

>  <r_i_glide_hbond>  (12) 
0

>  <r_i_glide_metal>  (12) 
-0

>  <r_i_glide_rewards>  (12) 
0

>  <r_i_glide_evdw>  (12) 
-23.3562

>  <r_i_glide_ecoul>  (12) 
-11.2551

>  <r_i_glide_erotb>  (12) 
0.243537

>  <r_i_glide_esite>  (12) 
0

>  <r_i_glide_emodel>  (12) 
-37.1101

>  <r_i_glide_energy>  (12) 
-34.6112

>  <r_i_glide_einternal>  (12) 
4.17882

>  <r_i_glide_intrahb_reward>  (12) 
-0

>  <i_i_glide_confnum>  (12) 
3

>  <i_i_glide_posenum>  (12) 
22

>  <r_i_glide_eff_state_penalty>  (12) 
0

>  <ligand_id>  (12) 
1

>  <original_smiles>  (12) 
CN1CCc2cccc3c2C2(CCN4CCCCC4)C1Cc1ccc(O)c4c1C21C(C=CC1(O)C3O)O4

>  <smiles>  (12) 
[H]Oc1c([H])c([H])c2c3c1OC1([H])C([H])=C([H])C4(O[H])C([H])(O[H])c5c([H])c([H])c([H])c6c5C(C([H])([H])C([H])([H])[N+]5([H])C([H])([H])C([H])([H])C([H])([H])C([H])([H])C5([H])[H])(C([H])(N(C([H])([H])[H])C([H])([H])C6([H])[H])C2([H])[H])C314

$$$$
1:2:0
     RDKit          3D

 74 81  0  0  1  0  0  0  0  0999 V2000
    5.4541  -11.8713    3.1071 C   0  0  0  0  0  0  0  0  0  0  0  0
    4.9199  -10.6346    2.4792 N   0  0  2  0  0  0  0  0  0  0  0  0
    5.9298   -9.6795    1.9740 C   0  0  0  0  0  0  0  0  0  0  0  0
    6.8810   -9.0639    3.0094 C   0  0  0  0  0  0  0  0  0  0  0  0
    6.6386   -9.2118    4.5133 C   0  0  0  0  0  0  0  0  0  0  0  0
    7.7598   -9.4395    5.3448 C   0  0  0  0  0  0  0  0  0  0  0  0
    7.6149   -9.8302    6.6795 C   0  0  0  0  0  0  0  0  0  0  0  0
    6.3321  -10.0260    7.1880 C   0  0  0  0  0  0  0  0  0  0  0  0
    5.1920   -9.7595    6.3990 C   0  0  0  0  0  0  0  0  0  0  0  0
    5.3060   -9.2788    5.0558 C   0  0  0  0  0  0  0  0  0  0  0  0
    4.0111   -8.8594    4.2156 C   0  0  1  0  0  0  0  0  0  0  0  0
    4.2718   -7.4401    3.5428 C   0  0  0  0  0  0  0  0  0  0  0  0
    3.4538   -6.9959    2.2929 C   0  0  0  0  0  0  0  0  0  0  0  0
    3.9287   -5.7100    1.7168 N   0  0  0  0  0  0  0  0  0  0  0  0
    3.5700   -5.5795    0.2784 C   0  0  0  0  0  0  0  0  0  0  0  0
    4.1807   -4.3137   -0.3392 C   0  0  0  0  0  0  0  0  0  0  0  0
    3.7648   -3.0683    0.4594 C   0  0  0  0  0  0  0  0  0  0  0  0
    4.1086   -3.2317    1.9481 C   0  0  0  0  0  0  0  0  0  0  0  0
    3.4945   -4.5232    2.5108 C   0  0  0  0  0  0  0  0  0  0  0  0
    3.7320   -9.9964    3.1294 C   0  0  2  0  0  0  0  0  0  0  0  0
    2.5847  -10.9870    3.4520 C   0  0  0  0  0  0  0  0  0  0  0  0
    1.2684  -10.2154    3.5729 C   0  0  0  0  0  0  0  0  0  0  0  0
    0.1755  -10.3369    2.6953 C   0  0  0  0  0  0  0  0  0  0  0  0
   -0.6726   -9.2143    2.5002 C   0  0  0  0  0  0  0  0  0  0  0  0
   -0.3892   -7.9459    3.0590 C   0  0  0  0  0  0  0  0  0  0  0  0
   -1.0824   -6.8363    2.6795 O   0  0  0  0  0  0  0  0  0  0  0  0
    0.6922   -7.8246    3.9559 C   0  0  0  0  0  0  0  0  0  0  0  0
    1.4346   -9.0041    4.2279 C   0  0  0  0  0  0  0  0  0  0  0  0
    2.6474   -8.6613    5.0825 C   0  0  2  0  0  0  0  0  0  0  0  0
    2.1010   -7.2557    5.4099 C   0  0  1  0  0  0  0  0  0  0  0  0
    2.8577   -6.6397    6.5098 C   0  0  0  0  0  0  0  0  0  0  0  0
    3.2385   -7.6846    7.2453 C   0  0  0  0  0  0  0  0  0  0  0  0
    2.7970   -9.0292    6.6190 C   0  0  1  0  0  0  0  0  0  0  0  0
    1.6049   -9.4437    7.2973 O   0  0  0  0  0  0  0  0  0  0  0  0
    3.8192  -10.0965    6.9097 C   0  0  1  0  0  0  0  0  0  0  0  0
    3.4238  -11.3674    6.4698 O   0  0  0  0  0  0  0  0  0  0  0  0
    1.2063   -6.6718    4.5021 O   0  0  0  0  0  0  0  0  0  0  0  0
    5.7587  -11.7447    4.1409 H   0  0  0  0  0  0  0  0  0  0  0  0
    6.3100  -12.2251    2.5352 H   0  0  0  0  0  0  0  0  0  0  0  0
    4.7020  -12.6583    3.0531 H   0  0  0  0  0  0  0  0  0  0  0  0
    6.5392  -10.1957    1.2298 H   0  0  0  0  0  0  0  0  0  0  0  0
    5.4568   -8.8888    1.3875 H   0  0  0  0  0  0  0  0  0  0  0  0
    7.8155   -9.5960    2.8762 H   0  0  0  0  0  0  0  0  0  0  0  0
    7.1566   -8.0477    2.7277 H   0  0  0  0  0  0  0  0  0  0  0  0
    8.7565   -9.3800    4.9209 H   0  0  0  0  0  0  0  0  0  0  0  0
    8.4846  -10.0440    7.2865 H   0  0  0  0  0  0  0  0  0  0  0  0
    6.1969  -10.4031    8.1956 H   0  0  0  0  0  0  0  0  0  0  0  0
    4.2553   -6.6695    4.3101 H   0  0  0  0  0  0  0  0  0  0  0  0
    5.2781   -7.3444    3.2015 H   0  0  0  0  0  0  0  0  0  0  0  0
    3.5233   -7.7201    1.4882 H   0  0  0  0  0  0  0  0  0  0  0  0
    2.4001   -6.9071    2.4839 H   0  0  0  0  0  0  0  0  0  0  0  0
    3.9211   -6.4370   -0.3024 H   0  0  0  0  0  0  0  0  0  0  0  0
    2.4843   -5.5552    0.1859 H   0  0  0  0  0  0  0  0  0  0  0  0
    5.2683   -4.4056   -0.3589 H   0  0  0  0  0  0  0  0  0  0  0  0
    3.8566   -4.2260   -1.3796 H   0  0  0  0  0  0  0  0  0  0  0  0
    4.2609   -2.1858    0.0561 H   0  0  0  0  0  0  0  0  0  0  0  0
    2.6918   -2.9022    0.3463 H   0  0  0  0  0  0  0  0  0  0  0  0
    5.1919   -3.2540    2.0785 H   0  0  0  0  0  0  0  0  0  0  0  0
    3.7402   -2.3744    2.5201 H   0  0  0  0  0  0  0  0  0  0  0  0
    2.4079   -4.4557    2.4812 H   0  0  0  0  0  0  0  0  0  0  0  0
    3.7794   -4.6124    3.5590 H   0  0  0  0  0  0  0  0  0  0  0  0
    3.2780   -9.5435    2.2580 H   0  0  0  0  0  0  0  0  0  0  0  0
    2.4960  -11.6934    2.6326 H   0  0  0  0  0  0  0  0  0  0  0  0
    2.7853  -11.5802    4.3229 H   0  0  0  0  0  0  0  0  0  0  0  0
    0.0563  -11.2173    2.0763 H   0  0  0  0  0  0  0  0  0  0  0  0
   -1.4809   -9.3097    1.7984 H   0  0  0  0  0  0  0  0  0  0  0  0
    1.2465   -7.3962    6.0910 H   0  0  0  0  0  0  0  0  0  0  0  0
    3.0657   -5.5902    6.6286 H   0  0  0  0  0  0  0  0  0  0  0  0
    3.8788   -7.6058    8.1042 H   0  0  0  0  0  0  0  0  0  0  0  0
    1.5142  -10.3898    7.2558 H   0  0  0  0  0  0  0  0  0  0  0  0
    3.9229  -10.1181    7.9937 H   0  0  0  0  0  0  0  0  0  0  0  0
    2.7473  -11.7547    7.0597 H   0  0  0  0  0  0  0  0  0  0  0  0
    4.9320   -5.7363    1.7466 H   0  0  0  0  0  0  0  0  0  0  0  0
    4.5426  -11.0344    1.6356 H   0  0  0  0  0  0  0  0  0  0  0  0
  1  2  1  0
  1 38  1  0
  1 39  1  0
  1 40  1  0
  2 20  1  0
  2  3  1  0
  2 74  1  6
  3  4  1  0
  3 41  1  0
  3 42  1  0
  4  5  1  0
  4 43  1  0
  4 44  1  0
  5 10  2  0
  5  6  1  0
  6  7  2  0
  6 45  1  0
  7  8  1  0
  7 46  1  0
  8  9  2  0
  8 47  1  0
  9 35  1  0
  9 10  1  0
 10 11  1  0
 11 29  1  0
 11 12  1  6
 11 20  1  0
 12 13  1  0
 12 48  1  0
 12 49  1  0
 13 14  1  0
 13 50  1  0
 13 51  1  0
 14 19  1  0
 14 15  1  0
 14 73  1  0
 15 16  1  0
 15 52  1  0
 15 53  1  0
 16 17  1  0
 16 54  1  0
 16 55  1  0
 17 18  1  0
 17 56  1  0
 17 57  1  0
 18 19  1  0
 18 58  1  0
 18 59  1  0
 19 60  1  0
 19 61  1  0
 20 21  1  0
 20 62  1  6
 21 22  1  0
 21 63  1  0
 21 64  1  0
 22 28  2  0
 22 23  1  0
 23 24  2  0
 23 65  1  0
 24 25  1  0
 24 66  1  0
 25 26  1  0
 25 27  2  0
 27 37  1  0
 27 28  1  0
 29 28  1  6
 29 33  1  0
 29 30  1  0
 30 31  1  0
 30 37  1  0
 30 67  1  1
 31 32  2  0
 31 68  1  0
 32 33  1  0
 32 69  1  0
 33 34  1  1
 33 35  1  0
 34 70  1  0
 35 36  1  0
 35 71  1  1
 36 72  1  0
M  CHG  3   2   1  14   1  26  -1
M  END
>  <i_m_ct_stereo_status>  (13) 
1

>  <s_m_source_file>  (13) 
/var/tmp/pbs.5076255.sched01/tmpnv36izql/0kitkh5ys.sdf

>  <i_m_source_file_index>  (13) 
5

>  <i_lp_mmshare_version>  (13) 
48012

>  <i_f3d_flags>  (13) 
0

>  <s_epik_input>  (13) 
W0NIMl0xW0NIMl1OKFtDSDNdKVtDQEhdMltDSDJdYyhbY0hdW2NIXWMzW09IXSljNGMzT1tDQEBIXTVbQ0hdPVtDSF1bQ0BdNihbT0hdKVtDQEBIXShbT0hdKWM3W2NIXVtjSF1bY0hdYzFjN1tDQEBdMihbQ0BdNDU2KVtDSDJdW0NIMl1OOFtDSDJdW0NIMl1bQ0gyXVtDSDJdW0NIMl04

>  <s_epik_cmdline>  (13) 
J2VwaWtfcHl0aG9uJywgJy1waHQnLCAnMi4wJywgJy1waCcsICc3LjAnLCAnLXRuJywgJzgnLCAnLW1hJywgJzIwMCcsICctaW1hZScsICc8aW5maWxlLm1hZT4nLCAnLW9tYWUnLCAnPG91dGZpbGUubWFlPic=

>  <r_epik_Ionization_Penalty>  (13) 
2.0811

>  <r_epik_Ionization_Penalty_Charging>  (13) 
2.0811

>  <r_epik_Ionization_Penalty_Neutral>  (13) 
5.15451e-06

>  <r_epik_State_Penalty>  (13) 
2.20147

>  <r_epik_Charging_Adjusted_Penalty>  (13) 
4.28256

>  <i_epik_Tot_Q>  (13) 
1

>  <i_epik_Tot_abs_Q>  (13) 
3

>  <s_lp_Force_Field>  (13) 
OPLS3e

>  <r_lp_Energy>  (13) 
163.444

>  <b_lp_Chiralities_Consistent>  (13) 
1

>  <s_lp_Variant>  (13) 
1:0-3

>  <s_i_glide_gridfile>  (13) 
pfpi4k_grid

>  <i_i_glide_lignum>  (13) 
5

>  <i_i_glide_rotatable_bonds>  (13) 
5

>  <r_i_docking_score>  (13) 
-4.07711

>  <r_i_glide_ligand_efficiency>  (13) 
-0.110192

>  <r_i_glide_ligand_efficiency_sa>  (13) 
-0.367185

>  <r_i_glide_ligand_efficiency_ln>  (13) 
-0.88423

>  <r_i_glide_gscore>  (13) 
-4.07711

>  <r_i_glide_lipo>  (13) 
-0.363603

>  <r_i_glide_hbond>  (13) 
-0.4

>  <r_i_glide_metal>  (13) 
-0

>  <r_i_glide_rewards>  (13) 
-0.3

>  <r_i_glide_evdw>  (13) 
-20.1168

>  <r_i_glide_ecoul>  (13) 
-14.4315

>  <r_i_glide_erotb>  (13) 
0.243537

>  <r_i_glide_esite>  (13) 
-0.0864872

>  <r_i_glide_emodel>  (13) 
-47.6436

>  <r_i_glide_energy>  (13) 
-34.5483

>  <r_i_glide_einternal>  (13) 
1.18825

>  <r_i_glide_intrahb_reward>  (13) 
-0

>  <i_i_glide_confnum>  (13) 
1

>  <i_i_glide_posenum>  (13) 
10

>  <r_i_glide_eff_state_penalty>  (13) 
0

>  <ligand_id>  (13) 
1

>  <original_smiles>  (13) 
CN1CCc2cccc3c2C2(CCN4CCCCC4)C1Cc1ccc(O)c4c1C21C(C=CC1(O)C3O)O4

>  <smiles>  (13) 
[H]OC1([H])c2c([H])c([H])c([H])c3c2C2(C([H])([H])C([H])([H])[N+]4([H])C([H])([H])C([H])([H])C([H])([H])C([H])([H])C4([H])[H])C45c6c(c([O-])c([H])c([H])c6C([H])([H])C2([H])[N+]([H])(C([H])([H])[H])C([H])([H])C3([H])[H])OC4([H])C([H])=C([H])C15O[H]

$$$$
1:2:1
     RDKit          3D

 74 81  0  0  1  0  0  0  0  0999 V2000
    5.3093  -11.4510    2.8000 C   0  0  0  0  0  0  0  0  0  0  0  0
    4.6583  -10.2417    2.2247 N   0  0  2  0  0  0  0  0  0  0  0  0
    5.5961   -9.2315    1.6741 C   0  0  0  0  0  0  0  0  0  0  0  0
    6.4962   -8.5197    2.7121 C   0  0  0  0  0  0  0  0  0  0  0  0
    6.3567   -8.7760    4.2188 C   0  0  0  0  0  0  0  0  0  0  0  0
    7.5327   -8.9315    5.0000 C   0  0  0  0  0  0  0  0  0  0  0  0
    7.4775   -9.3572    6.3293 C   0  0  0  0  0  0  0  0  0  0  0  0
    6.2379   -9.6677    6.8910 C   0  0  0  0  0  0  0  0  0  0  0  0
    5.0425   -9.4607    6.1672 C   0  0  0  0  0  0  0  0  0  0  0  0
    5.0641   -8.9358    4.8423 C   0  0  0  0  0  0  0  0  0  0  0  0
    3.7116   -8.5780    4.0854 C   0  0  1  0  0  0  0  0  0  0  0  0
    3.7938   -7.1512    3.4109 C   0  0  0  0  0  0  0  0  0  0  0  0
    4.5496   -6.0184    4.1615 C   0  0  0  0  0  0  0  0  0  0  0  0
    4.3806   -4.7017    3.4894 N   0  0  0  0  0  0  0  0  0  0  0  0
    4.5447   -3.5647    4.4332 C   0  0  0  0  0  0  0  0  0  0  0  0
    4.2808   -2.2129    3.7495 C   0  0  0  0  0  0  0  0  0  0  0  0
    5.1764   -2.0457    2.5129 C   0  0  0  0  0  0  0  0  0  0  0  0
    5.0209   -3.2442    1.5645 C   0  0  0  0  0  0  0  0  0  0  0  0
    5.2714   -4.5632    2.3035 C   0  0  0  0  0  0  0  0  0  0  0  0
    3.4619   -9.6780    2.9384 C   0  0  2  0  0  0  0  0  0  0  0  0
    2.4161  -10.7825    3.2902 C   0  0  0  0  0  0  0  0  0  0  0  0
    1.0719  -10.1272    3.4849 C   0  0  0  0  0  0  0  0  0  0  0  0
   -0.0489  -10.3172    2.6504 C   0  0  0  0  0  0  0  0  0  0  0  0
   -0.9961   -9.2936    2.5233 C   0  0  0  0  0  0  0  0  0  0  0  0
   -0.7971   -8.0378    3.1186 C   0  0  0  0  0  0  0  0  0  0  0  0
   -1.6969   -7.0439    2.8921 O   0  0  0  0  0  0  0  0  0  0  0  0
    0.3382   -7.8199    3.9377 C   0  0  0  0  0  0  0  0  0  0  0  0
    1.1659   -8.9296    4.1825 C   0  0  0  0  0  0  0  0  0  0  0  0
    2.3752   -8.5169    5.0225 C   0  0  2  0  0  0  0  0  0  0  0  0
    1.6944   -7.1828    5.4146 C   0  0  1  0  0  0  0  0  0  0  0  0
    2.3897   -6.5540    6.5557 C   0  0  0  0  0  0  0  0  0  0  0  0
    2.9467   -7.5867    7.1980 C   0  0  0  0  0  0  0  0  0  0  0  0
    2.6066   -8.9405    6.5325 C   0  0  1  0  0  0  0  0  0  0  0  0
    1.4612   -9.4629    7.2146 O   0  0  0  0  0  0  0  0  0  0  0  0
    3.7331   -9.9247    6.7448 C   0  0  1  0  0  0  0  0  0  0  0  0
    3.4253  -11.2398    6.3287 O   0  0  0  0  0  0  0  0  0  0  0  0
    0.7605   -6.6451    4.5030 O   0  0  0  0  0  0  0  0  0  0  0  0
    5.6535  -11.3244    3.8272 H   0  0  0  0  0  0  0  0  0  0  0  0
    6.1674  -11.7320    2.1819 H   0  0  0  0  0  0  0  0  0  0  0  0
    4.6175  -12.2990    2.7636 H   0  0  0  0  0  0  0  0  0  0  0  0
    6.2383   -9.7188    0.9318 H   0  0  0  0  0  0  0  0  0  0  0  0
    5.0572   -8.5085    1.0509 H   0  0  0  0  0  0  0  0  0  0  0  0
    7.4770   -8.9443    2.4927 H   0  0  0  0  0  0  0  0  0  0  0  0
    6.6240   -7.4625    2.4798 H   0  0  0  0  0  0  0  0  0  0  0  0
    8.5005   -8.7735    4.5403 H   0  0  0  0  0  0  0  0  0  0  0  0
    8.3855   -9.5129    6.8953 H   0  0  0  0  0  0  0  0  0  0  0  0
    6.1846  -10.0747    7.8909 H   0  0  0  0  0  0  0  0  0  0  0  0
    4.2831   -7.2055    2.4561 H   0  0  0  0  0  0  0  0  0  0  0  0
    2.7891   -6.8480    3.1097 H   0  0  0  0  0  0  0  0  0  0  0  0
    4.2080   -5.9047    5.1714 H   0  0  0  0  0  0  0  0  0  0  0  0
    5.6159   -6.2536    4.2672 H   0  0  0  0  0  0  0  0  0  0  0  0
    3.8625   -3.6590    5.2793 H   0  0  0  0  0  0  0  0  0  0  0  0
    5.5557   -3.5859    4.8404 H   0  0  0  0  0  0  0  0  0  0  0  0
    3.2272   -2.1429    3.4652 H   0  0  0  0  0  0  0  0  0  0  0  0
    4.4622   -1.4005    4.4573 H   0  0  0  0  0  0  0  0  0  0  0  0
    4.9276   -1.1210    1.9896 H   0  0  0  0  0  0  0  0  0  0  0  0
    6.2119   -1.9659    2.8321 H   0  0  0  0  0  0  0  0  0  0  0  0
    4.0162   -3.2547    1.1317 H   0  0  0  0  0  0  0  0  0  0  0  0
    5.7228   -3.1639    0.7282 H   0  0  0  0  0  0  0  0  0  0  0  0
    6.3062   -4.6134    2.6424 H   0  0  0  0  0  0  0  0  0  0  0  0
    5.1270   -5.3780    1.5965 H   0  0  0  0  0  0  0  0  0  0  0  0
    2.9662   -9.1261    2.1319 H   0  0  0  0  0  0  0  0  0  0  0  0
    2.3364  -11.4897    2.4744 H   0  0  0  0  0  0  0  0  0  0  0  0
    2.6969  -11.3847    4.1402 H   0  0  0  0  0  0  0  0  0  0  0  0
   -0.1424  -11.1863    2.0213 H   0  0  0  0  0  0  0  0  0  0  0  0
   -1.8442   -9.4247    1.8788 H   0  0  0  0  0  0  0  0  0  0  0  0
    0.8542   -7.4329    6.0808 H   0  0  0  0  0  0  0  0  0  0  0  0
    2.5021   -5.4965    6.7230 H   0  0  0  0  0  0  0  0  0  0  0  0
    3.6532   -7.4770    8.0045 H   0  0  0  0  0  0  0  0  0  0  0  0
    1.4858  -10.4157    7.2164 H   0  0  0  0  0  0  0  0  0  0  0  0
    3.8849   -9.9694    7.8247 H   0  0  0  0  0  0  0  0  0  0  0  0
    2.7603  -11.6300    6.8888 H   0  0  0  0  0  0  0  0  0  0  0  0
    3.4280   -4.6457    3.1592 H   0  0  0  0  0  0  0  0  0  0  0  0
    4.2549  -10.6590    1.3857 H   0  0  0  0  0  0  0  0  0  0  0  0
  1  2  1  0
  1 38  1  0
  1 39  1  0
  1 40  1  0
  2 20  1  0
  2  3  1  0
  2 74  1  6
  3  4  1  0
  3 41  1  0
  3 42  1  0
  4  5  1  0
  4 43  1  0
  4 44  1  0
  5 10  2  0
  5  6  1  0
  6  7  2  0
  6 45  1  0
  7  8  1  0
  7 46  1  0
  8  9  2  0
  8 47  1  0
  9 35  1  0
  9 10  1  0
 10 11  1  0
 11 29  1  0
 11 12  1  6
 11 20  1  0
 12 13  1  0
 12 48  1  0
 12 49  1  0
 13 14  1  0
 13 50  1  0
 13 51  1  0
 14 19  1  0
 14 15  1  0
 14 73  1  0
 15 16  1  0
 15 52  1  0
 15 53  1  0
 16 17  1  0
 16 54  1  0
 16 55  1  0
 17 18  1  0
 17 56  1  0
 17 57  1  0
 18 19  1  0
 18 58  1  0
 18 59  1  0
 19 60  1  0
 19 61  1  0
 20 21  1  0
 20 62  1  6
 21 22  1  0
 21 63  1  0
 21 64  1  0
 22 28  2  0
 22 23  1  0
 23 24  2  0
 23 65  1  0
 24 25  1  0
 24 66  1  0
 25 26  1  0
 25 27  2  0
 27 37  1  0
 27 28  1  0
 29 28  1  6
 29 33  1  0
 29 30  1  0
 30 31  1  0
 30 37  1  0
 30 67  1  1
 31 32  2  0
 31 68  1  0
 32 33  1  0
 32 69  1  0
 33 34  1  1
 33 35  1  0
 34 70  1  0
 35 36  1  0
 35 71  1  1
 36 72  1  0
M  CHG  3   2   1  14   1  26  -1
M  END
>  <i_m_ct_stereo_status>  (14) 
1

>  <s_m_source_file>  (14) 
/var/tmp/pbs.5076255.sched01/tmpnv36izql/0kitkh5ys.sdf

>  <i_m_source_file_index>  (14) 
5

>  <i_lp_mmshare_version>  (14) 
48012

>  <i_f3d_flags>  (14) 
0

>  <s_epik_input>  (14) 
W0NIMl0xW0NIMl1OKFtDSDNdKVtDQEhdMltDSDJdYyhbY0hdW2NIXWMzW09IXSljNGMzT1tDQEBIXTVbQ0hdPVtDSF1bQ0BdNihbT0hdKVtDQEBIXShbT0hdKWM3W2NIXVtjSF1bY0hdYzFjN1tDQEBdMihbQ0BdNDU2KVtDSDJdW0NIMl1OOFtDSDJdW0NIMl1bQ0gyXVtDSDJdW0NIMl04

>  <s_epik_cmdline>  (14) 
J2VwaWtfcHl0aG9uJywgJy1waHQnLCAnMi4wJywgJy1waCcsICc3LjAnLCAnLXRuJywgJzgnLCAnLW1hJywgJzIwMCcsICctaW1hZScsICc8aW5maWxlLm1hZT4nLCAnLW9tYWUnLCAnPG91dGZpbGUubWFlPic=

>  <r_epik_Ionization_Penalty>  (14) 
2.0811

>  <r_epik_Ionization_Penalty_Charging>  (14) 
2.0811

>  <r_epik_Ionization_Penalty_Neutral>  (14) 
5.15451e-06

>  <r_epik_State_Penalty>  (14) 
2.20147

>  <r_epik_Charging_Adjusted_Penalty>  (14) 
4.28256

>  <i_epik_Tot_Q>  (14) 
1

>  <i_epik_Tot_abs_Q>  (14) 
3

>  <s_lp_Force_Field>  (14) 
OPLS3e

>  <r_lp_Energy>  (14) 
163.444

>  <b_lp_Chiralities_Consistent>  (14) 
1

>  <s_lp_Variant>  (14) 
1:0-3

>  <s_i_glide_gridfile>  (14) 
pfpi4k_grid

>  <i_i_glide_lignum>  (14) 
5

>  <i_i_glide_rotatable_bonds>  (14) 
5

>  <r_i_docking_score>  (14) 
-3.85885

>  <r_i_glide_ligand_efficiency>  (14) 
-0.104293

>  <r_i_glide_ligand_efficiency_sa>  (14) 
-0.347528

>  <r_i_glide_ligand_efficiency_ln>  (14) 
-0.836895

>  <r_i_glide_gscore>  (14) 
-3.85885

>  <r_i_glide_lipo>  (14) 
-0.578844

>  <r_i_glide_hbond>  (14) 
-0.383209

>  <r_i_glide_metal>  (14) 
-0

>  <r_i_glide_rewards>  (14) 
-0.3

>  <r_i_glide_evdw>  (14) 
-19.7414

>  <r_i_glide_ecoul>  (14) 
-11.7853

>  <r_i_glide_erotb>  (14) 
0.243537

>  <r_i_glide_esite>  (14) 
-0.0854727

>  <r_i_glide_emodel>  (14) 
-43.5799

>  <r_i_glide_energy>  (14) 
-31.5267

>  <r_i_glide_einternal>  (14) 
0.995446

>  <r_i_glide_intrahb_reward>  (14) 
-0

>  <i_i_glide_confnum>  (14) 
1

>  <i_i_glide_posenum>  (14) 
14

>  <r_i_glide_eff_state_penalty>  (14) 
0

>  <ligand_id>  (14) 
1

>  <original_smiles>  (14) 
CN1CCc2cccc3c2C2(CCN4CCCCC4)C1Cc1ccc(O)c4c1C21C(C=CC1(O)C3O)O4

>  <smiles>  (14) 
[H]OC1([H])c2c([H])c([H])c([H])c3c2C2(C([H])([H])C([H])([H])[N+]4([H])C([H])([H])C([H])([H])C([H])([H])C([H])([H])C4([H])[H])C45c6c(c([O-])c([H])c([H])c6C([H])([H])C2([H])[N+]([H])(C([H])([H])[H])C([H])([H])C3([H])[H])OC4([H])C([H])=C([H])C15O[H]

$$$$
1:2:2
     RDKit          3D

 74 81  0  0  1  0  0  0  0  0999 V2000
    5.5629  -11.3807    2.8326 C   0  0  0  0  0  0  0  0  0  0  0  0
    4.8723  -10.2654    2.1100 N   0  0  2  0  0  0  0  0  0  0  0  0
    5.7743   -9.3502    1.3914 C   0  0  0  0  0  0  0  0  0  0  0  0
    6.7032   -8.4786    2.2914 C   0  0  0  0  0  0  0  0  0  0  0  0
    6.6310   -8.5222    3.8305 C   0  0  0  0  0  0  0  0  0  0  0  0
    7.8369   -8.5588    4.5801 C   0  0  0  0  0  0  0  0  0  0  0  0
    7.8350   -8.7906    5.9598 C   0  0  0  0  0  0  0  0  0  0  0  0
    6.6150   -9.0314    6.5990 C   0  0  0  0  0  0  0  0  0  0  0  0
    5.3934   -8.9417    5.9000 C   0  0  0  0  0  0  0  0  0  0  0  0
    5.3627   -8.6056    4.5098 C   0  0  0  0  0  0  0  0  0  0  0  0
    3.9853   -8.3555    3.7593 C   0  0  1  0  0  0  0  0  0  0  0  0
    4.0233   -7.0459    2.8779 C   0  0  0  0  0  0  0  0  0  0  0  0
    4.7673   -5.8066    3.4462 C   0  0  0  0  0  0  0  0  0  0  0  0
    4.7719   -4.6521    2.5027 N   0  0  0  0  0  0  0  0  0  0  0  0
    4.8267   -3.3383    3.2034 C   0  0  0  0  0  0  0  0  0  0  0  0
    4.7438   -2.1622    2.2198 C   0  0  0  0  0  0  0  0  0  0  0  0
    5.8408   -2.2752    1.1504 C   0  0  0  0  0  0  0  0  0  0  0  0
    5.7875   -3.6441    0.4567 C   0  0  0  0  0  0  0  0  0  0  0  0
    5.8521   -4.7749    1.4867 C   0  0  0  0  0  0  0  0  0  0  0  0
    3.7065   -9.6037    2.7794 C   0  0  2  0  0  0  0  0  0  0  0  0
    2.6919  -10.6560    3.3168 C   0  0  0  0  0  0  0  0  0  0  0  0
    1.3339  -10.0079    3.4870 C   0  0  0  0  0  0  0  0  0  0  0  0
    0.1853  -10.3154    2.7483 C   0  0  0  0  0  0  0  0  0  0  0  0
   -0.7734   -9.3217    2.4995 C   0  0  0  0  0  0  0  0  0  0  0  0
   -0.5309   -7.9818    2.8682 C   0  0  0  0  0  0  0  0  0  0  0  0
   -1.3768   -7.0102    2.4779 O   0  0  0  0  0  0  0  0  0  0  0  0
    0.6095   -7.6553    3.6278 C   0  0  0  0  0  0  0  0  0  0  0  0
    1.4500   -8.7105    4.0030 C   0  0  0  0  0  0  0  0  0  0  0  0
    2.6810   -8.1799    4.7246 C   0  0  2  0  0  0  0  0  0  0  0  0
    2.0008   -6.7988    4.9449 C   0  0  1  0  0  0  0  0  0  0  0  0
    2.7099   -6.0184    5.9861 C   0  0  0  0  0  0  0  0  0  0  0  0
    3.3148   -6.9436    6.7289 C   0  0  0  0  0  0  0  0  0  0  0  0
    2.9704   -8.3797    6.2664 C   0  0  1  0  0  0  0  0  0  0  0  0
    1.8593   -8.8043    7.0497 O   0  0  0  0  0  0  0  0  0  0  0  0
    4.1006   -9.3208    6.5758 C   0  0  1  0  0  0  0  0  0  0  0  0
    3.7652  -10.6699    6.3521 O   0  0  0  0  0  0  0  0  0  0  0  0
    1.0363   -6.3903    4.0026 O   0  0  0  0  0  0  0  0  0  0  0  0
    5.9379  -11.0997    3.8151 H   0  0  0  0  0  0  0  0  0  0  0  0
    6.4023  -11.7309    2.2319 H   0  0  0  0  0  0  0  0  0  0  0  0
    4.8832  -12.2205    2.9370 H   0  0  0  0  0  0  0  0  0  0  0  0
    6.4168   -9.9191    0.7167 H   0  0  0  0  0  0  0  0  0  0  0  0
    5.2167   -8.7150    0.6887 H   0  0  0  0  0  0  0  0  0  0  0  0
    7.6849   -8.9170    2.1096 H   0  0  0  0  0  0  0  0  0  0  0  0
    6.8186   -7.4584    1.9133 H   0  0  0  0  0  0  0  0  0  0  0  0
    8.7859   -8.4543    4.0656 H   0  0  0  0  0  0  0  0  0  0  0  0
    8.7655   -8.8553    6.5062 H   0  0  0  0  0  0  0  0  0  0  0  0
    6.6057   -9.2868    7.6516 H   0  0  0  0  0  0  0  0  0  0  0  0
    4.4938   -7.2241    1.9315 H   0  0  0  0  0  0  0  0  0  0  0  0
    3.0096   -6.8043    2.5691 H   0  0  0  0  0  0  0  0  0  0  0  0
    4.2667   -5.4281    4.3349 H   0  0  0  0  0  0  0  0  0  0  0  0
    5.7842   -6.0536    3.7697 H   0  0  0  0  0  0  0  0  0  0  0  0
    4.0068   -3.2372    3.9151 H   0  0  0  0  0  0  0  0  0  0  0  0
    5.7477   -3.2795    3.7798 H   0  0  0  0  0  0  0  0  0  0  0  0
    3.7597   -2.1469    1.7511 H   0  0  0  0  0  0  0  0  0  0  0  0
    4.8374   -1.2204    2.7632 H   0  0  0  0  0  0  0  0  0  0  0  0
    5.7258   -1.4794    0.4149 H   0  0  0  0  0  0  0  0  0  0  0  0
    6.8167   -2.1417    1.6219 H   0  0  0  0  0  0  0  0  0  0  0  0
    4.8688   -3.7370   -0.1244 H   0  0  0  0  0  0  0  0  0  0  0  0
    6.6205   -3.7530   -0.2475 H   0  0  0  0  0  0  0  0  0  0  0  0
    6.8176   -4.7579    1.9965 H   0  0  0  0  0  0  0  0  0  0  0  0
    5.7857   -5.7165    0.9418 H   0  0  0  0  0  0  0  0  0  0  0  0
    3.1715   -9.1677    1.9302 H   0  0  0  0  0  0  0  0  0  0  0  0
    2.5843  -11.4758    2.5980 H   0  0  0  0  0  0  0  0  0  0  0  0
    3.0137  -11.1429    4.2313 H   0  0  0  0  0  0  0  0  0  0  0  0
    0.0962  -11.2623    2.2442 H   0  0  0  0  0  0  0  0  0  0  0  0
   -1.6300   -9.5366    1.9002 H   0  0  0  0  0  0  0  0  0  0  0  0
    1.1848   -6.9689    5.6614 H   0  0  0  0  0  0  0  0  0  0  0  0
    2.8055   -4.9429    6.0276 H   0  0  0  0  0  0  0  0  0  0  0  0
    4.0466   -6.7261    7.5018 H   0  0  0  0  0  0  0  0  0  0  0  0
    1.6838   -9.7169    6.8749 H   0  0  0  0  0  0  0  0  0  0  0  0
    4.2909   -9.2139    7.6415 H   0  0  0  0  0  0  0  0  0  0  0  0
    3.0757  -10.9469    6.9483 H   0  0  0  0  0  0  0  0  0  0  0  0
    3.8906   -4.6609    2.0124 H   0  0  0  0  0  0  0  0  0  0  0  0
    4.4557  -10.8215    1.3553 H   0  0  0  0  0  0  0  0  0  0  0  0
  1  2  1  0
  1 38  1  0
  1 39  1  0
  1 40  1  0
  2 20  1  0
  2  3  1  0
  2 74  1  6
  3  4  1  0
  3 41  1  0
  3 42  1  0
  4  5  1  0
  4 43  1  0
  4 44  1  0
  5 10  2  0
  5  6  1  0
  6  7  2  0
  6 45  1  0
  7  8  1  0
  7 46  1  0
  8  9  2  0
  8 47  1  0
  9 35  1  0
  9 10  1  0
 10 11  1  0
 11 29  1  0
 11 12  1  6
 11 20  1  0
 12 13  1  0
 12 48  1  0
 12 49  1  0
 13 14  1  0
 13 50  1  0
 13 51  1  0
 14 19  1  0
 14 15  1  0
 14 73  1  0
 15 16  1  0
 15 52  1  0
 15 53  1  0
 16 17  1  0
 16 54  1  0
 16 55  1  0
 17 18  1  0
 17 56  1  0
 17 57  1  0
 18 19  1  0
 18 58  1  0
 18 59  1  0
 19 60  1  0
 19 61  1  0
 20 21  1  0
 20 62  1  6
 21 22  1  0
 21 63  1  0
 21 64  1  0
 22 28  2  0
 22 23  1  0
 23 24  2  0
 23 65  1  0
 24 25  1  0
 24 66  1  0
 25 26  1  0
 25 27  2  0
 27 37  1  0
 27 28  1  0
 29 28  1  6
 29 33  1  0
 29 30  1  0
 30 31  1  0
 30 37  1  0
 30 67  1  1
 31 32  2  0
 31 68  1  0
 32 33  1  0
 32 69  1  0
 33 34  1  1
 33 35  1  0
 34 70  1  0
 35 36  1  0
 35 71  1  1
 36 72  1  0
M  CHG  3   2   1  14   1  26  -1
M  END
>  <i_m_ct_stereo_status>  (15) 
1

>  <s_m_source_file>  (15) 
/var/tmp/pbs.5076255.sched01/tmpnv36izql/0kitkh5ys.sdf

>  <i_m_source_file_index>  (15) 
5

>  <i_lp_mmshare_version>  (15) 
48012

>  <i_f3d_flags>  (15) 
0

>  <s_epik_input>  (15) 
W0NIMl0xW0NIMl1OKFtDSDNdKVtDQEhdMltDSDJdYyhbY0hdW2NIXWMzW09IXSljNGMzT1tDQEBIXTVbQ0hdPVtDSF1bQ0BdNihbT0hdKVtDQEBIXShbT0hdKWM3W2NIXVtjSF1bY0hdYzFjN1tDQEBdMihbQ0BdNDU2KVtDSDJdW0NIMl1OOFtDSDJdW0NIMl1bQ0gyXVtDSDJdW0NIMl04

>  <s_epik_cmdline>  (15) 
J2VwaWtfcHl0aG9uJywgJy1waHQnLCAnMi4wJywgJy1waCcsICc3LjAnLCAnLXRuJywgJzgnLCAnLW1hJywgJzIwMCcsICctaW1hZScsICc8aW5maWxlLm1hZT4nLCAnLW9tYWUnLCAnPG91dGZpbGUubWFlPic=

>  <r_epik_Ionization_Penalty>  (15) 
2.0811

>  <r_epik_Ionization_Penalty_Charging>  (15) 
2.0811

>  <r_epik_Ionization_Penalty_Neutral>  (15) 
5.15451e-06

>  <r_epik_State_Penalty>  (15) 
2.20147

>  <r_epik_Charging_Adjusted_Penalty>  (15) 
4.28256

>  <i_epik_Tot_Q>  (15) 
1

>  <i_epik_Tot_abs_Q>  (15) 
3

>  <s_lp_Force_Field>  (15) 
OPLS3e

>  <r_lp_Energy>  (15) 
163.444

>  <b_lp_Chiralities_Consistent>  (15) 
1

>  <s_lp_Variant>  (15) 
1:0-3

>  <s_i_glide_gridfile>  (15) 
pfpi4k_grid

>  <i_i_glide_lignum>  (15) 
5

>  <i_i_glide_rotatable_bonds>  (15) 
5

>  <r_i_docking_score>  (15) 
-3.65105

>  <r_i_glide_ligand_efficiency>  (15) 
-0.0986769

>  <r_i_glide_ligand_efficiency_sa>  (15) 
-0.328813

>  <r_i_glide_ligand_efficiency_ln>  (15) 
-0.791826

>  <r_i_glide_gscore>  (15) 
-3.65105

>  <r_i_glide_lipo>  (15) 
-0.717895

>  <r_i_glide_hbond>  (15) 
-0.4

>  <r_i_glide_metal>  (15) 
-0

>  <r_i_glide_rewards>  (15) 
-0.3

>  <r_i_glide_evdw>  (15) 
-22.2799

>  <r_i_glide_ecoul>  (15) 
-8.47684

>  <r_i_glide_erotb>  (15) 
0.243537

>  <r_i_glide_esite>  (15) 
-0.0911682

>  <r_i_glide_emodel>  (15) 
-42.1703

>  <r_i_glide_energy>  (15) 
-30.7567

>  <r_i_glide_einternal>  (15) 
0.275583

>  <r_i_glide_intrahb_reward>  (15) 
-0

>  <i_i_glide_confnum>  (15) 
1

>  <i_i_glide_posenum>  (15) 
32

>  <r_i_glide_eff_state_penalty>  (15) 
0

>  <ligand_id>  (15) 
1

>  <original_smiles>  (15) 
CN1CCc2cccc3c2C2(CCN4CCCCC4)C1Cc1ccc(O)c4c1C21C(C=CC1(O)C3O)O4

>  <smiles>  (15) 
[H]OC1([H])c2c([H])c([H])c([H])c3c2C2(C([H])([H])C([H])([H])[N+]4([H])C([H])([H])C([H])([H])C([H])([H])C([H])([H])C4([H])[H])C45c6c(c([O-])c([H])c([H])c6C([H])([H])C2([H])[N+]([H])(C([H])([H])[H])C([H])([H])C3([H])[H])OC4([H])C([H])=C([H])C15O[H]

$$$$
2:0:0
     RDKit          3D

 50 53  0  0  1  0  0  0  0  0999 V2000
    1.2274   -1.1927    4.7588 C   0  0  0  0  0  0  0  0  0  0  0  0
    1.9098   -0.7453    3.4789 C   0  0  0  0  0  0  0  0  0  0  0  0
    1.2845    0.4918    2.8533 C   0  0  0  0  0  0  0  0  0  0  0  0
    2.9608   -1.4323    2.9868 C   0  0  0  0  0  0  0  0  0  0  0  0
    3.7549   -1.1640    1.7098 C   0  0  0  0  0  0  0  0  0  0  0  0
    3.5844   -2.2158    0.5546 C   0  0  1  0  0  0  0  0  0  0  0  0
    2.2217   -2.5928    0.5902 O   0  0  0  0  0  0  0  0  0  0  0  0
    3.7748   -1.4840   -0.8409 C   0  0  1  0  0  0  0  0  0  0  0  0
    5.0786   -0.6755   -0.8452 C   0  0  0  0  0  0  0  0  0  0  0  0
    6.1846   -1.4939   -0.5562 O   0  0  0  0  0  0  0  0  0  0  0  0
    6.2249   -2.7825   -1.1767 C   0  0  2  0  0  0  0  0  0  0  0  0
    7.4801   -3.0373   -1.7688 O   0  0  0  0  0  0  0  0  0  0  0  0
    4.9907   -3.2927   -1.9924 C   0  0  1  0  0  0  0  0  0  0  0  0
    4.9523   -4.5165   -1.0684 C   0  0  2  0  0  0  0  0  0  0  0  0
    3.9485   -4.8019    0.0201 C   0  0  0  0  0  0  0  0  0  0  0  0
    4.4264   -3.5436    0.7483 C   0  0  2  0  0  0  0  0  0  0  0  0
    4.5519   -3.8083    2.1247 O   0  0  0  0  0  0  0  0  0  0  0  0
    5.7839   -3.7427   -0.0351 C   0  0  2  0  0  0  0  0  0  0  0  0
    6.9308   -4.4481    0.7184 C   0  0  0  0  0  0  0  0  0  0  0  0
    3.7867   -2.3650   -2.1384 C   0  0  0  0  0  0  0  0  0  0  0  0
    2.4359   -3.0802   -2.4332 C   0  0  0  0  0  0  0  0  0  0  0  0
    3.9717   -1.5204   -3.4327 C   0  0  0  0  0  0  0  0  0  0  0  0
    1.2850   -0.4110    5.5173 H   0  0  0  0  0  0  0  0  0  0  0  0
    1.6930   -2.0919    5.1626 H   0  0  0  0  0  0  0  0  0  0  0  0
    0.1770   -1.4143    4.5674 H   0  0  0  0  0  0  0  0  0  0  0  0
    1.2627    1.3058    3.5822 H   0  0  0  0  0  0  0  0  0  0  0  0
    0.2570    0.2791    2.5538 H   0  0  0  0  0  0  0  0  0  0  0  0
    1.8040    0.8622    1.9713 H   0  0  0  0  0  0  0  0  0  0  0  0
    3.2771   -2.2890    3.5540 H   0  0  0  0  0  0  0  0  0  0  0  0
    3.4787   -0.1729    1.3628 H   0  0  0  0  0  0  0  0  0  0  0  0
    4.8104   -1.0807    1.9637 H   0  0  0  0  0  0  0  0  0  0  0  0
    1.7162   -1.8866    0.1812 H   0  0  0  0  0  0  0  0  0  0  0  0
    2.9838   -0.7468   -0.9628 H   0  0  0  0  0  0  0  0  0  0  0  0
    5.2542   -0.1839   -1.7890 H   0  0  0  0  0  0  0  0  0  0  0  0
    5.0459    0.1335   -0.1172 H   0  0  0  0  0  0  0  0  0  0  0  0
    7.3379   -3.2285   -2.6995 H   0  0  0  0  0  0  0  0  0  0  0  0
    5.3352   -3.6566   -2.9616 H   0  0  0  0  0  0  0  0  0  0  0  0
    5.4177   -5.4058   -1.4708 H   0  0  0  0  0  0  0  0  0  0  0  0
    2.9239   -4.8379   -0.3040 H   0  0  0  0  0  0  0  0  0  0  0  0
    4.1956   -5.7190    0.5516 H   0  0  0  0  0  0  0  0  0  0  0  0
    5.4440   -3.5890    2.3564 H   0  0  0  0  0  0  0  0  0  0  0  0
    6.5810   -5.3086    1.2962 H   0  0  0  0  0  0  0  0  0  0  0  0
    7.4101   -3.7514    1.4114 H   0  0  0  0  0  0  0  0  0  0  0  0
    7.7139   -4.8125    0.0489 H   0  0  0  0  0  0  0  0  0  0  0  0
    2.5279   -3.8430   -3.2120 H   0  0  0  0  0  0  0  0  0  0  0  0
    1.6982   -2.3573   -2.7844 H   0  0  0  0  0  0  0  0  0  0  0  0
    1.9566   -3.5623   -1.5937 H   0  0  0  0  0  0  0  0  0  0  0  0
    3.6950   -2.0878   -4.3252 H   0  0  0  0  0  0  0  0  0  0  0  0
    5.0029   -1.2159   -3.6005 H   0  0  0  0  0  0  0  0  0  0  0  0
    3.3460   -0.6239   -3.4200 H   0  0  0  0  0  0  0  0  0  0  0  0
  1  2  1  0
  1 23  1  0
  1 24  1  0
  1 25  1  0
  2  3  1  0
  2  4  2  3
  3 26  1  0
  3 27  1  0
  3 28  1  0
  4  5  1  0
  4 29  1  0
  5  6  1  0
  5 30  1  0
  5 31  1  0
  6 16  1  0
  6  7  1  6
  6  8  1  0
  7 32  1  0
  8 20  1  0
  8  9  1  0
  8 33  1  6
  9 10  1  0
  9 34  1  0
  9 35  1  0
 10 11  1  0
 11 18  1  0
 11 12  1  6
 11 13  1  0
 12 36  1  0
 13 14  1  0
 13 20  1  0
 13 37  1  6
 14 18  1  0
 14 15  1  0
 14 38  1  6
 15 16  1  0
 15 39  1  0
 15 40  1  0
 16 17  1  1
 16 18  1  0
 17 41  1  0
 18 19  1  1
 19 42  1  0
 19 43  1  0
 19 44  1  0
 20 21  1  0
 20 22  1  0
 21 45  1  0
 21 46  1  0
 21 47  1  0
 22 48  1  0
 22 49  1  0
 22 50  1  0
M  END
>  <i_m_ct_stereo_status>  (16) 
1

>  <s_m_source_file>  (16) 
/var/tmp/pbs.5076255.sched01/tmpnv36izql/0kitkh5ys.sdf

>  <i_m_source_file_index>  (16) 
6

>  <i_lp_mmshare_version>  (16) 
48012

>  <i_f3d_flags>  (16) 
0

>  <s_epik_input>  (16) 
W0NIM11DKFtDSDNdKT1bQ0hdW0NIMl1bQ0BAXShbT0hdKShbQ0BASF0oW0NIMl1PMSlDMihbQ0gzXSlbQ0gzXSlbQ0BdKFtDSDJdMykoW09IXSlbQ0BAXTQoW0NIM10pW0NAQEhdM1tDQEBIXTJbQ0BAXTE0W09IXQ==

>  <s_epik_cmdline>  (16) 
J2VwaWtfcHl0aG9uJywgJy1waHQnLCAnMi4wJywgJy1waCcsICc3LjAnLCAnLXRuJywgJzgnLCAnLW1hJywgJzIwMCcsICctaW1hZScsICc8aW5maWxlLm1hZT4nLCAnLW9tYWUnLCAnPG91dGZpbGUubWFlPic=

>  <r_lp_tautomer_probability>  (16) 
1

>  <r_epik_Ionization_Penalty>  (16) 
2.53445e-07

>  <r_epik_Ionization_Penalty_Charging>  (16) 
0

>  <r_epik_Ionization_Penalty_Neutral>  (16) 
2.53445e-07

>  <r_epik_State_Penalty>  (16) 
-0

>  <r_epik_Charging_Adjusted_Penalty>  (16) 
0

>  <i_epik_Tot_Q>  (16) 
0

>  <i_epik_Tot_abs_Q>  (16) 
0

>  <s_lp_Force_Field>  (16) 
OPLS3e

>  <r_lp_Energy>  (16) 
70.1799

>  <b_lp_Chiralities_Consistent>  (16) 
1

>  <s_lp_Variant>  (16) 
2:0-1

>  <s_i_glide_gridfile>  (16) 
pfpi4k_grid

>  <i_i_glide_lignum>  (16) 
6

>  <i_i_glide_rotatable_bonds>  (16) 
5

>  <r_i_docking_score>  (16) 
-3.47201

>  <r_i_glide_ligand_efficiency>  (16) 
-0.157819

>  <r_i_glide_ligand_efficiency_sa>  (16) 
-0.442214

>  <r_i_glide_ligand_efficiency_ln>  (16) 
-0.848686

>  <r_i_glide_gscore>  (16) 
-3.47201

>  <r_i_glide_lipo>  (16) 
-0.541206

>  <r_i_glide_hbond>  (16) 
-0.0870144

>  <r_i_glide_metal>  (16) 
-0

>  <r_i_glide_rewards>  (16) 
-1.30628

>  <r_i_glide_evdw>  (16) 
-16.8876

>  <r_i_glide_ecoul>  (16) 
-6.40267

>  <r_i_glide_erotb>  (16) 
0.27231

>  <r_i_glide_esite>  (16) 
-0.00504036

>  <r_i_glide_emodel>  (16) 
-25.6977

>  <r_i_glide_energy>  (16) 
-23.2902

>  <r_i_glide_einternal>  (16) 
6.64035

>  <r_i_glide_intrahb_reward>  (16) 
-0

>  <i_i_glide_confnum>  (16) 
2

>  <i_i_glide_posenum>  (16) 
37

>  <r_i_glide_eff_state_penalty>  (16) 
0

>  <ligand_id>  (16) 
2

>  <original_smiles>  (16) 
CC(C)=CCC1(O)C2COC3(O)C(C4CC1(O)C43C)C2(C)C

>  <smiles>  (16) 
[H]OC12OC([H])([H])C3([H])C(O[H])(C([H])([H])C([H])=C(C([H])([H])[H])C([H])([H])[H])C4(O[H])C([H])([H])C([H])(C1([H])C3(C([H])([H])[H])C([H])([H])[H])C24C([H])([H])[H]

$$$$
2:0:1
     RDKit          3D

 50 53  0  0  1  0  0  0  0  0999 V2000
    1.5301   -0.4871    4.9787 C   0  0  0  0  0  0  0  0  0  0  0  0
    2.2298   -0.1547    3.6749 C   0  0  0  0  0  0  0  0  0  0  0  0
    1.8523    1.1929    3.0947 C   0  0  0  0  0  0  0  0  0  0  0  0
    3.0997   -1.0357    3.1258 C   0  0  0  0  0  0  0  0  0  0  0  0
    3.8832   -0.9154    1.8180 C   0  0  0  0  0  0  0  0  0  0  0  0
    3.6073   -2.0313    0.7445 C   0  0  1  0  0  0  0  0  0  0  0  0
    2.2205   -2.2710    0.8764 O   0  0  0  0  0  0  0  0  0  0  0  0
    3.7901   -1.4270   -0.7117 C   0  0  1  0  0  0  0  0  0  0  0  0
    5.1430   -0.6942   -0.8038 C   0  0  0  0  0  0  0  0  0  0  0  0
    6.2054   -1.5652   -0.4801 O   0  0  0  0  0  0  0  0  0  0  0  0
    6.1529   -2.8883   -1.0092 C   0  0  2  0  0  0  0  0  0  0  0  0
    7.3683   -3.2611   -1.6227 O   0  0  0  0  0  0  0  0  0  0  0  0
    4.8717   -3.3903   -1.7457 C   0  0  1  0  0  0  0  0  0  0  0  0
    4.8016   -4.5482   -0.7402 C   0  0  2  0  0  0  0  0  0  0  0  0
    3.7981   -4.6848    0.3911 C   0  0  0  0  0  0  0  0  0  0  0  0
    4.3770   -3.3998    1.0082 C   0  0  2  0  0  0  0  0  0  0  0  0
    4.5567   -3.5350    2.3958 O   0  0  0  0  0  0  0  0  0  0  0  0
    5.6947   -3.7408    0.2093 C   0  0  2  0  0  0  0  0  0  0  0  0
    6.8145   -4.4577    0.9858 C   0  0  0  0  0  0  0  0  0  0  0  0
    3.7181   -2.4028   -1.9385 C   0  0  0  0  0  0  0  0  0  0  0  0
    2.3237   -3.0532   -2.1459 C   0  0  0  0  0  0  0  0  0  0  0  0
    3.9245   -1.6657   -3.2925 C   0  0  0  0  0  0  0  0  0  0  0  0
    1.7850    0.2482    5.7418 H   0  0  0  0  0  0  0  0  0  0  0  0
    1.8154   -1.4717    5.3499 H   0  0  0  0  0  0  0  0  0  0  0  0
    0.4482   -0.4802    4.8393 H   0  0  0  0  0  0  0  0  0  0  0  0
    2.0334    1.9734    3.8373 H   0  0  0  0  0  0  0  0  0  0  0  0
    0.7912    1.2053    2.8396 H   0  0  0  0  0  0  0  0  0  0  0  0
    2.4043    1.4718    2.1984 H   0  0  0  0  0  0  0  0  0  0  0  0
    3.2439   -1.9468    3.6745 H   0  0  0  0  0  0  0  0  0  0  0  0
    3.6524    0.0557    1.3920 H   0  0  0  0  0  0  0  0  0  0  0  0
    4.9484   -0.8976    2.0420 H   0  0  0  0  0  0  0  0  0  0  0  0
    1.7447   -1.6667    0.3071 H   0  0  0  0  0  0  0  0  0  0  0  0
    3.0164   -0.6691   -0.8646 H   0  0  0  0  0  0  0  0  0  0  0  0
    5.3285   -0.2668   -1.7809 H   0  0  0  0  0  0  0  0  0  0  0  0
    5.1874    0.1445   -0.1231 H   0  0  0  0  0  0  0  0  0  0  0  0
    7.2910   -3.0648   -2.5621 H   0  0  0  0  0  0  0  0  0  0  0  0
    5.1708   -3.8420   -2.6910 H   0  0  0  0  0  0  0  0  0  0  0  0
    5.2729   -5.4688   -1.0765 H   0  0  0  0  0  0  0  0  0  0  0  0
    2.7621   -4.6655    0.0863 H   0  0  0  0  0  0  0  0  0  0  0  0
    3.9871   -5.5794    0.9874 H   0  0  0  0  0  0  0  0  0  0  0  0
    4.8530   -4.4248    2.5350 H   0  0  0  0  0  0  0  0  0  0  0  0
    6.4413   -5.2470    1.6440 H   0  0  0  0  0  0  0  0  0  0  0  0
    7.3544   -3.7444    1.6107 H   0  0  0  0  0  0  0  0  0  0  0  0
    7.5585   -4.9214    0.3350 H   0  0  0  0  0  0  0  0  0  0  0  0
    2.3457   -3.8580   -2.8824 H   0  0  0  0  0  0  0  0  0  0  0  0
    1.6312   -2.3103   -2.5390 H   0  0  0  0  0  0  0  0  0  0  0  0
    1.8376   -3.4288   -1.2562 H   0  0  0  0  0  0  0  0  0  0  0  0
    3.5918   -2.2753   -4.1374 H   0  0  0  0  0  0  0  0  0  0  0  0
    4.9671   -1.4365   -3.5050 H   0  0  0  0  0  0  0  0  0  0  0  0
    3.3550   -0.7346   -3.3315 H   0  0  0  0  0  0  0  0  0  0  0  0
  1  2  1  0
  1 23  1  0
  1 24  1  0
  1 25  1  0
  2  3  1  0
  2  4  2  3
  3 26  1  0
  3 27  1  0
  3 28  1  0
  4  5  1  0
  4 29  1  0
  5  6  1  0
  5 30  1  0
  5 31  1  0
  6 16  1  0
  6  7  1  6
  6  8  1  0
  7 32  1  0
  8 20  1  0
  8  9  1  0
  8 33  1  6
  9 10  1  0
  9 34  1  0
  9 35  1  0
 10 11  1  0
 11 18  1  0
 11 12  1  6
 11 13  1  0
 12 36  1  0
 13 14  1  0
 13 20  1  0
 13 37  1  6
 14 18  1  0
 14 15  1  0
 14 38  1  6
 15 16  1  0
 15 39  1  0
 15 40  1  0
 16 17  1  1
 16 18  1  0
 17 41  1  0
 18 19  1  1
 19 42  1  0
 19 43  1  0
 19 44  1  0
 20 21  1  0
 20 22  1  0
 21 45  1  0
 21 46  1  0
 21 47  1  0
 22 48  1  0
 22 49  1  0
 22 50  1  0
M  END
>  <i_m_ct_stereo_status>  (17) 
1

>  <s_m_source_file>  (17) 
/var/tmp/pbs.5076255.sched01/tmpnv36izql/0kitkh5ys.sdf

>  <i_m_source_file_index>  (17) 
6

>  <i_lp_mmshare_version>  (17) 
48012

>  <i_f3d_flags>  (17) 
0

>  <s_epik_input>  (17) 
W0NIM11DKFtDSDNdKT1bQ0hdW0NIMl1bQ0BAXShbT0hdKShbQ0BASF0oW0NIMl1PMSlDMihbQ0gzXSlbQ0gzXSlbQ0BdKFtDSDJdMykoW09IXSlbQ0BAXTQoW0NIM10pW0NAQEhdM1tDQEBIXTJbQ0BAXTE0W09IXQ==

>  <s_epik_cmdline>  (17) 
J2VwaWtfcHl0aG9uJywgJy1waHQnLCAnMi4wJywgJy1waCcsICc3LjAnLCAnLXRuJywgJzgnLCAnLW1hJywgJzIwMCcsICctaW1hZScsICc8aW5maWxlLm1hZT4nLCAnLW9tYWUnLCAnPG91dGZpbGUubWFlPic=

>  <r_lp_tautomer_probability>  (17) 
1

>  <r_epik_Ionization_Penalty>  (17) 
2.53445e-07

>  <r_epik_Ionization_Penalty_Charging>  (17) 
0

>  <r_epik_Ionization_Penalty_Neutral>  (17) 
2.53445e-07

>  <r_epik_State_Penalty>  (17) 
-0

>  <r_epik_Charging_Adjusted_Penalty>  (17) 
0

>  <i_epik_Tot_Q>  (17) 
0

>  <i_epik_Tot_abs_Q>  (17) 
0

>  <s_lp_Force_Field>  (17) 
OPLS3e

>  <r_lp_Energy>  (17) 
70.1799

>  <b_lp_Chiralities_Consistent>  (17) 
1

>  <s_lp_Variant>  (17) 
2:0-1

>  <s_i_glide_gridfile>  (17) 
pfpi4k_grid

>  <i_i_glide_lignum>  (17) 
6

>  <i_i_glide_rotatable_bonds>  (17) 
5

>  <r_i_docking_score>  (17) 
-3.39623

>  <r_i_glide_ligand_efficiency>  (17) 
-0.154374

>  <r_i_glide_ligand_efficiency_sa>  (17) 
-0.432562

>  <r_i_glide_ligand_efficiency_ln>  (17) 
-0.830162

>  <r_i_glide_gscore>  (17) 
-3.39623

>  <r_i_glide_lipo>  (17) 
-0.444064

>  <r_i_glide_hbond>  (17) 
-0.0737049

>  <r_i_glide_metal>  (17) 
-0

>  <r_i_glide_rewards>  (17) 
-1.32543

>  <r_i_glide_evdw>  (17) 
-17.2992

>  <r_i_glide_ecoul>  (17) 
-6.40253

>  <r_i_glide_erotb>  (17) 
0.27231

>  <r_i_glide_esite>  (17) 
0

>  <r_i_glide_emodel>  (17) 
-26.6276

>  <r_i_glide_energy>  (17) 
-23.7017

>  <r_i_glide_einternal>  (17) 
5.20501

>  <r_i_glide_intrahb_reward>  (17) 
-0

>  <i_i_glide_confnum>  (17) 
2

>  <i_i_glide_posenum>  (17) 
25

>  <r_i_glide_eff_state_penalty>  (17) 
0

>  <ligand_id>  (17) 
2

>  <original_smiles>  (17) 
CC(C)=CCC1(O)C2COC3(O)C(C4CC1(O)C43C)C2(C)C

>  <smiles>  (17) 
[H]OC12OC([H])([H])C3([H])C(O[H])(C([H])([H])C([H])=C(C([H])([H])[H])C([H])([H])[H])C4(O[H])C([H])([H])C([H])(C1([H])C3(C([H])([H])[H])C([H])([H])[H])C24C([H])([H])[H]

$$$$
2:0:2
     RDKit          3D

 50 53  0  0  1  0  0  0  0  0999 V2000
    1.3131   -1.7419    5.1794 C   0  0  0  0  0  0  0  0  0  0  0  0
    1.9812   -1.1668    3.9467 C   0  0  0  0  0  0  0  0  0  0  0  0
    1.3841    0.1444    3.4766 C   0  0  0  0  0  0  0  0  0  0  0  0
    3.0100   -1.8219    3.3566 C   0  0  0  0  0  0  0  0  0  0  0  0
    3.7933   -1.4316    2.1035 C   0  0  0  0  0  0  0  0  0  0  0  0
    3.6097   -2.3665    0.8577 C   0  0  1  0  0  0  0  0  0  0  0  0
    2.2365   -2.6736    0.8713 O   0  0  0  0  0  0  0  0  0  0  0  0
    3.7912   -1.5237   -0.4700 C   0  0  1  0  0  0  0  0  0  0  0  0
    5.0991   -0.7198   -0.3968 C   0  0  0  0  0  0  0  0  0  0  0  0
    6.1943   -1.5795   -0.1757 O   0  0  0  0  0  0  0  0  0  0  0  0
    6.2383   -2.7915   -0.9296 C   0  0  2  0  0  0  0  0  0  0  0  0
    7.4942   -2.9622   -1.5547 O   0  0  0  0  0  0  0  0  0  0  0  0
    5.0029   -3.2263   -1.7870 C   0  0  1  0  0  0  0  0  0  0  0  0
    4.9574   -4.5306   -0.9792 C   0  0  2  0  0  0  0  0  0  0  0  0
    3.9552   -4.9052    0.0890 C   0  0  0  0  0  0  0  0  0  0  0  0
    4.4488   -3.7164    0.9215 C   0  0  2  0  0  0  0  0  0  0  0  0
    4.6075   -4.0768    2.2703 O   0  0  0  0  0  0  0  0  0  0  0  0
    5.8022   -3.8595    0.1119 C   0  0  2  0  0  0  0  0  0  0  0  0
    6.9468   -4.6308    0.7940 C   0  0  0  0  0  0  0  0  0  0  0  0
    3.7948   -2.2894   -1.8434 C   0  0  0  0  0  0  0  0  0  0  0  0
    2.4516   -2.9960   -2.1992 C   0  0  0  0  0  0  0  0  0  0  0  0
    3.9730   -1.3305   -3.0560 C   0  0  0  0  0  0  0  0  0  0  0  0
    1.4083   -1.0542    6.0198 H   0  0  0  0  0  0  0  0  0  0  0  0
    1.7586   -2.6939    5.4701 H   0  0  0  0  0  0  0  0  0  0  0  0
    0.2517   -1.9129    4.9889 H   0  0  0  0  0  0  0  0  0  0  0  0
    1.4007    0.8700    4.2942 H   0  0  0  0  0  0  0  0  0  0  0  0
    0.3458   -0.0038    3.1767 H   0  0  0  0  0  0  0  0  0  0  0  0
    1.9010    0.6001    2.6332 H   0  0  0  0  0  0  0  0  0  0  0  0
    3.3057   -2.7432    3.8233 H   0  0  0  0  0  0  0  0  0  0  0  0
    3.5121   -0.4159    1.8441 H   0  0  0  0  0  0  0  0  0  0  0  0
    4.8508   -1.3800    2.3536 H   0  0  0  0  0  0  0  0  0  0  0  0
    1.7670   -1.9228    0.5129 H   0  0  0  0  0  0  0  0  0  0  0  0
    3.0049   -0.7719   -0.5195 H   0  0  0  0  0  0  0  0  0  0  0  0
    5.2797   -0.1938   -1.3152 H   0  0  0  0  0  0  0  0  0  0  0  0
    5.0796    0.0560    0.3652 H   0  0  0  0  0  0  0  0  0  0  0  0
    7.3573   -3.4547   -2.3677 H   0  0  0  0  0  0  0  0  0  0  0  0
    5.3420   -3.4999   -2.7879 H   0  0  0  0  0  0  0  0  0  0  0  0
    5.4097   -5.3853   -1.4634 H   0  0  0  0  0  0  0  0  0  0  0  0
    2.9262   -4.9074   -0.2342 H   0  0  0  0  0  0  0  0  0  0  0  0
    4.1915   -5.8753    0.5245 H   0  0  0  0  0  0  0  0  0  0  0  0
    4.8314   -4.9963    2.2682 H   0  0  0  0  0  0  0  0  0  0  0  0
    6.6016   -5.5374    1.2956 H   0  0  0  0  0  0  0  0  0  0  0  0
    7.4259   -4.0014    1.5526 H   0  0  0  0  0  0  0  0  0  0  0  0
    7.7305   -4.9317    0.0942 H   0  0  0  0  0  0  0  0  0  0  0  0
    2.5465   -3.6926   -3.0377 H   0  0  0  0  0  0  0  0  0  0  0  0
    1.7140   -2.2575   -2.5031 H   0  0  0  0  0  0  0  0  0  0  0  0
    1.9673   -3.5322   -1.3932 H   0  0  0  0  0  0  0  0  0  0  0  0
    3.6946   -1.8087   -3.9991 H   0  0  0  0  0  0  0  0  0  0  0  0
    5.0057   -1.0102   -3.2016 H   0  0  0  0  0  0  0  0  0  0  0  0
    3.3504   -0.4390   -2.9575 H   0  0  0  0  0  0  0  0  0  0  0  0
  1  2  1  0
  1 23  1  0
  1 24  1  0
  1 25  1  0
  2  3  1  0
  2  4  2  3
  3 26  1  0
  3 27  1  0
  3 28  1  0
  4  5  1  0
  4 29  1  0
  5  6  1  0
  5 30  1  0
  5 31  1  0
  6 16  1  0
  6  7  1  6
  6  8  1  0
  7 32  1  0
  8 20  1  0
  8  9  1  0
  8 33  1  6
  9 10  1  0
  9 34  1  0
  9 35  1  0
 10 11  1  0
 11 18  1  0
 11 12  1  6
 11 13  1  0
 12 36  1  0
 13 14  1  0
 13 20  1  0
 13 37  1  6
 14 18  1  0
 14 15  1  0
 14 38  1  6
 15 16  1  0
 15 39  1  0
 15 40  1  0
 16 17  1  1
 16 18  1  0
 17 41  1  0
 18 19  1  1
 19 42  1  0
 19 43  1  0
 19 44  1  0
 20 21  1  0
 20 22  1  0
 21 45  1  0
 21 46  1  0
 21 47  1  0
 22 48  1  0
 22 49  1  0
 22 50  1  0
M  END
>  <i_m_ct_stereo_status>  (18) 
1

>  <s_m_source_file>  (18) 
/var/tmp/pbs.5076255.sched01/tmpnv36izql/0kitkh5ys.sdf

>  <i_m_source_file_index>  (18) 
6

>  <i_lp_mmshare_version>  (18) 
48012

>  <i_f3d_flags>  (18) 
0

>  <s_epik_input>  (18) 
W0NIM11DKFtDSDNdKT1bQ0hdW0NIMl1bQ0BAXShbT0hdKShbQ0BASF0oW0NIMl1PMSlDMihbQ0gzXSlbQ0gzXSlbQ0BdKFtDSDJdMykoW09IXSlbQ0BAXTQoW0NIM10pW0NAQEhdM1tDQEBIXTJbQ0BAXTE0W09IXQ==

>  <s_epik_cmdline>  (18) 
J2VwaWtfcHl0aG9uJywgJy1waHQnLCAnMi4wJywgJy1waCcsICc3LjAnLCAnLXRuJywgJzgnLCAnLW1hJywgJzIwMCcsICctaW1hZScsICc8aW5maWxlLm1hZT4nLCAnLW9tYWUnLCAnPG91dGZpbGUubWFlPic=

>  <r_lp_tautomer_probability>  (18) 
1

>  <r_epik_Ionization_Penalty>  (18) 
2.53445e-07

>  <r_epik_Ionization_Penalty_Charging>  (18) 
0

>  <r_epik_Ionization_Penalty_Neutral>  (18) 
2.53445e-07

>  <r_epik_State_Penalty>  (18) 
-0

>  <r_epik_Charging_Adjusted_Penalty>  (18) 
0

>  <i_epik_Tot_Q>  (18) 
0

>  <i_epik_Tot_abs_Q>  (18) 
0

>  <s_lp_Force_Field>  (18) 
OPLS3e

>  <r_lp_Energy>  (18) 
70.1799

>  <b_lp_Chiralities_Consistent>  (18) 
1

>  <s_lp_Variant>  (18) 
2:0-1

>  <s_i_glide_gridfile>  (18) 
pfpi4k_grid

>  <i_i_glide_lignum>  (18) 
6

>  <i_i_glide_rotatable_bonds>  (18) 
5

>  <r_i_docking_score>  (18) 
-2.94287

>  <r_i_glide_ligand_efficiency>  (18) 
-0.133767

>  <r_i_glide_ligand_efficiency_sa>  (18) 
-0.374819

>  <r_i_glide_ligand_efficiency_ln>  (18) 
-0.719344

>  <r_i_glide_gscore>  (18) 
-2.94287

>  <r_i_glide_lipo>  (18) 
-0.31849

>  <r_i_glide_hbond>  (18) 
-0.0162662

>  <r_i_glide_metal>  (18) 
-0

>  <r_i_glide_rewards>  (18) 
-1.30628

>  <r_i_glide_evdw>  (18) 
-18.3041

>  <r_i_glide_ecoul>  (18) 
-4.36873

>  <r_i_glide_erotb>  (18) 
0.27231

>  <r_i_glide_esite>  (18) 
-0.00362898

>  <r_i_glide_emodel>  (18) 
-24.8135

>  <r_i_glide_energy>  (18) 
-22.6728

>  <r_i_glide_einternal>  (18) 
5.55713

>  <r_i_glide_intrahb_reward>  (18) 
-0

>  <i_i_glide_confnum>  (18) 
2

>  <i_i_glide_posenum>  (18) 
8

>  <r_i_glide_eff_state_penalty>  (18) 
0

>  <ligand_id>  (18) 
2

>  <original_smiles>  (18) 
CC(C)=CCC1(O)C2COC3(O)C(C4CC1(O)C43C)C2(C)C

>  <smiles>  (18) 
[H]OC12OC([H])([H])C3([H])C(O[H])(C([H])([H])C([H])=C(C([H])([H])[H])C([H])([H])[H])C4(O[H])C([H])([H])C([H])(C1([H])C3(C([H])([H])[H])C([H])([H])[H])C24C([H])([H])[H]

$$$$
3:0:0
     RDKit          3D

 47 51  0  0  1  0  0  0  0  0999 V2000
    5.7484   -5.9759    1.6094 C   0  0  0  0  0  0  0  0  0  0  0  0
    5.9854   -4.7071    0.7818 C   0  0  0  0  0  0  0  0  0  0  0  0
    7.5032   -4.3736    0.7070 C   0  0  0  0  0  0  0  0  0  0  0  0
    5.4547   -4.9814   -0.4883 O   0  0  0  0  0  0  0  0  0  0  0  0
    5.3000   -3.9604   -1.3540 C   0  0  0  0  0  0  0  0  0  0  0  0
    5.3378   -4.1500   -2.5764 O   0  0  0  0  0  0  0  0  0  0  0  0
    4.9401   -2.5848   -0.7652 C   0  0  1  0  0  0  0  0  0  0  0  0
    5.6928   -1.5308   -1.6044 C   0  0  0  0  0  0  0  0  0  0  0  0
    4.6516   -0.5587   -2.1119 C   0  0  0  0  0  0  0  0  0  0  0  0
    3.3164   -1.2320   -2.0826 C   0  0  1  0  0  0  0  0  0  0  0  0
    3.0091   -1.9535   -3.3868 C   0  0  0  0  0  0  0  0  0  0  0  0
    2.4021   -3.2756   -2.9610 C   0  0  0  0  0  0  0  0  0  0  0  0
    2.4355   -3.3378   -1.4150 C   0  0  0  0  0  0  0  0  0  0  0  0
    3.4066   -2.2387   -0.9162 C   0  0  1  0  0  0  0  0  0  0  0  0
    3.0211   -1.6869    0.4798 C   0  0  1  0  0  0  0  0  0  0  0  0
    2.4234   -2.6494    1.5244 C   0  0  0  0  0  0  0  0  0  0  0  0
    3.3930   -2.0850    2.5439 C   0  0  0  0  0  0  0  0  0  0  0  0
    4.2548   -1.5499    1.3801 C   0  0  2  0  0  0  0  0  0  0  0  0
    4.7981   -0.1384    1.6059 C   0  0  0  0  0  0  0  0  0  0  0  0
    5.3272   -2.4319    0.7465 C   0  0  1  0  0  0  0  0  0  0  0  0
    5.3063   -3.6777    1.4264 O   0  0  0  0  0  0  0  0  0  0  0  0
    4.6922   -6.2202    1.6403 H   0  0  0  0  0  0  0  0  0  0  0  0
    6.1089   -5.8337    2.6267 H   0  0  0  0  0  0  0  0  0  0  0  0
    6.2905   -6.8061    1.1655 H   0  0  0  0  0  0  0  0  0  0  0  0
    7.7211   -3.5483    0.0367 H   0  0  0  0  0  0  0  0  0  0  0  0
    8.0536   -5.2512    0.3774 H   0  0  0  0  0  0  0  0  0  0  0  0
    7.8605   -4.1113    1.7006 H   0  0  0  0  0  0  0  0  0  0  0  0
    6.4246   -1.0210   -0.9893 H   0  0  0  0  0  0  0  0  0  0  0  0
    6.2419   -1.9356   -2.4455 H   0  0  0  0  0  0  0  0  0  0  0  0
    4.5619    0.1367   -1.3080 H   0  0  0  0  0  0  0  0  0  0  0  0
    4.8714   -0.0724   -3.0684 H   0  0  0  0  0  0  0  0  0  0  0  0
    2.5203   -0.5102   -1.9546 H   0  0  0  0  0  0  0  0  0  0  0  0
    2.2988   -1.3624   -3.9653 H   0  0  0  0  0  0  0  0  0  0  0  0
    3.8977   -2.1063   -4.0022 H   0  0  0  0  0  0  0  0  0  0  0  0
    1.3798   -3.3205   -3.3140 H   0  0  0  0  0  0  0  0  0  0  0  0
    2.9678   -4.0719   -3.4421 H   0  0  0  0  0  0  0  0  0  0  0  0
    1.4350   -3.0926   -1.0655 H   0  0  0  0  0  0  0  0  0  0  0  0
    2.6591   -4.3399   -1.0397 H   0  0  0  0  0  0  0  0  0  0  0  0
    2.4686   -0.7413    0.4730 H   0  0  0  0  0  0  0  0  0  0  0  0
    1.3893   -2.4299    1.7671 H   0  0  0  0  0  0  0  0  0  0  0  0
    2.6004   -3.7063    1.3197 H   0  0  0  0  0  0  0  0  0  0  0  0
    2.9294   -1.2823    3.1231 H   0  0  0  0  0  0  0  0  0  0  0  0
    3.8665   -2.8215    3.1937 H   0  0  0  0  0  0  0  0  0  0  0  0
    5.5321   -0.1305    2.4118 H   0  0  0  0  0  0  0  0  0  0  0  0
    3.9906    0.5463    1.8845 H   0  0  0  0  0  0  0  0  0  0  0  0
    5.2742    0.2699    0.7164 H   0  0  0  0  0  0  0  0  0  0  0  0
    6.3120   -1.9867    0.8829 H   0  0  0  0  0  0  0  0  0  0  0  0
  1  2  1  0
  1 22  1  0
  1 23  1  0
  1 24  1  0
  2 21  1  0
  2  3  1  0
  2  4  1  0
  3 25  1  0
  3 26  1  0
  3 27  1  0
  4  5  1  0
  5  6  2  0
  5  7  1  0
  7 14  1  0
  7 20  1  0
  7  8  1  6
  8  9  1  0
  8 28  1  0
  8 29  1  0
  9 10  1  0
  9 30  1  0
  9 31  1  0
 10 14  1  0
 10 11  1  0
 10 32  1  1
 11 12  1  0
 11 33  1  0
 11 34  1  0
 12 13  1  0
 12 35  1  0
 12 36  1  0
 14 13  1  6
 13 37  1  0
 13 38  1  0
 14 15  1  0
 15 18  1  0
 15 16  1  0
 15 39  1  6
 16 17  1  0
 16 40  1  0
 16 41  1  0
 17 18  1  0
 17 42  1  0
 17 43  1  0
 18 19  1  1
 18 20  1  0
 19 44  1  0
 19 45  1  0
 19 46  1  0
 20 21  1  0
 20 47  1  6
M  END
>  <i_m_ct_stereo_status>  (19) 
1

>  <s_m_source_file>  (19) 
/var/tmp/pbs.5076255.sched01/tmpnv36izql/0kitkh5ys.sdf

>  <i_m_source_file_index>  (19) 
7

>  <i_lp_mmshare_version>  (19) 
48012

>  <i_f3d_flags>  (19) 
0

>  <s_epik_input>  (19) 
Tz1DMU9DKFtDSDNdKShbQ0gzXSlPW0NAQEhdMltDQF0oW0NIM10pKFtDSDJdW0NIMl0zKVtDQEhdM1tDQF00KFtDQF0xMjUpW0NAQEhdKFtDSDJdW0NIMl01KVtDSDJdW0NIMl1bQ0gyXTQ=

>  <s_epik_cmdline>  (19) 
J2VwaWtfcHl0aG9uJywgJy1waHQnLCAnMi4wJywgJy1waCcsICc3LjAnLCAnLXRuJywgJzgnLCAnLW1hJywgJzIwMCcsICctaW1hZScsICc8aW5maWxlLm1hZT4nLCAnLW9tYWUnLCAnPG91dGZpbGUubWFlPic=

>  <r_lp_tautomer_probability>  (19) 
1

>  <r_epik_Ionization_Penalty>  (19) 
3.47314e-14

>  <r_epik_Ionization_Penalty_Charging>  (19) 
0

>  <r_epik_Ionization_Penalty_Neutral>  (19) 
3.47314e-14

>  <r_epik_State_Penalty>  (19) 
-0

>  <r_epik_Charging_Adjusted_Penalty>  (19) 
0

>  <i_epik_Tot_Q>  (19) 
0

>  <i_epik_Tot_abs_Q>  (19) 
0

>  <s_epik_Chemistry_Notes>  (19) 
This compound has an ester and may undergo hydrolysis at high or low pH.

>  <s_lp_Force_Field>  (19) 
OPLS3e

>  <r_lp_Energy>  (19) 
47.6436

>  <b_lp_Chiralities_Consistent>  (19) 
1

>  <s_lp_Variant>  (19) 
3:0-1

>  <s_i_glide_gridfile>  (19) 
pfpi4k_grid

>  <i_i_glide_lignum>  (19) 
7

>  <i_i_glide_rotatable_bonds>  (19) 
0

>  <r_i_docking_score>  (19) 
-2.92925

>  <r_i_glide_ligand_efficiency>  (19) 
-0.139488

>  <r_i_glide_ligand_efficiency_sa>  (19) 
-0.384837

>  <r_i_glide_ligand_efficiency_ln>  (19) 
-0.724252

>  <r_i_glide_gscore>  (19) 
-2.92925

>  <r_i_glide_lipo>  (19) 
-0.784577

>  <r_i_glide_hbond>  (19) 
0

>  <r_i_glide_metal>  (19) 
-0

>  <r_i_glide_rewards>  (19) 
-1.55962

>  <r_i_glide_evdw>  (19) 
-13.544

>  <r_i_glide_ecoul>  (19) 
0.614258

>  <r_i_glide_erotb>  (19) 
0

>  <r_i_glide_esite>  (19) 
0

>  <r_i_glide_emodel>  (19) 
-12.7113

>  <r_i_glide_energy>  (19) 
-12.9297

>  <r_i_glide_einternal>  (19) 
0

>  <r_i_glide_intrahb_reward>  (19) 
-0

>  <i_i_glide_confnum>  (19) 
2

>  <i_i_glide_posenum>  (19) 
15

>  <r_i_glide_eff_state_penalty>  (19) 
0

>  <ligand_id>  (19) 
3

>  <original_smiles>  (19) 
CC1(C)OC(=O)C23CCC4CCCC42C2CCC2(C)C3O1

>  <smiles>  (19) 
[H]C([H])([H])C1(C([H])([H])[H])OC(=O)C23C([H])([H])C([H])([H])C4([H])C([H])([H])C([H])([H])C([H])([H])C42C2([H])C([H])([H])C([H])([H])C2(C([H])([H])[H])C3([H])O1

$$$$
4:0:0
     RDKit          3D

 89 95  0  0  1  0  0  0  0  0999 V2000
    1.0155  -11.3600    3.8904 C   0  0  0  0  0  0  0  0  0  0  0  0
    1.2159  -10.0942    4.7539 C   0  0  2  0  0  0  0  0  0  0  0  0
    1.2994   -8.8123    3.9225 C   0  0  0  0  0  0  0  0  0  0  0  0
    2.7199   -8.3224    3.4943 C   0  0  2  0  0  0  0  0  0  0  0  0
    3.5014   -9.4978    3.1676 O   0  0  0  0  0  0  0  0  0  0  0  0
    4.0894  -10.2748    4.1468 C   0  0  0  0  0  0  0  0  0  0  0  0
    4.7594  -11.2864    3.8878 O   0  0  0  0  0  0  0  0  0  0  0  0
    3.7868   -9.8417    5.6028 C   0  0  1  0  0  0  0  0  0  0  0  0
    4.7317  -10.6005    6.6066 C   0  0  1  0  0  0  0  0  0  0  0  0
    6.0849  -10.6520    6.1923 O   0  0  0  0  0  0  0  0  0  0  0  0
    4.7411   -9.9965    8.0290 C   0  0  0  0  0  0  0  0  0  0  0  0
    4.9568   -8.4589    8.1173 C   0  0  0  0  0  0  0  0  0  0  0  0
    4.6455   -7.9915    9.5530 C   0  0  0  0  0  0  0  0  0  0  0  0
    6.4243   -8.0666    7.8359 C   0  0  0  0  0  0  0  0  0  0  0  0
    3.9927   -7.7445    7.1268 C   0  0  0  0  0  0  0  0  0  0  0  0
    4.0673   -8.3245    5.7022 C   0  0  2  0  0  0  0  0  0  0  0  0
    3.3077   -7.5453    4.6506 C   0  0  0  0  0  0  0  0  0  0  0  0
    3.3110   -6.2275    4.4451 C   0  0  0  0  0  0  0  0  0  0  0  0
    2.7654   -5.8055    3.0943 C   0  0  1  0  0  0  0  0  0  0  0  0
    1.3348   -5.2899    3.3687 C   0  0  0  0  0  0  0  0  0  0  0  0
    3.6889   -4.6625    2.4509 C   0  0  2  0  0  0  0  0  0  0  0  0
    3.1267   -3.1985    2.4231 C   0  0  1  0  0  0  0  0  0  0  0  0
    3.3601   -2.5116    3.6341 O   0  0  0  0  0  0  0  0  0  0  0  0
    3.7088   -2.5056    1.1715 C   0  0  1  0  0  0  0  0  0  0  0  0
    5.0408   -1.7485    1.4052 C   0  0  1  0  0  0  0  0  0  0  0  0
    5.9308   -2.4649    2.2241 O   0  0  0  0  0  0  0  0  0  0  0  0
    5.7539   -1.4185    0.0836 C   0  0  1  0  0  0  0  0  0  0  0  0
    7.0439   -0.9538    0.3428 O   0  0  0  0  0  0  0  0  0  0  0  0
    5.9929   -2.6367   -0.7816 C   0  0  0  0  0  0  0  0  0  0  0  0
    4.6621   -3.2606   -1.1107 C   0  0  1  0  0  0  0  0  0  0  0  0
    5.0014   -4.3343   -1.9419 O   0  0  0  0  0  0  0  0  0  0  0  0
    3.8099   -3.6515    0.1296 C   0  0  2  0  0  0  0  0  0  0  0  0
    2.3984   -3.9031   -0.4174 C   0  0  0  0  0  0  0  0  0  0  0  0
    4.3057   -4.8454    1.0200 C   0  0  2  0  0  0  0  0  0  0  0  0
    4.2139   -6.2595    0.4357 C   0  0  0  0  0  0  0  0  0  0  0  0
    4.0753   -7.3519    1.4962 C   0  0  1  0  0  0  0  0  0  0  0  0
    5.2896   -7.3543    2.2337 O   0  0  0  0  0  0  0  0  0  0  0  0
    2.7710   -7.2089    2.3521 C   0  0  1  0  0  0  0  0  0  0  0  0
    1.5712   -7.3635    1.3754 C   0  0  0  0  0  0  0  0  0  0  0  0
    2.3032  -10.2623    5.8566 C   0  0  1  0  0  0  0  0  0  0  0  0
    1.7471   -9.8502    7.0764 O   0  0  0  0  0  0  0  0  0  0  0  0
    1.8508  -11.5954    3.2322 H   0  0  0  0  0  0  0  0  0  0  0  0
    0.1438  -11.2205    3.2545 H   0  0  0  0  0  0  0  0  0  0  0  0
    0.8121  -12.2386    4.5081 H   0  0  0  0  0  0  0  0  0  0  0  0
    0.2629  -10.0372    5.2827 H   0  0  0  0  0  0  0  0  0  0  0  0
    0.6647   -8.9983    3.0619 H   0  0  0  0  0  0  0  0  0  0  0  0
    0.8162   -8.0340    4.5032 H   0  0  0  0  0  0  0  0  0  0  0  0
    4.4099  -11.6406    6.6937 H   0  0  0  0  0  0  0  0  0  0  0  0
    6.0958  -11.1119    5.3555 H   0  0  0  0  0  0  0  0  0  0  0  0
    3.7878  -10.2345    8.5051 H   0  0  0  0  0  0  0  0  0  0  0  0
    5.4912  -10.5136    8.6408 H   0  0  0  0  0  0  0  0  0  0  0  0
    4.7701   -6.9146    9.6490 H   0  0  0  0  0  0  0  0  0  0  0  0
    5.3065   -8.4675   10.2760 H   0  0  0  0  0  0  0  0  0  0  0  0
    3.6222   -8.2306    9.8328 H   0  0  0  0  0  0  0  0  0  0  0  0
    6.5772   -6.9951    7.9518 H   0  0  0  0  0  0  0  0  0  0  0  0
    6.7374   -8.3177    6.8261 H   0  0  0  0  0  0  0  0  0  0  0  0
    7.1062   -8.5778    8.5125 H   0  0  0  0  0  0  0  0  0  0  0  0
    2.9680   -7.7795    7.5112 H   0  0  0  0  0  0  0  0  0  0  0  0
    4.2429   -6.6832    7.1178 H   0  0  0  0  0  0  0  0  0  0  0  0
    5.0919   -8.1898    5.3665 H   0  0  0  0  0  0  0  0  0  0  0  0
    3.7898   -5.5303    5.1092 H   0  0  0  0  0  0  0  0  0  0  0  0
    0.8296   -4.9947    2.4534 H   0  0  0  0  0  0  0  0  0  0  0  0
    1.3354   -4.4323    4.0452 H   0  0  0  0  0  0  0  0  0  0  0  0
    0.7021   -6.0382    3.8396 H   0  0  0  0  0  0  0  0  0  0  0  0
    4.5824   -4.6371    3.0814 H   0  0  0  0  0  0  0  0  0  0  0  0
    2.0489   -3.1795    2.2652 H   0  0  0  0  0  0  0  0  0  0  0  0
    4.3073   -2.4167    3.7356 H   0  0  0  0  0  0  0  0  0  0  0  0
    3.0099   -1.7461    0.8329 H   0  0  0  0  0  0  0  0  0  0  0  0
    4.8310   -0.8140    1.9314 H   0  0  0  0  0  0  0  0  0  0  0  0
    6.2133   -3.2395    1.7443 H   0  0  0  0  0  0  0  0  0  0  0  0
    5.1602   -0.6868   -0.4726 H   0  0  0  0  0  0  0  0  0  0  0  0
    7.1475   -0.9127    1.2939 H   0  0  0  0  0  0  0  0  0  0  0  0
    6.4858   -2.3391   -1.7031 H   0  0  0  0  0  0  0  0  0  0  0  0
    6.6615   -3.3445   -0.2904 H   0  0  0  0  0  0  0  0  0  0  0  0
    4.0943   -2.5438   -1.7115 H   0  0  0  0  0  0  0  0  0  0  0  0
    4.2119   -4.8148   -2.1585 H   0  0  0  0  0  0  0  0  0  0  0  0
    2.3464   -4.6467   -1.2064 H   0  0  0  0  0  0  0  0  0  0  0  0
    1.9434   -2.9944   -0.8214 H   0  0  0  0  0  0  0  0  0  0  0  0
    1.8012   -4.2987    0.3867 H   0  0  0  0  0  0  0  0  0  0  0  0
    5.3824   -4.7004    1.1333 H   0  0  0  0  0  0  0  0  0  0  0  0
    3.4321   -6.3306   -0.3082 H   0  0  0  0  0  0  0  0  0  0  0  0
    5.1255   -6.4551   -0.1224 H   0  0  0  0  0  0  0  0  0  0  0  0
    4.0562   -8.3151    0.9782 H   0  0  0  0  0  0  0  0  0  0  0  0
    5.3164   -6.5787    2.7842 H   0  0  0  0  0  0  0  0  0  0  0  0
    1.5614   -6.6173    0.5855 H   0  0  0  0  0  0  0  0  0  0  0  0
    0.5948   -7.2884    1.8455 H   0  0  0  0  0  0  0  0  0  0  0  0
    1.6216   -8.3523    0.9155 H   0  0  0  0  0  0  0  0  0  0  0  0
    2.3637  -11.3378    5.9915 H   0  0  0  0  0  0  0  0  0  0  0  0
    1.4273  -10.6528    7.4899 H   0  0  0  0  0  0  0  0  0  0  0  0
  1  2  1  0
  1 42  1  0
  1 43  1  0
  1 44  1  0
  2 40  1  0
  2  3  1  0
  2 45  1  1
  3  4  1  0
  3 46  1  0
  3 47  1  0
  4 17  1  0
  4 38  1  0
  4  5  1  6
  5  6  1  0
  6  7  2  0
  8  6  1  6
  8 16  1  0
  8  9  1  0
  8 40  1  0
  9 10  1  0
  9 11  1  0
  9 48  1  1
 10 49  1  0
 11 12  1  0
 11 50  1  0
 11 51  1  0
 12 13  1  0
 12 14  1  0
 12 15  1  0
 13 52  1  0
 13 53  1  0
 13 54  1  0
 14 55  1  0
 14 56  1  0
 14 57  1  0
 15 16  1  0
 15 58  1  0
 15 59  1  0
 16 17  1  0
 16 60  1  6
 17 18  2  0
 18 19  1  0
 18 61  1  0
 19 38  1  0
 19 20  1  1
 19 21  1  0
 20 62  1  0
 20 63  1  0
 20 64  1  0
 21 34  1  0
 21 22  1  0
 21 65  1  1
 22 23  1  0
 22 24  1  0
 22 66  1  6
 23 67  1  0
 24 32  1  0
 24 25  1  0
 24 68  1  6
 25 26  1  0
 25 27  1  0
 25 69  1  1
 26 70  1  0
 27 28  1  0
 27 29  1  0
 27 71  1  6
 28 72  1  0
 29 30  1  0
 29 73  1  0
 29 74  1  0
 30 31  1  0
 30 32  1  0
 30 75  1  6
 31 76  1  0
 32 33  1  6
 32 34  1  0
 33 77  1  0
 33 78  1  0
 33 79  1  0
 34 35  1  0
 34 80  1  1
 35 36  1  0
 35 81  1  0
 35 82  1  0
 36 37  1  0
 36 38  1  0
 36 83  1  6
 37 84  1  0
 38 39  1  6
 39 85  1  0
 39 86  1  0
 39 87  1  0
 40 41  1  0
 40 88  1  1
 41 89  1  0
M  END
>  <i_m_ct_stereo_status>  (20) 
1

>  <s_m_source_file>  (20) 
/var/tmp/pbs.5076255.sched01/tmpnv36izql/0kitkh5ys.sdf

>  <i_m_source_file_index>  (20) 
8

>  <i_lp_mmshare_version>  (20) 
48012

>  <i_f3d_flags>  (20) 
0

>  <s_epik_input>  (20) 
W0NIM11DKFtDSDNdKShbQ0gyXTEpW0NIMl1bQ0BIXShbT0hdKVtDQEBdKEMoTzIpPU8pKFtDQEBIXShbT0hdKVtDQEhdKFtDSDNdKVtDSDJdMylbQ0BIXTFDKFtDQEBdMjM0KT1bQ0hdW0NAQF01KFtDSDNdKVtDQEhdNltDQEBIXShbQ0gyXVtDQEBIXShbT0hdKVtDQEBdNDVbQ0gzXSlbQ0BAXTcoW0NIM10pW0NAQEhdKFtDQEBIXTZbT0hdKVtDQEBIXShbT0hdKVtDQEBIXShbT0hdKVtDSDJdW0NASF03W09IXQ==

>  <s_epik_cmdline>  (20) 
J2VwaWtfcHl0aG9uJywgJy1waHQnLCAnMi4wJywgJy1waCcsICc3LjAnLCAnLXRuJywgJzgnLCAnLW1hJywgJzIwMCcsICctaW1hZScsICc8aW5maWxlLm1hZT4nLCAnLW9tYWUnLCAnPG91dGZpbGUubWFlPic=

>  <r_lp_tautomer_probability>  (20) 
1

>  <r_epik_Ionization_Penalty>  (20) 
1.53879e-06

>  <r_epik_Ionization_Penalty_Charging>  (20) 
0

>  <r_epik_Ionization_Penalty_Neutral>  (20) 
1.53879e-06

>  <r_epik_State_Penalty>  (20) 
-0

>  <r_epik_Charging_Adjusted_Penalty>  (20) 
0

>  <i_epik_Tot_Q>  (20) 
0

>  <i_epik_Tot_abs_Q>  (20) 
0

>  <s_epik_Chemistry_Notes>  (20) 
This compound has an ester and may undergo hydrolysis at high or low pH.

>  <s_lp_Force_Field>  (20) 
OPLS3e

>  <r_lp_Energy>  (20) 
90.9073

>  <b_lp_Chiralities_Consistent>  (20) 
1

>  <s_lp_Variant>  (20) 
4:0-1

>  <s_i_glide_gridfile>  (20) 
pfpi4k_grid

>  <i_i_glide_lignum>  (20) 
8

>  <i_i_glide_rotatable_bonds>  (20) 
7

>  <r_i_docking_score>  (20) 
-4.42938

>  <r_i_glide_ligand_efficiency>  (20) 
-0.108034

>  <r_i_glide_ligand_efficiency_sa>  (20) 
-0.372523

>  <r_i_glide_ligand_efficiency_ln>  (20) 
-0.939707

>  <r_i_glide_gscore>  (20) 
-4.42938

>  <r_i_glide_lipo>  (20) 
-0.526236

>  <r_i_glide_hbond>  (20) 
-0.455649

>  <r_i_glide_metal>  (20) 
-0

>  <r_i_glide_rewards>  (20) 
-0.5

>  <r_i_glide_evdw>  (20) 
-25.4473

>  <r_i_glide_ecoul>  (20) 
-11.1077

>  <r_i_glide_erotb>  (20) 
0

>  <r_i_glide_esite>  (20) 
-0.00896753

>  <r_i_glide_emodel>  (20) 
-51.2102

>  <r_i_glide_energy>  (20) 
-36.555

>  <r_i_glide_einternal>  (20) 
3.13491

>  <r_i_glide_intrahb_reward>  (20) 
-0.5

>  <i_i_glide_confnum>  (20) 
1

>  <i_i_glide_posenum>  (20) 
19

>  <r_i_glide_eff_state_penalty>  (20) 
0

>  <ligand_id>  (20) 
4

>  <original_smiles>  (20) 
CC1CC23OC(=O)C4(C(O)CC(C)(C)CC4C2=CC2(C)C4C(O)C5C(O)C(O)CC(O)C5(C)C4CC(O)C32C)C1O

>  <smiles>  (20) 
[H]OC1([H])C([H])([H])C([H])(O[H])C2(C([H])([H])[H])C([H])(C1([H])O[H])C([H])(O[H])C1([H])C2([H])C([H])([H])C([H])(O[H])C2(C([H])([H])[H])C34OC(=O)C5(C([H])(O[H])C([H])([H])C(C([H])([H])[H])(C([H])([H])[H])C([H])([H])C5([H])C3=C([H])C12C([H])([H])[H])C([H])(O[H])C([H])(C([H])([H])[H])C4([H])[H]

$$$$
4:0:1
     RDKit          3D

 89 95  0  0  1  0  0  0  0  0999 V2000
    1.6233  -11.4425    3.9857 C   0  0  0  0  0  0  0  0  0  0  0  0
    1.7733  -10.1665    4.8499 C   0  0  2  0  0  0  0  0  0  0  0  0
    1.7438   -8.8784    3.9977 C   0  0  0  0  0  0  0  0  0  0  0  0
    3.0954   -8.2755    3.5163 C   0  0  2  0  0  0  0  0  0  0  0  0
    3.9506   -9.3824    3.1848 O   0  0  0  0  0  0  0  0  0  0  0  0
    4.6331  -10.1041    4.1157 C   0  0  0  0  0  0  0  0  0  0  0  0
    5.3724  -11.0560    3.8651 O   0  0  0  0  0  0  0  0  0  0  0  0
    4.3399   -9.7057    5.5784 C   0  0  1  0  0  0  0  0  0  0  0  0
    5.3834  -10.3577    6.5714 C   0  0  1  0  0  0  0  0  0  0  0  0
    6.7229  -10.3054    6.1175 O   0  0  0  0  0  0  0  0  0  0  0  0
    5.3879   -9.7370    7.9940 C   0  0  0  0  0  0  0  0  0  0  0  0
    5.4679   -8.1886    8.0647 C   0  0  0  0  0  0  0  0  0  0  0  0
    5.1736   -7.7292    9.5047 C   0  0  0  0  0  0  0  0  0  0  0  0
    6.8921   -7.6745    7.7277 C   0  0  0  0  0  0  0  0  0  0  0  0
    4.4208   -7.5665    7.1054 C   0  0  0  0  0  0  0  0  0  0  0  0
    4.4892   -8.1600    5.6763 C   0  0  2  0  0  0  0  0  0  0  0  0
    3.6326   -7.4503    4.6482 C   0  0  0  0  0  0  0  0  0  0  0  0
    3.5318   -6.1403    4.4312 C   0  0  0  0  0  0  0  0  0  0  0  0
    2.9080   -5.7679    3.0924 C   0  0  1  0  0  0  0  0  0  0  0  0
    1.4422   -5.3699    3.3982 C   0  0  0  0  0  0  0  0  0  0  0  0
    3.7114   -4.5563    2.4102 C   0  0  2  0  0  0  0  0  0  0  0  0
    3.0298   -3.1487    2.3881 C   0  0  1  0  0  0  0  0  0  0  0  0
    3.2440   -2.4353    3.5883 O   0  0  0  0  0  0  0  0  0  0  0  0
    3.5314   -2.4224    1.1209 C   0  0  1  0  0  0  0  0  0  0  0  0
    4.8025   -1.5506    1.3105 C   0  0  1  0  0  0  0  0  0  0  0  0
    5.8147   -2.1570    2.0922 O   0  0  0  0  0  0  0  0  0  0  0  0
    5.3834   -1.1594   -0.0515 C   0  0  1  0  0  0  0  0  0  0  0  0
    6.6056   -0.4990    0.1332 O   0  0  0  0  0  0  0  0  0  0  0  0
    5.7332   -2.3650   -0.9114 C   0  0  0  0  0  0  0  0  0  0  0  0
    4.4494   -3.1191   -1.1884 C   0  0  1  0  0  0  0  0  0  0  0  0
    4.8011   -4.1852   -2.0240 O   0  0  0  0  0  0  0  0  0  0  0  0
    3.6739   -3.5725    0.0812 C   0  0  2  0  0  0  0  0  0  0  0  0
    2.2646   -3.9305   -0.4136 C   0  0  0  0  0  0  0  0  0  0  0  0
    4.2965   -4.7076    0.9636 C   0  0  2  0  0  0  0  0  0  0  0  0
    4.3097   -6.1345    0.3868 C   0  0  0  0  0  0  0  0  0  0  0  0
    4.3019   -7.2223    1.4645 C   0  0  1  0  0  0  0  0  0  0  0  0
    5.5286   -7.0927    2.1748 O   0  0  0  0  0  0  0  0  0  0  0  0
    3.0116   -7.1764    2.3548 C   0  0  1  0  0  0  0  0  0  0  0  0
    1.8004   -7.4390    1.4075 C   0  0  0  0  0  0  0  0  0  0  0  0
    2.9063  -10.2688    5.9147 C   0  0  1  0  0  0  0  0  0  0  0  0
    2.3448   -9.8489    7.1464 O   0  0  0  0  0  0  0  0  0  0  0  0
    2.4545  -11.6050    3.2986 H   0  0  0  0  0  0  0  0  0  0  0  0
    0.7084  -11.4061    3.3857 H   0  0  0  0  0  0  0  0  0  0  0  0
    1.5373  -12.3264    4.6188 H   0  0  0  0  0  0  0  0  0  0  0  0
    0.8292  -10.1728    5.4003 H   0  0  0  0  0  0  0  0  0  0  0  0
    1.0951   -9.1254    3.1588 H   0  0  0  0  0  0  0  0  0  0  0  0
    1.2015   -8.1380    4.5857 H   0  0  0  0  0  0  0  0  0  0  0  0
    5.1549  -11.4168    6.6916 H   0  0  0  0  0  0  0  0  0  0  0  0
    6.7507  -10.7855    5.2973 H   0  0  0  0  0  0  0  0  0  0  0  0
    4.4729  -10.0341    8.4998 H   0  0  0  0  0  0  0  0  0  0  0  0
    6.1926  -10.1792    8.5925 H   0  0  0  0  0  0  0  0  0  0  0  0
    5.2071   -6.6420    9.5966 H   0  0  0  0  0  0  0  0  0  0  0  0
    5.8903   -8.1440   10.2148 H   0  0  0  0  0  0  0  0  0  0  0  0
    4.1856   -8.0493    9.8140 H   0  0  0  0  0  0  0  0  0  0  0  0
    6.9722   -6.5865    7.8247 H   0  0  0  0  0  0  0  0  0  0  0  0
    7.2036   -7.9094    6.7071 H   0  0  0  0  0  0  0  0  0  0  0  0
    7.6492   -8.1163    8.3837 H   0  0  0  0  0  0  0  0  0  0  0  0
    3.4221   -7.6864    7.5237 H   0  0  0  0  0  0  0  0  0  0  0  0
    4.5756   -6.4864    7.0789 H   0  0  0  0  0  0  0  0  0  0  0  0
    5.4955   -7.9397    5.3181 H   0  0  0  0  0  0  0  0  0  0  0  0
    3.9604   -5.3770    5.0685 H   0  0  0  0  0  0  0  0  0  0  0  0
    0.8872   -5.1205    2.4928 H   0  0  0  0  0  0  0  0  0  0  0  0
    1.3967   -4.5148    4.0710 H   0  0  0  0  0  0  0  0  0  0  0  0
    0.8889   -6.1621    3.8943 H   0  0  0  0  0  0  0  0  0  0  0  0
    4.6187   -4.4545    3.0053 H   0  0  0  0  0  0  0  0  0  0  0  0
    1.9526   -3.2174    2.2582 H   0  0  0  0  0  0  0  0  0  0  0  0
    2.8167   -1.5940    3.5247 H   0  0  0  0  0  0  0  0  0  0  0  0
    2.7633   -1.7172    0.7972 H   0  0  0  0  0  0  0  0  0  0  0  0
    4.5307   -0.6354    1.8422 H   0  0  0  0  0  0  0  0  0  0  0  0
    6.0595   -2.9754    1.6891 H   0  0  0  0  0  0  0  0  0  0  0  0
    4.6855   -0.5006   -0.5815 H   0  0  0  0  0  0  0  0  0  0  0  0
    6.5120    0.1293    0.8414 H   0  0  0  0  0  0  0  0  0  0  0  0
    6.1779   -2.0365   -1.8495 H   0  0  0  0  0  0  0  0  0  0  0  0
    6.4848   -2.9923   -0.4285 H   0  0  0  0  0  0  0  0  0  0  0  0
    3.8070   -2.4581   -1.7741 H   0  0  0  0  0  0  0  0  0  0  0  0
    4.0556   -4.7464   -2.1770 H   0  0  0  0  0  0  0  0  0  0  0  0
    2.2428   -4.6573   -1.1996 H   0  0  0  0  0  0  0  0  0  0  0  0
    1.7365   -3.0611   -0.8117 H   0  0  0  0  0  0  0  0  0  0  0  0
    1.7107   -4.3858    0.3889 H   0  0  0  0  0  0  0  0  0  0  0  0
    5.3562   -4.4616    1.0425 H   0  0  0  0  0  0  0  0  0  0  0  0
    3.5175   -6.2834   -0.3355 H   0  0  0  0  0  0  0  0  0  0  0  0
    5.2145   -6.2437   -0.2073 H   0  0  0  0  0  0  0  0  0  0  0  0
    4.3434   -8.1842    0.9567 H   0  0  0  0  0  0  0  0  0  0  0  0
    6.2488   -7.3400    1.6092 H   0  0  0  0  0  0  0  0  0  0  0  0
    1.6998   -6.6785    0.6424 H   0  0  0  0  0  0  0  0  0  0  0  0
    0.8421   -7.4587    1.9155 H   0  0  0  0  0  0  0  0  0  0  0  0
    1.9189   -8.3977    0.9090 H   0  0  0  0  0  0  0  0  0  0  0  0
    3.0352  -11.3372    6.0844 H   0  0  0  0  0  0  0  0  0  0  0  0
    1.8269  -10.5926    7.4616 H   0  0  0  0  0  0  0  0  0  0  0  0
  1  2  1  0
  1 42  1  0
  1 43  1  0
  1 44  1  0
  2 40  1  0
  2  3  1  0
  2 45  1  1
  3  4  1  0
  3 46  1  0
  3 47  1  0
  4 17  1  0
  4 38  1  0
  4  5  1  6
  5  6  1  0
  6  7  2  0
  8  6  1  6
  8 16  1  0
  8  9  1  0
  8 40  1  0
  9 10  1  0
  9 11  1  0
  9 48  1  1
 10 49  1  0
 11 12  1  0
 11 50  1  0
 11 51  1  0
 12 13  1  0
 12 14  1  0
 12 15  1  0
 13 52  1  0
 13 53  1  0
 13 54  1  0
 14 55  1  0
 14 56  1  0
 14 57  1  0
 15 16  1  0
 15 58  1  0
 15 59  1  0
 16 17  1  0
 16 60  1  6
 17 18  2  0
 18 19  1  0
 18 61  1  0
 19 38  1  0
 19 20  1  1
 19 21  1  0
 20 62  1  0
 20 63  1  0
 20 64  1  0
 21 34  1  0
 21 22  1  0
 21 65  1  1
 22 23  1  0
 22 24  1  0
 22 66  1  6
 23 67  1  0
 24 32  1  0
 24 25  1  0
 24 68  1  6
 25 26  1  0
 25 27  1  0
 25 69  1  1
 26 70  1  0
 27 28  1  0
 27 29  1  0
 27 71  1  6
 28 72  1  0
 29 30  1  0
 29 73  1  0
 29 74  1  0
 30 31  1  0
 30 32  1  0
 30 75  1  6
 31 76  1  0
 32 33  1  6
 32 34  1  0
 33 77  1  0
 33 78  1  0
 33 79  1  0
 34 35  1  0
 34 80  1  1
 35 36  1  0
 35 81  1  0
 35 82  1  0
 36 37  1  0
 36 38  1  0
 36 83  1  6
 37 84  1  0
 38 39  1  6
 39 85  1  0
 39 86  1  0
 39 87  1  0
 40 41  1  0
 40 88  1  1
 41 89  1  0
M  END
>  <i_m_ct_stereo_status>  (21) 
1

>  <s_m_source_file>  (21) 
/var/tmp/pbs.5076255.sched01/tmpnv36izql/0kitkh5ys.sdf

>  <i_m_source_file_index>  (21) 
8

>  <i_lp_mmshare_version>  (21) 
48012

>  <i_f3d_flags>  (21) 
0

>  <s_epik_input>  (21) 
W0NIM11DKFtDSDNdKShbQ0gyXTEpW0NIMl1bQ0BIXShbT0hdKVtDQEBdKEMoTzIpPU8pKFtDQEBIXShbT0hdKVtDQEhdKFtDSDNdKVtDSDJdMylbQ0BIXTFDKFtDQEBdMjM0KT1bQ0hdW0NAQF01KFtDSDNdKVtDQEhdNltDQEBIXShbQ0gyXVtDQEBIXShbT0hdKVtDQEBdNDVbQ0gzXSlbQ0BAXTcoW0NIM10pW0NAQEhdKFtDQEBIXTZbT0hdKVtDQEBIXShbT0hdKVtDQEBIXShbT0hdKVtDSDJdW0NASF03W09IXQ==

>  <s_epik_cmdline>  (21) 
J2VwaWtfcHl0aG9uJywgJy1waHQnLCAnMi4wJywgJy1waCcsICc3LjAnLCAnLXRuJywgJzgnLCAnLW1hJywgJzIwMCcsICctaW1hZScsICc8aW5maWxlLm1hZT4nLCAnLW9tYWUnLCAnPG91dGZpbGUubWFlPic=

>  <r_lp_tautomer_probability>  (21) 
1

>  <r_epik_Ionization_Penalty>  (21) 
1.53879e-06

>  <r_epik_Ionization_Penalty_Charging>  (21) 
0

>  <r_epik_Ionization_Penalty_Neutral>  (21) 
1.53879e-06

>  <r_epik_State_Penalty>  (21) 
-0

>  <r_epik_Charging_Adjusted_Penalty>  (21) 
0

>  <i_epik_Tot_Q>  (21) 
0

>  <i_epik_Tot_abs_Q>  (21) 
0

>  <s_epik_Chemistry_Notes>  (21) 
This compound has an ester and may undergo hydrolysis at high or low pH.

>  <s_lp_Force_Field>  (21) 
OPLS3e

>  <r_lp_Energy>  (21) 
90.9073

>  <b_lp_Chiralities_Consistent>  (21) 
1

>  <s_lp_Variant>  (21) 
4:0-1

>  <s_i_glide_gridfile>  (21) 
pfpi4k_grid

>  <i_i_glide_lignum>  (21) 
8

>  <i_i_glide_rotatable_bonds>  (21) 
7

>  <r_i_docking_score>  (21) 
-4.26551

>  <r_i_glide_ligand_efficiency>  (21) 
-0.104037

>  <r_i_glide_ligand_efficiency_sa>  (21) 
-0.358741

>  <r_i_glide_ligand_efficiency_ln>  (21) 
-0.904942

>  <r_i_glide_gscore>  (21) 
-4.26551

>  <r_i_glide_lipo>  (21) 
-0.36061

>  <r_i_glide_hbond>  (21) 
-0.442113

>  <r_i_glide_metal>  (21) 
-0

>  <r_i_glide_rewards>  (21) 
-0.5

>  <r_i_glide_evdw>  (21) 
-24.7006

>  <r_i_glide_ecoul>  (21) 
-11.4801

>  <r_i_glide_erotb>  (21) 
0

>  <r_i_glide_esite>  (21) 
-0.00574554

>  <r_i_glide_emodel>  (21) 
-51.486

>  <r_i_glide_energy>  (21) 
-36.1806

>  <r_i_glide_einternal>  (21) 
2.93428

>  <r_i_glide_intrahb_reward>  (21) 
-0.5

>  <i_i_glide_confnum>  (21) 
2

>  <i_i_glide_posenum>  (21) 
3

>  <r_i_glide_eff_state_penalty>  (21) 
0

>  <ligand_id>  (21) 
4

>  <original_smiles>  (21) 
CC1CC23OC(=O)C4(C(O)CC(C)(C)CC4C2=CC2(C)C4C(O)C5C(O)C(O)CC(O)C5(C)C4CC(O)C32C)C1O

>  <smiles>  (21) 
[H]OC1([H])C([H])([H])C([H])(O[H])C2(C([H])([H])[H])C([H])(C1([H])O[H])C([H])(O[H])C1([H])C2([H])C([H])([H])C([H])(O[H])C2(C([H])([H])[H])C34OC(=O)C5(C([H])(O[H])C([H])([H])C(C([H])([H])[H])(C([H])([H])[H])C([H])([H])C5([H])C3=C([H])C12C([H])([H])[H])C([H])(O[H])C([H])(C([H])([H])[H])C4([H])[H]

$$$$
4:0:2
     RDKit          3D

 89 95  0  0  1  0  0  0  0  0999 V2000
    1.6989   -5.6260    8.7260 C   0  0  0  0  0  0  0  0  0  0  0  0
    2.6371   -6.4471    7.8091 C   0  0  2  0  0  0  0  0  0  0  0  0
    3.3709   -5.5672    6.7671 C   0  0  0  0  0  0  0  0  0  0  0  0
    2.7360   -5.4139    5.3463 C   0  0  2  0  0  0  0  0  0  0  0  0
    1.3257   -5.3170    5.5432 O   0  0  0  0  0  0  0  0  0  0  0  0
    0.5402   -6.3994    5.7578 C   0  0  0  0  0  0  0  0  0  0  0  0
   -0.6659   -6.2503    5.9148 O   0  0  0  0  0  0  0  0  0  0  0  0
    1.2909   -7.7703    5.8668 C   0  0  1  0  0  0  0  0  0  0  0  0
    0.3274   -9.0106    5.7835 C   0  0  1  0  0  0  0  0  0  0  0  0
   -0.6553   -8.9201    4.7730 O   0  0  0  0  0  0  0  0  0  0  0  0
    1.0444  -10.3596    5.5233 C   0  0  0  0  0  0  0  0  0  0  0  0
    2.0418  -10.3998    4.3384 C   0  0  0  0  0  0  0  0  0  0  0  0
    2.8661  -11.6983    4.4265 C   0  0  0  0  0  0  0  0  0  0  0  0
    1.3080  -10.4102    2.9736 C   0  0  0  0  0  0  0  0  0  0  0  0
    3.0038   -9.1913    4.4504 C   0  0  0  0  0  0  0  0  0  0  0  0
    2.2576   -7.8505    4.6420 C   0  0  2  0  0  0  0  0  0  0  0  0
    3.1213   -6.6118    4.5195 C   0  0  0  0  0  0  0  0  0  0  0  0
    4.0392   -6.3305    3.5934 C   0  0  0  0  0  0  0  0  0  0  0  0
    4.4440   -4.8609    3.5613 C   0  0  1  0  0  0  0  0  0  0  0  0
    5.7999   -4.7884    4.2949 C   0  0  0  0  0  0  0  0  0  0  0  0
    4.5372   -4.3620    2.0406 C   0  0  2  0  0  0  0  0  0  0  0  0
    5.9529   -4.1174    1.4399 C   0  0  1  0  0  0  0  0  0  0  0  0
    6.5678   -5.2955    0.9573 O   0  0  0  0  0  0  0  0  0  0  0  0
    5.8436   -2.9802    0.3979 C   0  0  1  0  0  0  0  0  0  0  0  0
    5.5607   -3.4376   -1.0663 C   0  0  1  0  0  0  0  0  0  0  0  0
    4.5648   -4.4336   -1.0935 O   0  0  0  0  0  0  0  0  0  0  0  0
    5.1134   -2.2771   -1.9710 C   0  0  1  0  0  0  0  0  0  0  0  0
    4.8704   -2.7311   -3.2917 O   0  0  0  0  0  0  0  0  0  0  0  0
    3.8759   -1.5773   -1.3946 C   0  0  0  0  0  0  0  0  0  0  0  0
    4.1909   -1.0347    0.0080 C   0  0  1  0  0  0  0  0  0  0  0  0
    3.0520   -0.3921    0.5407 O   0  0  0  0  0  0  0  0  0  0  0  0
    4.7588   -2.0620    1.0290 C   0  0  2  0  0  0  0  0  0  0  0  0
    5.4130   -1.2341    2.1710 C   0  0  0  0  0  0  0  0  0  0  0  0
    3.7342   -3.1025    1.5825 C   0  0  2  0  0  0  0  0  0  0  0  0
    2.6252   -2.6064    2.5256 C   0  0  0  0  0  0  0  0  0  0  0  0
    2.1390   -3.6921    3.4932 C   0  0  1  0  0  0  0  0  0  0  0  0
    1.5107   -4.7094    2.7226 O   0  0  0  0  0  0  0  0  0  0  0  0
    3.2759   -4.2255    4.4312 C   0  0  1  0  0  0  0  0  0  0  0  0
    3.7330   -3.0113    5.2895 C   0  0  0  0  0  0  0  0  0  0  0  0
    1.9847   -7.7640    7.2850 C   0  0  1  0  0  0  0  0  0  0  0  0
    2.9437   -8.7881    7.4782 O   0  0  0  0  0  0  0  0  0  0  0  0
    0.8616   -5.1753    8.1934 H   0  0  0  0  0  0  0  0  0  0  0  0
    2.2499   -4.8172    9.2099 H   0  0  0  0  0  0  0  0  0  0  0  0
    1.2925   -6.2468    9.5259 H   0  0  0  0  0  0  0  0  0  0  0  0
    3.4192   -6.7538    8.5057 H   0  0  0  0  0  0  0  0  0  0  0  0
    3.4796   -4.5986    7.2505 H   0  0  0  0  0  0  0  0  0  0  0  0
    4.3730   -5.9786    6.6639 H   0  0  0  0  0  0  0  0  0  0  0  0
   -0.2290   -9.1105    6.7153 H   0  0  0  0  0  0  0  0  0  0  0  0
   -1.2366   -9.6791    4.8673 H   0  0  0  0  0  0  0  0  0  0  0  0
    1.5946  -10.6327    6.4204 H   0  0  0  0  0  0  0  0  0  0  0  0
    0.3031  -11.1580    5.4125 H   0  0  0  0  0  0  0  0  0  0  0  0
    3.5836  -11.7651    3.6090 H   0  0  0  0  0  0  0  0  0  0  0  0
    2.2233  -12.5741    4.3743 H   0  0  0  0  0  0  0  0  0  0  0  0
    3.4172  -11.7645    5.3618 H   0  0  0  0  0  0  0  0  0  0  0  0
    2.0206  -10.4843    2.1487 H   0  0  0  0  0  0  0  0  0  0  0  0
    0.7175   -9.5091    2.7954 H   0  0  0  0  0  0  0  0  0  0  0  0
    0.6254  -11.2618    2.9079 H   0  0  0  0  0  0  0  0  0  0  0  0
    3.7190   -9.3501    5.2599 H   0  0  0  0  0  0  0  0  0  0  0  0
    3.6153   -9.1581    3.5472 H   0  0  0  0  0  0  0  0  0  0  0  0
    1.6204   -7.7459    3.7661 H   0  0  0  0  0  0  0  0  0  0  0  0
    4.3692   -7.0348    2.8472 H   0  0  0  0  0  0  0  0  0  0  0  0
    6.1439   -3.7578    4.3776 H   0  0  0  0  0  0  0  0  0  0  0  0
    6.5629   -5.3818    3.7867 H   0  0  0  0  0  0  0  0  0  0  0  0
    5.7556   -5.1690    5.3114 H   0  0  0  0  0  0  0  0  0  0  0  0
    4.0932   -5.1615    1.4430 H   0  0  0  0  0  0  0  0  0  0  0  0
    6.6180   -3.7163    2.1915 H   0  0  0  0  0  0  0  0  0  0  0  0
    6.6829   -5.8909    1.6799 H   0  0  0  0  0  0  0  0  0  0  0  0
    6.7943   -2.4478    0.3542 H   0  0  0  0  0  0  0  0  0  0  0  0
    6.4778   -3.8570   -1.4807 H   0  0  0  0  0  0  0  0  0  0  0  0
    4.5000   -4.8042   -1.9636 H   0  0  0  0  0  0  0  0  0  0  0  0
    5.9211   -1.5491   -2.0268 H   0  0  0  0  0  0  0  0  0  0  0  0
    4.1075   -3.2894   -3.2773 H   0  0  0  0  0  0  0  0  0  0  0  0
    3.5879   -0.7520   -2.0464 H   0  0  0  0  0  0  0  0  0  0  0  0
    3.0186   -2.2509   -1.3603 H   0  0  0  0  0  0  0  0  0  0  0  0
    4.9524   -0.2651   -0.1325 H   0  0  0  0  0  0  0  0  0  0  0  0
    2.2758   -0.6651    0.0550 H   0  0  0  0  0  0  0  0  0  0  0  0
    4.7268   -0.5051    2.6012 H   0  0  0  0  0  0  0  0  0  0  0  0
    6.2653   -0.6633    1.8014 H   0  0  0  0  0  0  0  0  0  0  0  0
    5.7788   -1.8463    2.9917 H   0  0  0  0  0  0  0  0  0  0  0  0
    3.1654   -3.4298    0.7118 H   0  0  0  0  0  0  0  0  0  0  0  0
    2.9194   -1.7051    3.0570 H   0  0  0  0  0  0  0  0  0  0  0  0
    1.7741   -2.2759    1.9261 H   0  0  0  0  0  0  0  0  0  0  0  0
    1.3437   -3.2483    4.0937 H   0  0  0  0  0  0  0  0  0  0  0  0
    2.1769   -5.1788    2.2418 H   0  0  0  0  0  0  0  0  0  0  0  0
    4.1623   -2.2169    4.6869 H   0  0  0  0  0  0  0  0  0  0  0  0
    4.5089   -3.2594    6.0089 H   0  0  0  0  0  0  0  0  0  0  0  0
    2.8943   -2.5906    5.8430 H   0  0  0  0  0  0  0  0  0  0  0  0
    1.2072   -8.0122    8.0120 H   0  0  0  0  0  0  0  0  0  0  0  0
    2.5266   -9.6300    7.3743 H   0  0  0  0  0  0  0  0  0  0  0  0
  1  2  1  0
  1 42  1  0
  1 43  1  0
  1 44  1  0
  2 40  1  0
  2  3  1  0
  2 45  1  1
  3  4  1  0
  3 46  1  0
  3 47  1  0
  4 17  1  0
  4 38  1  0
  4  5  1  1
  5  6  1  0
  6  7  2  0
  8  6  1  6
  8 16  1  0
  8  9  1  0
  8 40  1  0
  9 10  1  0
  9 11  1  0
  9 48  1  1
 10 49  1  0
 11 12  1  0
 11 50  1  0
 11 51  1  0
 12 13  1  0
 12 14  1  0
 12 15  1  0
 13 52  1  0
 13 53  1  0
 13 54  1  0
 14 55  1  0
 14 56  1  0
 14 57  1  0
 15 16  1  0
 15 58  1  0
 15 59  1  0
 16 17  1  0
 16 60  1  6
 17 18  2  0
 18 19  1  0
 18 61  1  0
 19 38  1  0
 19 20  1  1
 19 21  1  0
 20 62  1  0
 20 63  1  0
 20 64  1  0
 21 34  1  0
 21 22  1  0
 21 65  1  6
 22 23  1  0
 22 24  1  0
 22 66  1  1
 23 67  1  0
 24 32  1  0
 24 25  1  0
 24 68  1  6
 25 26  1  0
 25 27  1  0
 25 69  1  6
 26 70  1  0
 27 28  1  0
 27 29  1  0
 27 71  1  6
 28 72  1  0
 29 30  1  0
 29 73  1  0
 29 74  1  0
 30 31  1  0
 30 32  1  0
 30 75  1  6
 31 76  1  0
 32 33  1  1
 32 34  1  0
 33 77  1  0
 33 78  1  0
 33 79  1  0
 34 35  1  0
 34 80  1  6
 35 36  1  0
 35 81  1  0
 35 82  1  0
 36 37  1  0
 36 38  1  0
 36 83  1  1
 37 84  1  0
 38 39  1  1
 39 85  1  0
 39 86  1  0
 39 87  1  0
 40 41  1  0
 40 88  1  1
 41 89  1  0
M  END
>  <i_m_ct_stereo_status>  (22) 
1

>  <s_m_source_file>  (22) 
/var/tmp/pbs.5076255.sched01/tmpnv36izql/0kitkh5ys.sdf

>  <i_m_source_file_index>  (22) 
8

>  <i_lp_mmshare_version>  (22) 
48012

>  <i_f3d_flags>  (22) 
0

>  <s_epik_input>  (22) 
W0NIM11DKFtDSDNdKShbQ0gyXTEpW0NIMl1bQ0BIXShbT0hdKVtDQEBdKEMoTzIpPU8pKFtDQEBIXShbT0hdKVtDQEhdKFtDSDNdKVtDSDJdMylbQ0BIXTFDKFtDQEBdMjM0KT1bQ0hdW0NAQF01KFtDSDNdKVtDQEhdNltDQEBIXShbQ0gyXVtDQEBIXShbT0hdKVtDQEBdNDVbQ0gzXSlbQ0BAXTcoW0NIM10pW0NAQEhdKFtDQEBIXTZbT0hdKVtDQEBIXShbT0hdKVtDQEBIXShbT0hdKVtDSDJdW0NASF03W09IXQ==

>  <s_epik_cmdline>  (22) 
J2VwaWtfcHl0aG9uJywgJy1waHQnLCAnMi4wJywgJy1waCcsICc3LjAnLCAnLXRuJywgJzgnLCAnLW1hJywgJzIwMCcsICctaW1hZScsICc8aW5maWxlLm1hZT4nLCAnLW9tYWUnLCAnPG91dGZpbGUubWFlPic=

>  <r_lp_tautomer_probability>  (22) 
1

>  <r_epik_Ionization_Penalty>  (22) 
1.53879e-06

>  <r_epik_Ionization_Penalty_Charging>  (22) 
0

>  <r_epik_Ionization_Penalty_Neutral>  (22) 
1.53879e-06

>  <r_epik_State_Penalty>  (22) 
-0

>  <r_epik_Charging_Adjusted_Penalty>  (22) 
0

>  <i_epik_Tot_Q>  (22) 
0

>  <i_epik_Tot_abs_Q>  (22) 
0

>  <s_epik_Chemistry_Notes>  (22) 
This compound has an ester and may undergo hydrolysis at high or low pH.

>  <s_lp_Force_Field>  (22) 
OPLS3e

>  <r_lp_Energy>  (22) 
90.9073

>  <b_lp_Chiralities_Consistent>  (22) 
1

>  <s_lp_Variant>  (22) 
4:0-1

>  <s_i_glide_gridfile>  (22) 
pfpi4k_grid

>  <i_i_glide_lignum>  (22) 
8

>  <i_i_glide_rotatable_bonds>  (22) 
7

>  <r_i_docking_score>  (22) 
-3.90907

>  <r_i_glide_ligand_efficiency>  (22) 
-0.0953432

>  <r_i_glide_ligand_efficiency_sa>  (22) 
-0.328764

>  <r_i_glide_ligand_efficiency_ln>  (22) 
-0.829323

>  <r_i_glide_gscore>  (22) 
-3.90907

>  <r_i_glide_lipo>  (22) 
-0.526985

>  <r_i_glide_hbond>  (22) 
-0.148699

>  <r_i_glide_metal>  (22) 
-0

>  <r_i_glide_rewards>  (22) 
0

>  <r_i_glide_evdw>  (22) 
-28.9785

>  <r_i_glide_ecoul>  (22) 
-11.8562

>  <r_i_glide_erotb>  (22) 
0

>  <r_i_glide_esite>  (22) 
-0.00602565

>  <r_i_glide_emodel>  (22) 
-50.6243

>  <r_i_glide_energy>  (22) 
-40.8348

>  <r_i_glide_einternal>  (22) 
2.46746

>  <r_i_glide_intrahb_reward>  (22) 
-0

>  <i_i_glide_confnum>  (22) 
2

>  <i_i_glide_posenum>  (22) 
8

>  <r_i_glide_eff_state_penalty>  (22) 
0

>  <ligand_id>  (22) 
4

>  <original_smiles>  (22) 
CC1CC23OC(=O)C4(C(O)CC(C)(C)CC4C2=CC2(C)C4C(O)C5C(O)C(O)CC(O)C5(C)C4CC(O)C32C)C1O

>  <smiles>  (22) 
[H]OC1([H])C([H])([H])C([H])(O[H])C2(C([H])([H])[H])C([H])(C1([H])O[H])C([H])(O[H])C1([H])C2([H])C([H])([H])C([H])(O[H])C2(C([H])([H])[H])C34OC(=O)C5(C([H])(O[H])C([H])([H])C(C([H])([H])[H])(C([H])([H])[H])C([H])([H])C5([H])C3=C([H])C12C([H])([H])[H])C([H])(O[H])C([H])(C([H])([H])[H])C4([H])[H]

$$$$
5:0:0
     RDKit          3D

 40 46  0  0  1  0  0  0  0  0999 V2000
    5.0293   -6.4143    0.7947 O   0  0  0  0  0  0  0  0  0  0  0  0
    4.7268   -5.7235    1.9975 C   0  0  2  0  0  0  0  0  0  0  0  0
    3.8550   -6.6055    2.8360 C   0  0  0  0  0  0  0  0  0  0  0  0
    2.7180   -6.0353    3.1335 C   0  0  0  0  0  0  0  0  0  0  0  0
    2.5841   -4.6459    2.5805 C   0  0  1  0  0  0  0  0  0  0  0  0
    2.3886   -3.7528    3.6583 O   0  0  0  0  0  0  0  0  0  0  0  0
    3.8989   -4.4119    1.7304 C   0  0  0  0  0  0  0  0  0  0  0  0
    4.7047   -3.0905    2.3688 C   0  0  2  0  0  0  0  0  0  0  0  0
    4.0044   -1.8061    2.1108 C   0  0  2  0  0  0  0  0  0  0  0  0
    2.9964   -1.9074    1.0302 C   0  0  0  0  0  0  0  0  0  0  0  0
    3.5080   -2.8799   -0.0401 C   0  0  1  0  0  0  0  0  0  0  0  0
    5.1404   -3.4330   -0.1677 C   0  0  2  0  0  0  0  0  0  0  0  0
    6.2087   -2.6267   -0.6925 C   0  0  2  0  0  0  0  0  0  0  0  0
    5.9571   -1.4238    0.1720 C   0  0  1  0  0  0  0  0  0  0  0  0
    5.1454   -1.0209   -1.1565 C   0  0  0  0  0  0  0  0  0  0  0  0
    5.2240   -2.4911   -1.8188 C   0  0  2  0  0  0  0  0  0  0  0  0
    4.5691   -3.9561   -1.2792 C   0  0  2  0  0  0  0  0  0  0  0  0
    3.5573   -4.2814    0.0969 C   0  0  1  0  0  0  0  0  0  0  0  0
    2.3973   -5.0204   -0.2895 O   0  0  0  0  0  0  0  0  0  0  0  0
    5.4571   -1.7731    1.7055 C   0  0  2  0  0  0  0  0  0  0  0  0
    4.3066   -6.3355    0.1798 H   0  0  0  0  0  0  0  0  0  0  0  0
    5.6796   -5.5361    2.4986 H   0  0  0  0  0  0  0  0  0  0  0  0
    4.1594   -7.6188    3.1112 H   0  0  0  0  0  0  0  0  0  0  0  0
    1.9209   -6.4755    3.7267 H   0  0  0  0  0  0  0  0  0  0  0  0
    1.6874   -4.5829    1.9712 H   0  0  0  0  0  0  0  0  0  0  0  0
    2.4552   -2.8660    3.3336 H   0  0  0  0  0  0  0  0  0  0  0  0
    5.0008   -3.2924    3.4069 H   0  0  0  0  0  0  0  0  0  0  0  0
    3.7074   -1.2277    2.9893 H   0  0  0  0  0  0  0  0  0  0  0  0
    2.0441   -2.2380    1.4415 H   0  0  0  0  0  0  0  0  0  0  0  0
    2.7949   -0.9072    0.6450 H   0  0  0  0  0  0  0  0  0  0  0  0
    2.8776   -2.5860   -0.9144 H   0  0  0  0  0  0  0  0  0  0  0  0
    5.7194   -4.1990    0.3827 H   0  0  0  0  0  0  0  0  0  0  0  0
    7.1847   -3.0960   -0.8269 H   0  0  0  0  0  0  0  0  0  0  0  0
    6.8556   -0.7909    0.2261 H   0  0  0  0  0  0  0  0  0  0  0  0
    4.1395   -0.6080   -1.0069 H   0  0  0  0  0  0  0  0  0  0  0  0
    5.7066   -0.2938   -1.7500 H   0  0  0  0  0  0  0  0  0  0  0  0
    5.6830   -2.5097   -2.8244 H   0  0  0  0  0  0  0  0  0  0  0  0
    5.1198   -4.8276   -1.6573 H   0  0  0  0  0  0  0  0  0  0  0  0
    2.5774   -5.3032   -1.1932 H   0  0  0  0  0  0  0  0  0  0  0  0
    6.1067   -1.3003    2.4286 H   0  0  0  0  0  0  0  0  0  0  0  0
  1  2  1  0
  1 21  1  0
  2  7  1  0
  2  3  1  0
  2 22  1  1
  3  4  2  0
  3 23  1  0
  4  5  1  0
  4 24  1  0
  5  6  1  0
  5  7  1  0
  5 25  1  6
  6 26  1  0
  7 18  1  0
  7  8  1  0
  8 20  1  0
  8  9  1  0
  8 27  1  1
  9 20  1  0
  9 10  1  0
  9 28  1  1
 10 11  1  0
 10 29  1  0
 10 30  1  0
 11 18  1  0
 11 12  1  0
 11 31  1  6
 12 17  1  0
 12 13  1  0
 12 32  1  1
 13 16  1  0
 13 14  1  0
 13 33  1  6
 14 15  1  0
 14 20  1  0
 14 34  1  1
 15 16  1  0
 15 35  1  0
 15 36  1  0
 16 17  1  0
 16 37  1  6
 17 18  1  0
 17 38  1  6
 18 19  1  6
 19 39  1  0
 20 40  1  1
M  END
>  <i_m_ct_stereo_status>  (23) 
1

>  <s_m_source_file>  (23) 
/var/tmp/pbs.5076255.sched01/tmpnv36izql/0kitkh5ys.sdf

>  <i_m_source_file_index>  (23) 
9

>  <i_lp_mmshare_version>  (23) 
48012

>  <i_f3d_flags>  (23) 
0

>  <s_epik_input>  (23) 
W09IXVtDQEBIXTFbQ0hdPVtDSF1bQ0BASF0oW09IXSlbQ0BAXTEyW0NAQEhdM1tDQEhdNFtDQEBIXTNbQ0BIXTVbQ0BIXTZbQ0BIXTdbQ0BIXShbQ0gyXTQpW0NAQF0yKFtPSF0pW0NASF03W0NASF02W0NIMl01

>  <s_epik_cmdline>  (23) 
J2VwaWtfcHl0aG9uJywgJy1waHQnLCAnMi4wJywgJy1waCcsICc3LjAnLCAnLXRuJywgJzgnLCAnLW1hJywgJzIwMCcsICctaW1hZScsICc8aW5maWxlLm1hZT4nLCAnLW9tYWUnLCAnPG91dGZpbGUubWFlPic=

>  <r_lp_tautomer_probability>  (23) 
1

>  <r_epik_Ionization_Penalty>  (23) 
7.77546e-07

>  <r_epik_Ionization_Penalty_Charging>  (23) 
0

>  <r_epik_Ionization_Penalty_Neutral>  (23) 
7.77546e-07

>  <r_epik_State_Penalty>  (23) 
-0

>  <r_epik_Charging_Adjusted_Penalty>  (23) 
0

>  <i_epik_Tot_Q>  (23) 
0

>  <i_epik_Tot_abs_Q>  (23) 
0

>  <s_lp_Force_Field>  (23) 
OPLS3e

>  <r_lp_Energy>  (23) 
300.415

>  <b_lp_Chiralities_Consistent>  (23) 
1

>  <s_lp_Variant>  (23) 
5:0-1

>  <s_i_glide_gridfile>  (23) 
pfpi4k_grid

>  <i_i_glide_lignum>  (23) 
9

>  <i_i_glide_rotatable_bonds>  (23) 
3

>  <r_i_docking_score>  (23) 
-3.67657

>  <r_i_glide_ligand_efficiency>  (23) 
-0.183828

>  <r_i_glide_ligand_efficiency_sa>  (23) 
-0.498987

>  <r_i_glide_ligand_efficiency_ln>  (23) 
-0.920123

>  <r_i_glide_gscore>  (23) 
-3.67657

>  <r_i_glide_lipo>  (23) 
-0.239491

>  <r_i_glide_hbond>  (23) 
0

>  <r_i_glide_metal>  (23) 
-0

>  <r_i_glide_rewards>  (23) 
-1.55223

>  <r_i_glide_evdw>  (23) 
-18.5634

>  <r_i_glide_ecoul>  (23) 
-6.37779

>  <r_i_glide_erotb>  (23) 
0

>  <r_i_glide_esite>  (23) 
0

>  <r_i_glide_emodel>  (23) 
-30.0834

>  <r_i_glide_energy>  (23) 
-24.9412

>  <r_i_glide_einternal>  (23) 
0.862126

>  <r_i_glide_intrahb_reward>  (23) 
-0

>  <i_i_glide_confnum>  (23) 
2

>  <i_i_glide_posenum>  (23) 
19

>  <r_i_glide_eff_state_penalty>  (23) 
0

>  <ligand_id>  (23) 
5

>  <original_smiles>  (23) 
OC1C=CC(O)C12C1C3CC4C5C6C(CC6C5C42O)C31

>  <smiles>  (23) 
[H]OC1([H])C([H])=C([H])C([H])(O[H])C12C1([H])C3([H])C([H])([H])C4([H])C5([H])C6([H])C([H])(C([H])([H])C6([H])C5([H])C42O[H])C31[H]

$$$$
5:0:1
     RDKit          3D

 40 46  0  0  1  0  0  0  0  0999 V2000
    5.1075   -6.4964    0.6736 O   0  0  0  0  0  0  0  0  0  0  0  0
    4.8500   -5.8031    1.8859 C   0  0  2  0  0  0  0  0  0  0  0  0
    4.0307   -6.7066    2.7388 C   0  0  0  0  0  0  0  0  0  0  0  0
    2.8769   -6.1459    3.0986 C   0  0  0  0  0  0  0  0  0  0  0  0
    2.7328   -4.7505    2.5900 C   0  0  1  0  0  0  0  0  0  0  0  0
    2.5578   -3.8918    3.7015 O   0  0  0  0  0  0  0  0  0  0  0  0
    4.0101   -4.4886    1.6859 C   0  0  0  0  0  0  0  0  0  0  0  0
    4.8122   -3.1698    2.3027 C   0  0  2  0  0  0  0  0  0  0  0  0
    4.0976   -1.8827    2.0975 C   0  0  2  0  0  0  0  0  0  0  0  0
    3.0466   -1.9743    1.0609 C   0  0  0  0  0  0  0  0  0  0  0  0
    3.5352   -2.9164   -0.0400 C   0  0  1  0  0  0  0  0  0  0  0  0
    5.1582   -3.4538   -0.2605 C   0  0  2  0  0  0  0  0  0  0  0  0
    6.1976   -2.6299   -0.8106 C   0  0  2  0  0  0  0  0  0  0  0  0
    5.9632   -1.4464    0.0907 C   0  0  1  0  0  0  0  0  0  0  0  0
    5.1083   -1.0211   -1.1949 C   0  0  0  0  0  0  0  0  0  0  0  0
    5.1680   -2.4852   -1.8844 C   0  0  2  0  0  0  0  0  0  0  0  0
    4.5464   -3.9536   -1.3404 C   0  0  2  0  0  0  0  0  0  0  0  0
    3.5915   -4.3284    0.0599 C   0  0  1  0  0  0  0  0  0  0  0  0
    2.4228   -5.0420   -0.2790 O   0  0  0  0  0  0  0  0  0  0  0  0
    5.5291   -1.8306    1.6393 C   0  0  2  0  0  0  0  0  0  0  0  0
    4.3707   -6.3567    0.0858 H   0  0  0  0  0  0  0  0  0  0  0  0
    5.8166   -5.6017    2.3544 H   0  0  0  0  0  0  0  0  0  0  0  0
    4.3478   -7.7114    2.9889 H   0  0  0  0  0  0  0  0  0  0  0  0
    2.1173   -6.6090    3.7062 H   0  0  0  0  0  0  0  0  0  0  0  0
    1.7986   -4.6644    2.0360 H   0  0  0  0  0  0  0  0  0  0  0  0
    3.3735   -3.8240    4.1650 H   0  0  0  0  0  0  0  0  0  0  0  0
    5.1651   -3.3728    3.3157 H   0  0  0  0  0  0  0  0  0  0  0  0
    3.8254   -1.3363    2.9958 H   0  0  0  0  0  0  0  0  0  0  0  0
    2.1171   -2.3369    1.5049 H   0  0  0  0  0  0  0  0  0  0  0  0
    2.8187   -0.9736    0.6944 H   0  0  0  0  0  0  0  0  0  0  0  0
    2.8800   -2.6402   -0.8954 H   0  0  0  0  0  0  0  0  0  0  0  0
    5.7750   -4.2128    0.2629 H   0  0  0  0  0  0  0  0  0  0  0  0
    7.1684   -3.1015   -0.9813 H   0  0  0  0  0  0  0  0  0  0  0  0
    6.8676   -0.8170    0.1176 H   0  0  0  0  0  0  0  0  0  0  0  0
    4.1025   -0.6370   -1.0035 H   0  0  0  0  0  0  0  0  0  0  0  0
    5.6389   -0.2893   -1.8070 H   0  0  0  0  0  0  0  0  0  0  0  0
    5.5827   -2.5007   -2.8961 H   0  0  0  0  0  0  0  0  0  0  0  0
    5.0771   -4.8252   -1.7429 H   0  0  0  0  0  0  0  0  0  0  0  0
    2.5574   -5.3415   -1.1891 H   0  0  0  0  0  0  0  0  0  0  0  0
    6.2074   -1.3653    2.3430 H   0  0  0  0  0  0  0  0  0  0  0  0
  1  2  1  0
  1 21  1  0
  2  7  1  0
  2  3  1  0
  2 22  1  1
  3  4  2  0
  3 23  1  0
  4  5  1  0
  4 24  1  0
  5  6  1  0
  5  7  1  0
  5 25  1  6
  6 26  1  0
  7 18  1  0
  7  8  1  0
  8 20  1  0
  8  9  1  0
  8 27  1  1
  9 20  1  0
  9 10  1  0
  9 28  1  1
 10 11  1  0
 10 29  1  0
 10 30  1  0
 11 18  1  0
 11 12  1  0
 11 31  1  6
 12 17  1  0
 12 13  1  0
 12 32  1  1
 13 16  1  0
 13 14  1  0
 13 33  1  6
 14 15  1  0
 14 20  1  0
 14 34  1  1
 15 16  1  0
 15 35  1  0
 15 36  1  0
 16 17  1  0
 16 37  1  6
 17 18  1  0
 17 38  1  6
 18 19  1  6
 19 39  1  0
 20 40  1  1
M  END
>  <i_m_ct_stereo_status>  (24) 
1

>  <s_m_source_file>  (24) 
/var/tmp/pbs.5076255.sched01/tmpnv36izql/0kitkh5ys.sdf

>  <i_m_source_file_index>  (24) 
9

>  <i_lp_mmshare_version>  (24) 
48012

>  <i_f3d_flags>  (24) 
0

>  <s_epik_input>  (24) 
W09IXVtDQEBIXTFbQ0hdPVtDSF1bQ0BASF0oW09IXSlbQ0BAXTEyW0NAQEhdM1tDQEhdNFtDQEBIXTNbQ0BIXTVbQ0BIXTZbQ0BIXTdbQ0BIXShbQ0gyXTQpW0NAQF0yKFtPSF0pW0NASF03W0NASF02W0NIMl01

>  <s_epik_cmdline>  (24) 
J2VwaWtfcHl0aG9uJywgJy1waHQnLCAnMi4wJywgJy1waCcsICc3LjAnLCAnLXRuJywgJzgnLCAnLW1hJywgJzIwMCcsICctaW1hZScsICc8aW5maWxlLm1hZT4nLCAnLW9tYWUnLCAnPG91dGZpbGUubWFlPic=

>  <r_lp_tautomer_probability>  (24) 
1

>  <r_epik_Ionization_Penalty>  (24) 
7.77546e-07

>  <r_epik_Ionization_Penalty_Charging>  (24) 
0

>  <r_epik_Ionization_Penalty_Neutral>  (24) 
7.77546e-07

>  <r_epik_State_Penalty>  (24) 
-0

>  <r_epik_Charging_Adjusted_Penalty>  (24) 
0

>  <i_epik_Tot_Q>  (24) 
0

>  <i_epik_Tot_abs_Q>  (24) 
0

>  <s_lp_Force_Field>  (24) 
OPLS3e

>  <r_lp_Energy>  (24) 
300.415

>  <b_lp_Chiralities_Consistent>  (24) 
1

>  <s_lp_Variant>  (24) 
5:0-1

>  <s_i_glide_gridfile>  (24) 
pfpi4k_grid

>  <i_i_glide_lignum>  (24) 
9

>  <i_i_glide_rotatable_bonds>  (24) 
3

>  <r_i_docking_score>  (24) 
-3.5716

>  <r_i_glide_ligand_efficiency>  (24) 
-0.17858

>  <r_i_glide_ligand_efficiency_sa>  (24) 
-0.484741

>  <r_i_glide_ligand_efficiency_ln>  (24) 
-0.893854

>  <r_i_glide_gscore>  (24) 
-3.5716

>  <r_i_glide_lipo>  (24) 
-0.240784

>  <r_i_glide_hbond>  (24) 
0

>  <r_i_glide_metal>  (24) 
-0

>  <r_i_glide_rewards>  (24) 
-1.55223

>  <r_i_glide_evdw>  (24) 
-18.5579

>  <r_i_glide_ecoul>  (24) 
-5.67124

>  <r_i_glide_erotb>  (24) 
0

>  <r_i_glide_esite>  (24) 
0

>  <r_i_glide_emodel>  (24) 
-29.4212

>  <r_i_glide_energy>  (24) 
-24.2292

>  <r_i_glide_einternal>  (24) 
0.436842

>  <r_i_glide_intrahb_reward>  (24) 
-0

>  <i_i_glide_confnum>  (24) 
2

>  <i_i_glide_posenum>  (24) 
1

>  <r_i_glide_eff_state_penalty>  (24) 
0

>  <ligand_id>  (24) 
5

>  <original_smiles>  (24) 
OC1C=CC(O)C12C1C3CC4C5C6C(CC6C5C42O)C31

>  <smiles>  (24) 
[H]OC1([H])C([H])=C([H])C([H])(O[H])C12C1([H])C3([H])C([H])([H])C4([H])C5([H])C6([H])C([H])(C([H])([H])C6([H])C5([H])C42O[H])C31[H]

$$$$
5:0:2
     RDKit          3D

 40 46  0  0  1  0  0  0  0  0999 V2000
    6.5636   -5.7194    0.6241 O   0  0  0  0  0  0  0  0  0  0  0  0
    6.4185   -4.7943    1.6879 C   0  0  2  0  0  0  0  0  0  0  0  0
    6.2757   -5.5838    2.9473 C   0  0  0  0  0  0  0  0  0  0  0  0
    5.1540   -5.2922    3.5988 C   0  0  0  0  0  0  0  0  0  0  0  0
    4.3418   -4.2383    2.9145 C   0  0  1  0  0  0  0  0  0  0  0  0
    4.1838   -3.1606    3.8149 O   0  0  0  0  0  0  0  0  0  0  0  0
    5.1285   -3.9018    1.5797 C   0  0  0  0  0  0  0  0  0  0  0  0
    5.5149   -2.2923    1.5968 C   0  0  2  0  0  0  0  0  0  0  0  0
    4.3440   -1.3868    1.4348 C   0  0  2  0  0  0  0  0  0  0  0  0
    3.1561   -2.0900    0.9123 C   0  0  0  0  0  0  0  0  0  0  0  0
    3.6245   -3.1427   -0.1053 C   0  0  1  0  0  0  0  0  0  0  0  0
    5.1945   -3.2289   -0.8112 C   0  0  2  0  0  0  0  0  0  0  0  0
    5.6395   -2.3540   -1.8588 C   0  0  2  0  0  0  0  0  0  0  0  0
    5.2428   -1.0703   -1.1717 C   0  0  1  0  0  0  0  0  0  0  0  0
    3.9685   -1.3125   -2.1026 C   0  0  0  0  0  0  0  0  0  0  0  0
    4.3761   -2.8374   -2.4745 C   0  0  2  0  0  0  0  0  0  0  0  0
    4.5509   -4.1893   -1.4751 C   0  0  2  0  0  0  0  0  0  0  0  0
    4.2439   -4.3761    0.2205 C   0  0  1  0  0  0  0  0  0  0  0  0
    3.4114   -5.4840    0.4815 O   0  0  0  0  0  0  0  0  0  0  0  0
    5.4466   -1.0694    0.4735 C   0  0  2  0  0  0  0  0  0  0  0  0
    5.6994   -6.0222    0.3707 H   0  0  0  0  0  0  0  0  0  0  0  0
    7.3238   -4.1885    1.7105 H   0  0  0  0  0  0  0  0  0  0  0  0
    7.0052   -6.3297    3.2417 H   0  0  0  0  0  0  0  0  0  0  0  0
    4.8329   -5.7452    4.5248 H   0  0  0  0  0  0  0  0  0  0  0  0
    3.3346   -4.6169    2.7378 H   0  0  0  0  0  0  0  0  0  0  0  0
    3.8012   -2.4319    3.3505 H   0  0  0  0  0  0  0  0  0  0  0  0
    6.1818   -2.0615    2.4235 H   0  0  0  0  0  0  0  0  0  0  0  0
    4.1544   -0.6856    2.2403 H   0  0  0  0  0  0  0  0  0  0  0  0
    2.5894   -2.5555    1.7218 H   0  0  0  0  0  0  0  0  0  0  0  0
    2.4868   -1.3445    0.4890 H   0  0  0  0  0  0  0  0  0  0  0  0
    2.7040   -3.3382   -0.6955 H   0  0  0  0  0  0  0  0  0  0  0  0
    6.1740   -3.5779   -0.4264 H   0  0  0  0  0  0  0  0  0  0  0  0
    6.6225   -2.5523   -2.2896 H   0  0  0  0  0  0  0  0  0  0  0  0
    5.8113   -0.2491   -1.6169 H   0  0  0  0  0  0  0  0  0  0  0  0
    3.0003   -1.1908   -1.6200 H   0  0  0  0  0  0  0  0  0  0  0  0
    3.9988   -0.6768   -2.9921 H   0  0  0  0  0  0  0  0  0  0  0  0
    4.4568   -3.0439   -3.5389 H   0  0  0  0  0  0  0  0  0  0  0  0
    5.2323   -4.9440   -1.8748 H   0  0  0  0  0  0  0  0  0  0  0  0
    3.0924   -5.7671   -0.3763 H   0  0  0  0  0  0  0  0  0  0  0  0
    6.0753   -0.2322    0.7675 H   0  0  0  0  0  0  0  0  0  0  0  0
  1  2  1  0
  1 21  1  0
  2  7  1  0
  2  3  1  0
  2 22  1  1
  3  4  2  0
  3 23  1  0
  4  5  1  0
  4 24  1  0
  5  6  1  0
  5  7  1  0
  5 25  1  6
  6 26  1  0
  7 18  1  0
  7  8  1  0
  8 20  1  0
  8  9  1  0
  8 27  1  1
  9 20  1  0
  9 10  1  0
  9 28  1  1
 10 11  1  0
 10 29  1  0
 10 30  1  0
 11 18  1  0
 11 12  1  0
 11 31  1  6
 12 17  1  0
 12 13  1  0
 12 32  1  1
 13 16  1  0
 13 14  1  0
 13 33  1  6
 14 15  1  0
 14 20  1  0
 14 34  1  6
 15 16  1  0
 15 35  1  0
 15 36  1  0
 16 17  1  0
 16 37  1  6
 17 18  1  0
 17 38  1  6
 18 19  1  6
 19 39  1  0
 20 40  1  1
M  END
>  <i_m_ct_stereo_status>  (25) 
1

>  <s_m_source_file>  (25) 
/var/tmp/pbs.5076255.sched01/tmpnv36izql/0kitkh5ys.sdf

>  <i_m_source_file_index>  (25) 
9

>  <i_lp_mmshare_version>  (25) 
48012

>  <i_f3d_flags>  (25) 
0

>  <s_epik_input>  (25) 
W09IXVtDQEBIXTFbQ0hdPVtDSF1bQ0BASF0oW09IXSlbQ0BAXTEyW0NAQEhdM1tDQEhdNFtDQEBIXTNbQ0BIXTVbQ0BIXTZbQ0BIXTdbQ0BIXShbQ0gyXTQpW0NAQF0yKFtPSF0pW0NASF03W0NASF02W0NIMl01

>  <s_epik_cmdline>  (25) 
J2VwaWtfcHl0aG9uJywgJy1waHQnLCAnMi4wJywgJy1waCcsICc3LjAnLCAnLXRuJywgJzgnLCAnLW1hJywgJzIwMCcsICctaW1hZScsICc8aW5maWxlLm1hZT4nLCAnLW9tYWUnLCAnPG91dGZpbGUubWFlPic=

>  <r_lp_tautomer_probability>  (25) 
1

>  <r_epik_Ionization_Penalty>  (25) 
7.77546e-07

>  <r_epik_Ionization_Penalty_Charging>  (25) 
0

>  <r_epik_Ionization_Penalty_Neutral>  (25) 
7.77546e-07

>  <r_epik_State_Penalty>  (25) 
-0

>  <r_epik_Charging_Adjusted_Penalty>  (25) 
0

>  <i_epik_Tot_Q>  (25) 
0

>  <i_epik_Tot_abs_Q>  (25) 
0

>  <s_lp_Force_Field>  (25) 
OPLS3e

>  <r_lp_Energy>  (25) 
300.415

>  <b_lp_Chiralities_Consistent>  (25) 
1

>  <s_lp_Variant>  (25) 
5:0-1

>  <s_i_glide_gridfile>  (25) 
pfpi4k_grid

>  <i_i_glide_lignum>  (25) 
9

>  <i_i_glide_rotatable_bonds>  (25) 
3

>  <r_i_docking_score>  (25) 
-3.3532

>  <r_i_glide_ligand_efficiency>  (25) 
-0.16766

>  <r_i_glide_ligand_efficiency_sa>  (25) 
-0.4551

>  <r_i_glide_ligand_efficiency_ln>  (25) 
-0.839196

>  <r_i_glide_gscore>  (25) 
-3.3532

>  <r_i_glide_lipo>  (25) 
-0.404262

>  <r_i_glide_hbond>  (25) 
0

>  <r_i_glide_metal>  (25) 
-0

>  <r_i_glide_rewards>  (25) 
-1.55223

>  <r_i_glide_evdw>  (25) 
-20.1086

>  <r_i_glide_ecoul>  (25) 
-2.60853

>  <r_i_glide_erotb>  (25) 
0

>  <r_i_glide_esite>  (25) 
0

>  <r_i_glide_emodel>  (25) 
-27.5715

>  <r_i_glide_energy>  (25) 
-22.7171

>  <r_i_glide_einternal>  (25) 
0.54956

>  <r_i_glide_intrahb_reward>  (25) 
-0

>  <i_i_glide_confnum>  (25) 
2

>  <i_i_glide_posenum>  (25) 
11

>  <r_i_glide_eff_state_penalty>  (25) 
0

>  <ligand_id>  (25) 
5

>  <original_smiles>  (25) 
OC1C=CC(O)C12C1C3CC4C5C6C(CC6C5C42O)C31

>  <smiles>  (25) 
[H]OC1([H])C([H])=C([H])C([H])(O[H])C12C1([H])C3([H])C([H])([H])C4([H])C5([H])C6([H])C([H])(C([H])([H])C6([H])C5([H])C42O[H])C31[H]

$$$$
6:0:0
     RDKit          3D

 27 28  0  0  1  0  0  0  0  0999 V2000
    2.2821   -2.6612   -3.5635 C   0  0  0  0  0  0  0  0  0  0  0  0
    3.1909   -1.4216   -3.3924 C   0  0  2  0  0  0  0  0  0  0  0  0
    3.7737   -1.0898   -4.6402 O   0  0  0  0  0  0  0  0  0  0  0  0
    4.2527   -1.5570   -2.2951 C   0  0  2  0  0  0  0  0  0  0  0  0
    5.0494   -2.8713   -2.3399 C   0  0  0  0  0  0  0  0  0  0  0  0
    5.8042   -3.4287   -3.1118 O   0  0  0  0  0  0  0  0  0  0  0  0
    4.6223   -3.1951   -1.0713 N   0  0  0  0  0  0  0  0  0  0  0  0
    3.7996   -2.0171   -0.9023 C   0  0  1  0  0  0  0  0  0  0  0  0
    4.4377   -1.3985    0.6880 S   0  0  0  0  0  0  0  0  0  0  0  0
    5.3783   -2.9100    1.1237 C   0  0  1  0  0  0  0  0  0  0  0  0
    5.1047   -3.3658    2.5622 C   0  0  0  0  0  0  0  0  0  0  0  0
    5.1117   -3.9837    0.0303 C   0  0  1  0  0  0  0  0  0  0  0  0
    4.0827   -5.0655    0.4135 C   0  0  0  0  0  0  0  0  0  0  0  0
    4.5179   -6.2284    0.5649 O   0  0  0  0  0  0  0  0  0  0  0  0
    2.8780   -4.7368    0.5512 O   0  0  0  0  0  0  0  0  0  0  0  0
    1.7308   -2.8964   -2.6589 H   0  0  0  0  0  0  0  0  0  0  0  0
    2.8495   -3.5509   -3.8439 H   0  0  0  0  0  0  0  0  0  0  0  0
    1.5232   -2.5050   -4.3233 H   0  0  0  0  0  0  0  0  0  0  0  0
    2.5682   -0.5726   -3.1205 H   0  0  0  0  0  0  0  0  0  0  0  0
    3.0625   -0.9143   -5.2523 H   0  0  0  0  0  0  0  0  0  0  0  0
    4.8874   -0.6725   -2.2110 H   0  0  0  0  0  0  0  0  0  0  0  0
    2.7406   -2.2603   -0.8180 H   0  0  0  0  0  0  0  0  0  0  0  0
    6.4191   -2.6079    1.0381 H   0  0  0  0  0  0  0  0  0  0  0  0
    5.6475   -4.2866    2.7726 H   0  0  0  0  0  0  0  0  0  0  0  0
    4.0459   -3.5628    2.7243 H   0  0  0  0  0  0  0  0  0  0  0  0
    5.4075   -2.6223    3.2971 H   0  0  0  0  0  0  0  0  0  0  0  0
    6.0479   -4.4664   -0.2747 H   0  0  0  0  0  0  0  0  0  0  0  0
  1  2  1  0
  1 16  1  0
  1 17  1  0
  1 18  1  0
  2  3  1  0
  2  4  1  0
  2 19  1  1
  3 20  1  0
  4  8  1  0
  4  5  1  0
  4 21  1  1
  5  6  2  0
  5  7  1  0
  7 12  1  0
  7  8  1  0
  8  9  1  0
  8 22  1  1
  9 10  1  0
 10 11  1  0
 10 12  1  0
 10 23  1  1
 11 24  1  0
 11 25  1  0
 11 26  1  0
 12 13  1  0
 12 27  1  6
 13 14  2  0
 13 15  1  0
M  CHG  1  15  -1
M  END
>  <i_m_ct_stereo_status>  (26) 
1

>  <s_m_source_file>  (26) 
/var/tmp/pbs.5076255.sched01/tmpnv36izql/0kitkh5ys.sdf

>  <i_m_source_file_index>  (26) 
10

>  <i_lp_mmshare_version>  (26) 
48012

>  <i_f3d_flags>  (26) 
0

>  <s_epik_input>  (26) 
W0NIM11bQ0BIXShbT0hdKVtDQEhdKEMxPU8pW0NAQEhdKE4xMilTW0NAQEhdKFtDSDNdKVtDQEhdMkMoPU8pW09IXQ==

>  <s_epik_cmdline>  (26) 
J2VwaWtfcHl0aG9uJywgJy1waHQnLCAnMi4wJywgJy1waCcsICc3LjAnLCAnLXRuJywgJzgnLCAnLW1hJywgJzIwMCcsICctaW1hZScsICc8aW5maWxlLm1hZT4nLCAnLW9tYWUnLCAnPG91dGZpbGUubWFlPic=

>  <r_lp_tautomer_probability>  (26) 
1

>  <r_epik_Ionization_Penalty>  (26) 
4.48638e-05

>  <r_epik_Ionization_Penalty_Charging>  (26) 
4.48083e-05

>  <r_epik_Ionization_Penalty_Neutral>  (26) 
5.55451e-08

>  <r_epik_State_Penalty>  (26) 
-0

>  <r_epik_Charging_Adjusted_Penalty>  (26) 
4.48083e-05

>  <i_epik_Tot_Q>  (26) 
-1

>  <i_epik_Tot_abs_Q>  (26) 
1

>  <s_epik_Chemistry_Notes>  (26) 
This compound contains an acetal/aminal-like group ( X-CH(R)-Y where X, Y are N, S, or O) that may be acid/base labile, releasing an aldehyde.

>  <s_lp_Force_Field>  (26) 
OPLS3e

>  <r_lp_Energy>  (26) 
6.96959

>  <b_lp_Chiralities_Consistent>  (26) 
1

>  <s_lp_Variant>  (26) 
6:0-1

>  <s_i_glide_gridfile>  (26) 
pfpi4k_grid

>  <i_i_glide_lignum>  (26) 
10

>  <i_i_glide_rotatable_bonds>  (26) 
3

>  <r_i_docking_score>  (26) 
-3.99849

>  <r_i_glide_ligand_efficiency>  (26) 
-0.266566

>  <r_i_glide_ligand_efficiency_sa>  (26) 
-0.657409

>  <r_i_glide_ligand_efficiency_ln>  (26) 
-1.07833

>  <r_i_glide_gscore>  (26) 
-3.99849

>  <r_i_glide_lipo>  (26) 
-0.552431

>  <r_i_glide_hbond>  (26) 
0

>  <r_i_glide_metal>  (26) 
-0

>  <r_i_glide_rewards>  (26) 
-2.0962

>  <r_i_glide_evdw>  (26) 
-24.997

>  <r_i_glide_ecoul>  (26) 
-2.81454

>  <r_i_glide_erotb>  (26) 
0.32217

>  <r_i_glide_esite>  (26) 
0

>  <r_i_glide_emodel>  (26) 
-35.0344

>  <r_i_glide_energy>  (26) 
-27.8115

>  <r_i_glide_einternal>  (26) 
0.356097

>  <r_i_glide_intrahb_reward>  (26) 
-0

>  <i_i_glide_confnum>  (26) 
4

>  <i_i_glide_posenum>  (26) 
35

>  <r_i_glide_eff_state_penalty>  (26) 
0

>  <ligand_id>  (26) 
6

>  <original_smiles>  (26) 
CC(O)C1C(=O)N2C1SC(C)C2C(=O)O

>  <smiles>  (26) 
[H]OC([H])(C([H])([H])[H])C1([H])C(=O)N2C1([H])SC([H])(C([H])([H])[H])C2([H])C(=O)[O-]

$$$$
6:0:1
     RDKit          3D

 27 28  0  0  1  0  0  0  0  0999 V2000
    2.5767   -3.0464   -3.4169 C   0  0  0  0  0  0  0  0  0  0  0  0
    3.2636   -1.8188   -2.7777 C   0  0  2  0  0  0  0  0  0  0  0  0
    4.1911   -1.2700   -3.6900 O   0  0  0  0  0  0  0  0  0  0  0  0
    3.8934   -2.0658   -1.3941 C   0  0  2  0  0  0  0  0  0  0  0  0
    4.7392   -3.3450   -1.2962 C   0  0  0  0  0  0  0  0  0  0  0  0
    5.7313   -3.7782   -1.8135 O   0  0  0  0  0  0  0  0  0  0  0  0
    3.9265   -3.8132   -0.2758 N   0  0  0  0  0  0  0  0  0  0  0  0
    3.0351   -2.6765   -0.2796 C   0  0  1  0  0  0  0  0  0  0  0  0
    3.0801   -2.2316    1.4888 S   0  0  0  0  0  0  0  0  0  0  0  0
    3.8906   -3.7692    2.0610 C   0  0  1  0  0  0  0  0  0  0  0  0
    3.1843   -4.3644    3.2911 C   0  0  0  0  0  0  0  0  0  0  0  0
    4.0407   -4.7219    0.8320 C   0  0  1  0  0  0  0  0  0  0  0  0
    3.0003   -5.8347    0.7335 C   0  0  0  0  0  0  0  0  0  0  0  0
    3.3945   -7.0088    0.9554 O   0  0  0  0  0  0  0  0  0  0  0  0
    1.7935   -5.5362    0.4697 O   0  0  0  0  0  0  0  0  0  0  0  0
    1.7884   -3.4403   -2.7799 H   0  0  0  0  0  0  0  0  0  0  0  0
    3.2802   -3.8590   -3.5953 H   0  0  0  0  0  0  0  0  0  0  0  0
    2.1078   -2.8065   -4.3708 H   0  0  0  0  0  0  0  0  0  0  0  0
    2.5040   -1.0537   -2.6360 H   0  0  0  0  0  0  0  0  0  0  0  0
    3.6919   -0.7978   -4.3586 H   0  0  0  0  0  0  0  0  0  0  0  0
    4.4168   -1.1922   -1.0047 H   0  0  0  0  0  0  0  0  0  0  0  0
    2.0251   -2.9574   -0.5711 H   0  0  0  0  0  0  0  0  0  0  0  0
    4.8895   -3.4464    2.3379 H   0  0  0  0  0  0  0  0  0  0  0  0
    3.6602   -5.3043    3.5725 H   0  0  0  0  0  0  0  0  0  0  0  0
    2.1361   -4.5777    3.0846 H   0  0  0  0  0  0  0  0  0  0  0  0
    3.1948   -3.6965    4.1541 H   0  0  0  0  0  0  0  0  0  0  0  0
    5.0498   -5.1520    0.8084 H   0  0  0  0  0  0  0  0  0  0  0  0
  1  2  1  0
  1 16  1  0
  1 17  1  0
  1 18  1  0
  2  3  1  0
  2  4  1  0
  2 19  1  1
  3 20  1  0
  4  8  1  0
  4  5  1  0
  4 21  1  1
  5  6  2  0
  5  7  1  0
  7 12  1  0
  7  8  1  0
  8  9  1  0
  8 22  1  6
  9 10  1  0
 10 11  1  0
 10 12  1  0
 10 23  1  1
 11 24  1  0
 11 25  1  0
 11 26  1  0
 12 13  1  0
 12 27  1  1
 13 14  2  0
 13 15  1  0
M  CHG  1  15  -1
M  END
>  <i_m_ct_stereo_status>  (27) 
1

>  <s_m_source_file>  (27) 
/var/tmp/pbs.5076255.sched01/tmpnv36izql/0kitkh5ys.sdf

>  <i_m_source_file_index>  (27) 
10

>  <i_lp_mmshare_version>  (27) 
48012

>  <i_f3d_flags>  (27) 
0

>  <s_epik_input>  (27) 
W0NIM11bQ0BIXShbT0hdKVtDQEhdKEMxPU8pW0NAQEhdKE4xMilTW0NAQEhdKFtDSDNdKVtDQEhdMkMoPU8pW09IXQ==

>  <s_epik_cmdline>  (27) 
J2VwaWtfcHl0aG9uJywgJy1waHQnLCAnMi4wJywgJy1waCcsICc3LjAnLCAnLXRuJywgJzgnLCAnLW1hJywgJzIwMCcsICctaW1hZScsICc8aW5maWxlLm1hZT4nLCAnLW9tYWUnLCAnPG91dGZpbGUubWFlPic=

>  <r_lp_tautomer_probability>  (27) 
1

>  <r_epik_Ionization_Penalty>  (27) 
4.48638e-05

>  <r_epik_Ionization_Penalty_Charging>  (27) 
4.48083e-05

>  <r_epik_Ionization_Penalty_Neutral>  (27) 
5.55451e-08

>  <r_epik_State_Penalty>  (27) 
-0

>  <r_epik_Charging_Adjusted_Penalty>  (27) 
4.48083e-05

>  <i_epik_Tot_Q>  (27) 
-1

>  <i_epik_Tot_abs_Q>  (27) 
1

>  <s_epik_Chemistry_Notes>  (27) 
This compound contains an acetal/aminal-like group ( X-CH(R)-Y where X, Y are N, S, or O) that may be acid/base labile, releasing an aldehyde.

>  <s_lp_Force_Field>  (27) 
OPLS3e

>  <r_lp_Energy>  (27) 
6.96959

>  <b_lp_Chiralities_Consistent>  (27) 
1

>  <s_lp_Variant>  (27) 
6:0-1

>  <s_i_glide_gridfile>  (27) 
pfpi4k_grid

>  <i_i_glide_lignum>  (27) 
10

>  <i_i_glide_rotatable_bonds>  (27) 
3

>  <r_i_docking_score>  (27) 
-3.37183

>  <r_i_glide_ligand_efficiency>  (27) 
-0.224789

>  <r_i_glide_ligand_efficiency_sa>  (27) 
-0.554377

>  <r_i_glide_ligand_efficiency_ln>  (27) 
-0.909328

>  <r_i_glide_gscore>  (27) 
-3.37183

>  <r_i_glide_lipo>  (27) 
-0.226459

>  <r_i_glide_hbond>  (27) 
-0.127804

>  <r_i_glide_metal>  (27) 
-0

>  <r_i_glide_rewards>  (27) 
-1.89014

>  <r_i_glide_evdw>  (27) 
-20.1055

>  <r_i_glide_ecoul>  (27) 
-2.83627

>  <r_i_glide_erotb>  (27) 
0.32217

>  <r_i_glide_esite>  (27) 
-0.0188832

>  <r_i_glide_emodel>  (27) 
-28.685

>  <r_i_glide_energy>  (27) 
-22.9418

>  <r_i_glide_einternal>  (27) 
0.597456

>  <r_i_glide_intrahb_reward>  (27) 
-0

>  <i_i_glide_confnum>  (27) 
4

>  <i_i_glide_posenum>  (27) 
5

>  <r_i_glide_eff_state_penalty>  (27) 
0

>  <ligand_id>  (27) 
6

>  <original_smiles>  (27) 
CC(O)C1C(=O)N2C1SC(C)C2C(=O)O

>  <smiles>  (27) 
[H]OC([H])(C([H])([H])[H])C1([H])C(=O)N2C1([H])SC([H])(C([H])([H])[H])C2([H])C(=O)[O-]

$$$$
6:0:2
     RDKit          3D

 27 28  0  0  1  0  0  0  0  0999 V2000
    2.5272   -3.0211   -3.4087 C   0  0  0  0  0  0  0  0  0  0  0  0
    3.2591   -1.8119   -2.7961 C   0  0  2  0  0  0  0  0  0  0  0  0
    4.2232   -1.3726   -3.7256 O   0  0  0  0  0  0  0  0  0  0  0  0
    3.8895   -2.0553   -1.4076 C   0  0  2  0  0  0  0  0  0  0  0  0
    4.7300   -3.3322   -1.3134 C   0  0  0  0  0  0  0  0  0  0  0  0
    5.7298   -3.7637   -1.8421 O   0  0  0  0  0  0  0  0  0  0  0  0
    3.9267   -3.8068   -0.2914 N   0  0  0  0  0  0  0  0  0  0  0  0
    3.0326   -2.6698   -0.2943 C   0  0  1  0  0  0  0  0  0  0  0  0
    3.0824   -2.2232    1.4736 S   0  0  0  0  0  0  0  0  0  0  0  0
    3.8776   -3.7655    2.0467 C   0  0  1  0  0  0  0  0  0  0  0  0
    3.1601   -4.3600    3.2689 C   0  0  0  0  0  0  0  0  0  0  0  0
    4.0381   -4.7167    0.8178 C   0  0  1  0  0  0  0  0  0  0  0  0
    2.9923   -5.8312    0.7200 C   0  0  0  0  0  0  0  0  0  0  0  0
    3.3862   -7.0034    0.9512 O   0  0  0  0  0  0  0  0  0  0  0  0
    1.7968   -5.5378    0.4299 O   0  0  0  0  0  0  0  0  0  0  0  0
    1.7152   -3.3672   -2.7765 H   0  0  0  0  0  0  0  0  0  0  0  0
    3.2019   -3.8590   -3.5724 H   0  0  0  0  0  0  0  0  0  0  0  0
    2.0764   -2.7710   -4.3670 H   0  0  0  0  0  0  0  0  0  0  0  0
    2.5432   -0.9924   -2.6971 H   0  0  0  0  0  0  0  0  0  0  0  0
    4.9309   -2.0245   -3.7486 H   0  0  0  0  0  0  0  0  0  0  0  0
    4.4226   -1.1880   -1.0227 H   0  0  0  0  0  0  0  0  0  0  0  0
    2.0248   -2.9583   -0.5794 H   0  0  0  0  0  0  0  0  0  0  0  0
    4.8753   -3.4457    2.3308 H   0  0  0  0  0  0  0  0  0  0  0  0
    3.6329   -5.2961    3.5630 H   0  0  0  0  0  0  0  0  0  0  0  0
    2.1143   -4.5721    3.0522 H   0  0  0  0  0  0  0  0  0  0  0  0
    3.1644   -3.6885    4.1325 H   0  0  0  0  0  0  0  0  0  0  0  0
    5.0458   -5.1454    0.8009 H   0  0  0  0  0  0  0  0  0  0  0  0
  1  2  1  0
  1 16  1  0
  1 17  1  0
  1 18  1  0
  2  3  1  0
  2  4  1  0
  2 19  1  1
  3 20  1  0
  4  8  1  0
  4  5  1  0
  4 21  1  1
  5  6  2  0
  5  7  1  0
  7 12  1  0
  7  8  1  0
  8  9  1  0
  8 22  1  6
  9 10  1  0
 10 11  1  0
 10 12  1  0
 10 23  1  1
 11 24  1  0
 11 25  1  0
 11 26  1  0
 12 13  1  0
 12 27  1  1
 13 14  2  0
 13 15  1  0
M  CHG  1  15  -1
M  END
>  <i_m_ct_stereo_status>  (28) 
1

>  <s_m_source_file>  (28) 
/var/tmp/pbs.5076255.sched01/tmpnv36izql/0kitkh5ys.sdf

>  <i_m_source_file_index>  (28) 
10

>  <i_lp_mmshare_version>  (28) 
48012

>  <i_f3d_flags>  (28) 
0

>  <s_epik_input>  (28) 
W0NIM11bQ0BIXShbT0hdKVtDQEhdKEMxPU8pW0NAQEhdKE4xMilTW0NAQEhdKFtDSDNdKVtDQEhdMkMoPU8pW09IXQ==

>  <s_epik_cmdline>  (28) 
J2VwaWtfcHl0aG9uJywgJy1waHQnLCAnMi4wJywgJy1waCcsICc3LjAnLCAnLXRuJywgJzgnLCAnLW1hJywgJzIwMCcsICctaW1hZScsICc8aW5maWxlLm1hZT4nLCAnLW9tYWUnLCAnPG91dGZpbGUubWFlPic=

>  <r_lp_tautomer_probability>  (28) 
1

>  <r_epik_Ionization_Penalty>  (28) 
4.48638e-05

>  <r_epik_Ionization_Penalty_Charging>  (28) 
4.48083e-05

>  <r_epik_Ionization_Penalty_Neutral>  (28) 
5.55451e-08

>  <r_epik_State_Penalty>  (28) 
-0

>  <r_epik_Charging_Adjusted_Penalty>  (28) 
4.48083e-05

>  <i_epik_Tot_Q>  (28) 
-1

>  <i_epik_Tot_abs_Q>  (28) 
1

>  <s_epik_Chemistry_Notes>  (28) 
This compound contains an acetal/aminal-like group ( X-CH(R)-Y where X, Y are N, S, or O) that may be acid/base labile, releasing an aldehyde.

>  <s_lp_Force_Field>  (28) 
OPLS3e

>  <r_lp_Energy>  (28) 
6.96959

>  <b_lp_Chiralities_Consistent>  (28) 
1

>  <s_lp_Variant>  (28) 
6:0-1

>  <s_i_glide_gridfile>  (28) 
pfpi4k_grid

>  <i_i_glide_lignum>  (28) 
10

>  <i_i_glide_rotatable_bonds>  (28) 
3

>  <r_i_docking_score>  (28) 
-3.25813

>  <r_i_glide_ligand_efficiency>  (28) 
-0.217209

>  <r_i_glide_ligand_efficiency_sa>  (28) 
-0.535683

>  <r_i_glide_ligand_efficiency_ln>  (28) 
-0.878665

>  <r_i_glide_gscore>  (28) 
-3.25813

>  <r_i_glide_lipo>  (28) 
-0.227636

>  <r_i_glide_hbond>  (28) 
-0.124447

>  <r_i_glide_metal>  (28) 
-0

>  <r_i_glide_rewards>  (28) 
-1.88644

>  <r_i_glide_evdw>  (28) 
-20.1016

>  <r_i_glide_ecoul>  (28) 
-2.11446

>  <r_i_glide_erotb>  (28) 
0.32217

>  <r_i_glide_esite>  (28) 
-0.0195324

>  <r_i_glide_emodel>  (28) 
-28.1954

>  <r_i_glide_energy>  (28) 
-22.216

>  <r_i_glide_einternal>  (28) 
0.0603952

>  <r_i_glide_intrahb_reward>  (28) 
-0

>  <i_i_glide_confnum>  (28) 
2

>  <i_i_glide_posenum>  (28) 
36

>  <r_i_glide_eff_state_penalty>  (28) 
0

>  <ligand_id>  (28) 
6

>  <original_smiles>  (28) 
CC(O)C1C(=O)N2C1SC(C)C2C(=O)O

>  <smiles>  (28) 
[H]OC([H])(C([H])([H])[H])C1([H])C(=O)N2C1([H])SC([H])(C([H])([H])[H])C2([H])C(=O)[O-]

$$$$
7:0:0
     RDKit          3D

 25 27  0  0  1  0  0  0  0  0999 V2000
    3.7168   -0.3355   -3.1440 C   0  0  0  0  0  0  0  0  0  0  0  0
    4.4207   -1.6177   -2.7187 C   0  0  0  0  0  0  0  0  0  0  0  0
    5.5013   -1.5410   -1.9075 C   0  0  0  0  0  0  0  0  0  0  0  0
    5.1632   -1.3082   -0.4390 C   0  0  0  0  0  0  0  0  0  0  0  0
    4.5976   -2.6929   -0.1947 C   0  0  1  0  0  0  0  0  0  0  0  0
    5.7517   -3.5319   -0.7775 C   0  0  0  0  0  0  0  0  0  0  0  0
    6.2162   -2.7149   -1.8438 O   0  0  0  0  0  0  0  0  0  0  0  0
    4.2039   -3.1713    1.0870 O   0  0  0  0  0  0  0  0  0  0  0  0
    3.2555   -4.2111    0.8286 N   0  0  0  0  0  0  0  0  0  0  0  0
    2.7626   -4.0195   -0.3259 C   0  0  0  0  0  0  0  0  0  0  0  0
    3.2832   -2.7928   -0.9699 C   0  0  2  0  0  0  0  0  0  0  0  0
    3.5213   -2.6505   -2.4193 N   0  0  0  0  0  0  0  0  0  0  0  0
    2.4809   -3.0614   -3.3544 C   0  0  0  0  0  0  0  0  0  0  0  0
    4.2174    0.5412   -2.7272 H   0  0  0  0  0  0  0  0  0  0  0  0
    2.6799   -0.3087   -2.8001 H   0  0  0  0  0  0  0  0  0  0  0  0
    6.0677   -1.1256    0.1472 H   0  0  0  0  0  0  0  0  0  0  0  0
    4.4453   -0.5027   -0.2755 H   0  0  0  0  0  0  0  0  0  0  0  0
    6.5595   -3.6447   -0.0547 H   0  0  0  0  0  0  0  0  0  0  0  0
    5.4595   -4.5228   -1.1255 H   0  0  0  0  0  0  0  0  0  0  0  0
    2.0294   -4.6436   -0.8368 H   0  0  0  0  0  0  0  0  0  0  0  0
    2.6234   -1.9770   -0.6733 H   0  0  0  0  0  0  0  0  0  0  0  0
    2.8605   -3.0279   -4.3760 H   0  0  0  0  0  0  0  0  0  0  0  0
    1.6240   -2.3952   -3.2919 H   0  0  0  0  0  0  0  0  0  0  0  0
    2.1430   -4.0760   -3.1610 H   0  0  0  0  0  0  0  0  0  0  0  0
    3.7274   -0.2381   -4.2303 H   0  0  0  0  0  0  0  0  0  0  0  0
  1  2  1  0
  1 14  1  0
  1 15  1  0
  1 25  1  0
  2 12  1  0
  2  3  2  0
  3  7  1  0
  3  4  1  0
  4  5  1  0
  4 16  1  0
  4 17  1  0
  5 11  1  0
  5  6  1  0
  5  8  1  1
  6  7  1  0
  6 18  1  0
  6 19  1  0
  8  9  1  0
  9 10  2  0
 10 11  1  0
 10 20  1  0
 11 12  1  0
 11 21  1  1
 12 13  1  0
 13 22  1  0
 13 23  1  0
 13 24  1  0
M  END
>  <i_m_ct_stereo_status>  (29) 
1

>  <s_m_source_file>  (29) 
/var/tmp/pbs.5076255.sched01/tmpnv36izql/0kitkh5ys.sdf

>  <i_m_source_file_index>  (29) 
11

>  <i_lp_mmshare_version>  (29) 
48012

>  <i_f3d_flags>  (29) 
0

>  <s_epik_input>  (29) 
W0NIMl0xT1tDQEhdKFtDSDJdMilDKD1bQ0gyXSlOKFtDSDNdKVtDQEhdKFtDQEBdMTIzKVtDSF09Tk8z

>  <s_epik_cmdline>  (29) 
J2VwaWtfcHl0aG9uJywgJy1waHQnLCAnMi4wJywgJy1waCcsICc3LjAnLCAnLXRuJywgJzgnLCAnLW1hJywgJzIwMCcsICctaW1hZScsICc8aW5maWxlLm1hZT4nLCAnLW9tYWUnLCAnPG91dGZpbGUubWFlPic=

>  <r_lp_tautomer_probability>  (29) 
1

>  <r_epik_Ionization_Penalty>  (29) 
8.16202e-08

>  <r_epik_Ionization_Penalty_Charging>  (29) 
2.88833e-09

>  <r_epik_Ionization_Penalty_Neutral>  (29) 
7.87319e-08

>  <r_epik_State_Penalty>  (29) 
-0

>  <r_epik_Charging_Adjusted_Penalty>  (29) 
2.88833e-09

>  <i_epik_Tot_Q>  (29) 
0

>  <i_epik_Tot_abs_Q>  (29) 
0

>  <s_epik_Chemistry_Notes>  (29) 
This compound has an imine and may undergo hydrolysis.

>  <s_lp_Force_Field>  (29) 
OPLS3e

>  <r_lp_Energy>  (29) 
65.0075

>  <b_lp_Chiralities_Consistent>  (29) 
1

>  <s_lp_Variant>  (29) 
7:0-1

>  <s_i_glide_gridfile>  (29) 
pfpi4k_grid

>  <i_i_glide_lignum>  (29) 
11

>  <i_i_glide_rotatable_bonds>  (29) 
0

>  <r_i_docking_score>  (29) 
-3.93272

>  <r_i_glide_ligand_efficiency>  (29) 
-0.302517

>  <r_i_glide_ligand_efficiency_sa>  (29) 
-0.711319

>  <r_i_glide_ligand_efficiency_ln>  (29) 
-1.10316

>  <r_i_glide_gscore>  (29) 
-3.93272

>  <r_i_glide_lipo>  (29) 
-0.427058

>  <r_i_glide_hbond>  (29) 
0

>  <r_i_glide_metal>  (29) 
-0

>  <r_i_glide_rewards>  (29) 
-2.18043

>  <r_i_glide_evdw>  (29) 
-17.2257

>  <r_i_glide_ecoul>  (29) 
-2.66425

>  <r_i_glide_erotb>  (29) 
0

>  <r_i_glide_esite>  (29) 
-0.0643099

>  <r_i_glide_emodel>  (29) 
-24.8181

>  <r_i_glide_energy>  (29) 
-19.89

>  <r_i_glide_einternal>  (29) 
0

>  <r_i_glide_intrahb_reward>  (29) 
-0

>  <i_i_glide_confnum>  (29) 
1

>  <i_i_glide_posenum>  (29) 
28

>  <r_i_glide_eff_state_penalty>  (29) 
0

>  <ligand_id>  (29) 
7

>  <original_smiles>  (29) 
C=C1C2CC3(CO2)ON=CC3N1C

>  <smiles>  (29) 
[H]C1=NOC23C([H])([H])OC(=C(C([H])([H])[H])N(C([H])([H])[H])C12[H])C3([H])[H]

$$$$
7:0:1
     RDKit          3D

 25 27  0  0  1  0  0  0  0  0999 V2000
    4.0686    0.3568   -3.5452 C   0  0  0  0  0  0  0  0  0  0  0  0
    4.5987   -0.9656   -3.0308 C   0  0  0  0  0  0  0  0  0  0  0  0
    5.3700   -1.0537   -1.8928 C   0  0  0  0  0  0  0  0  0  0  0  0
    4.5657   -1.0363   -0.5944 C   0  0  0  0  0  0  0  0  0  0  0  0
    3.9253   -2.3905   -0.7904 C   0  0  1  0  0  0  0  0  0  0  0  0
    5.1794   -3.2235   -1.1281 C   0  0  0  0  0  0  0  0  0  0  0  0
    5.9898   -2.2663   -1.8166 O   0  0  0  0  0  0  0  0  0  0  0  0
    3.1162   -3.0437    0.1936 O   0  0  0  0  0  0  0  0  0  0  0  0
    2.2636   -3.8947   -0.5667 N   0  0  0  0  0  0  0  0  0  0  0  0
    2.1913   -3.4547   -1.7569 C   0  0  0  0  0  0  0  0  0  0  0  0
    2.9739   -2.2324   -1.9695 C   0  0  2  0  0  0  0  0  0  0  0  0
    3.7265   -2.0103   -3.2024 N   0  0  0  0  0  0  0  0  0  0  0  0
    2.9997   -2.0955   -4.4395 C   0  0  0  0  0  0  0  0  0  0  0  0
    4.3867    1.1158   -2.8531 H   0  0  0  0  0  0  0  0  0  0  0  0
    2.9710    0.4174   -3.5770 H   0  0  0  0  0  0  0  0  0  0  0  0
    5.2331   -1.0094    0.2620 H   0  0  0  0  0  0  0  0  0  0  0  0
    3.7983   -0.2650   -0.5253 H   0  0  0  0  0  0  0  0  0  0  0  0
    5.7303   -3.5140   -0.2397 H   0  0  0  0  0  0  0  0  0  0  0  0
    5.0037   -4.1237   -1.7409 H   0  0  0  0  0  0  0  0  0  0  0  0
    1.6959   -3.8273   -2.6300 H   0  0  0  0  0  0  0  0  0  0  0  0
    2.3040   -1.3854   -1.9460 H   0  0  0  0  0  0  0  0  0  0  0  0
    3.7100   -1.7590   -5.1667 H   0  0  0  0  0  0  0  0  0  0  0  0
    2.1642   -1.4034   -4.4549 H   0  0  0  0  0  0  0  0  0  0  0  0
    2.6762   -3.1045   -4.6481 H   0  0  0  0  0  0  0  0  0  0  0  0
    4.4528    0.6217   -4.5381 H   0  0  0  0  0  0  0  0  0  0  0  0
  1  2  1  0
  1 14  1  0
  1 15  1  0
  1 25  1  0
  2 12  1  0
  2  3  2  0
  3  7  1  0
  3  4  1  0
  4  5  1  0
  4 16  1  0
  4 17  1  0
  5 11  1  0
  5  6  1  0
  5  8  1  1
  6  7  1  0
  6 18  1  0
  6 19  1  0
  8  9  1  0
  9 10  2  0
 10 11  1  0
 10 20  1  0
 11 12  1  0
 11 21  1  1
 12 13  1  0
 13 22  1  0
 13 23  1  0
 13 24  1  0
M  END
>  <i_m_ct_stereo_status>  (30) 
1

>  <s_m_source_file>  (30) 
/var/tmp/pbs.5076255.sched01/tmpnv36izql/0kitkh5ys.sdf

>  <i_m_source_file_index>  (30) 
11

>  <i_lp_mmshare_version>  (30) 
48012

>  <i_f3d_flags>  (30) 
0

>  <s_epik_input>  (30) 
W0NIMl0xT1tDQEhdKFtDSDJdMilDKD1bQ0gyXSlOKFtDSDNdKVtDQEhdKFtDQEBdMTIzKVtDSF09Tk8z

>  <s_epik_cmdline>  (30) 
J2VwaWtfcHl0aG9uJywgJy1waHQnLCAnMi4wJywgJy1waCcsICc3LjAnLCAnLXRuJywgJzgnLCAnLW1hJywgJzIwMCcsICctaW1hZScsICc8aW5maWxlLm1hZT4nLCAnLW9tYWUnLCAnPG91dGZpbGUubWFlPic=

>  <r_lp_tautomer_probability>  (30) 
1

>  <r_epik_Ionization_Penalty>  (30) 
8.16202e-08

>  <r_epik_Ionization_Penalty_Charging>  (30) 
2.88833e-09

>  <r_epik_Ionization_Penalty_Neutral>  (30) 
7.87319e-08

>  <r_epik_State_Penalty>  (30) 
-0

>  <r_epik_Charging_Adjusted_Penalty>  (30) 
2.88833e-09

>  <i_epik_Tot_Q>  (30) 
0

>  <i_epik_Tot_abs_Q>  (30) 
0

>  <s_epik_Chemistry_Notes>  (30) 
This compound has an imine and may undergo hydrolysis.

>  <s_lp_Force_Field>  (30) 
OPLS3e

>  <r_lp_Energy>  (30) 
65.0075

>  <b_lp_Chiralities_Consistent>  (30) 
1

>  <s_lp_Variant>  (30) 
7:0-1

>  <s_i_glide_gridfile>  (30) 
pfpi4k_grid

>  <i_i_glide_lignum>  (30) 
11

>  <i_i_glide_rotatable_bonds>  (30) 
0

>  <r_i_docking_score>  (30) 
-3.53574

>  <r_i_glide_ligand_efficiency>  (30) 
-0.27198

>  <r_i_glide_ligand_efficiency_sa>  (30) 
-0.639516

>  <r_i_glide_ligand_efficiency_ln>  (30) 
-0.991806

>  <r_i_glide_gscore>  (30) 
-3.53574

>  <r_i_glide_lipo>  (30) 
-0.0700113

>  <r_i_glide_hbond>  (30) 
-0.00484065

>  <r_i_glide_metal>  (30) 
-0

>  <r_i_glide_rewards>  (30) 
-2.54676

>  <r_i_glide_evdw>  (30) 
-8.56436

>  <r_i_glide_ecoul>  (30) 
-2.67535

>  <r_i_glide_erotb>  (30) 
0

>  <r_i_glide_esite>  (30) 
-0.0846003

>  <r_i_glide_emodel>  (30) 
-14.8238

>  <r_i_glide_energy>  (30) 
-11.2397

>  <r_i_glide_einternal>  (30) 
0

>  <r_i_glide_intrahb_reward>  (30) 
-0

>  <i_i_glide_confnum>  (30) 
2

>  <i_i_glide_posenum>  (30) 
30

>  <r_i_glide_eff_state_penalty>  (30) 
0

>  <ligand_id>  (30) 
7

>  <original_smiles>  (30) 
C=C1C2CC3(CO2)ON=CC3N1C

>  <smiles>  (30) 
[H]C1=NOC23C([H])([H])OC(=C(C([H])([H])[H])N(C([H])([H])[H])C12[H])C3([H])[H]

$$$$
8:0:0
     RDKit          3D

 55 60  0  0  1  0  0  0  0  0999 V2000
    4.6773   -0.2146    3.2077 C   0  0  0  0  0  0  0  0  0  0  0  0
    4.7364   -1.2415    2.0571 C   0  0  2  0  0  0  0  0  0  0  0  0
    6.1825   -1.2194    1.4762 C   0  0  0  0  0  0  0  0  0  0  0  0
    6.8102   -2.4585    0.8201 C   0  0  0  0  0  0  0  0  0  0  0  0
    5.9697   -3.6184    0.3021 C   0  0  2  0  0  0  0  0  0  0  0  0
    5.9157   -3.6497   -1.2116 C   0  0  0  0  0  0  0  0  0  0  0  0
    4.9994   -2.7214   -1.9804 C   0  0  2  0  0  0  0  0  0  0  0  0
    4.6371   -1.3061   -1.5284 C   0  0  1  0  0  0  0  0  0  0  0  0
    3.8338   -0.9262   -2.8001 C   0  0  0  0  0  0  0  0  0  0  0  0
    2.9996   -2.2072   -3.0522 C   0  0  0  0  0  0  0  0  0  0  0  0
    3.5791   -3.2008   -2.0210 C   0  0  2  0  0  0  0  0  0  0  0  0
    3.0577   -2.9092   -0.5910 C   0  0  2  0  0  0  0  0  0  0  0  0
    3.6135   -1.4873   -0.3786 C   0  0  1  0  0  0  0  0  0  0  0  0
    3.6987   -0.8205    1.0058 C   0  0  0  0  0  0  0  0  0  0  0  0
    3.3339   -3.9507    0.5233 C   0  0  1  0  0  0  0  0  0  0  0  0
    2.7230   -5.3015    0.1235 C   0  0  0  0  0  0  0  0  0  0  0  0
    1.5063   -5.5102    0.1954 O   0  0  0  0  0  0  0  0  0  0  0  0
    4.7670   -4.1045    1.1496 C   0  0  1  0  0  0  0  0  0  0  0  0
    5.0241   -5.4803    1.4709 O   0  0  0  0  0  0  0  0  0  0  0  0
    4.1610   -5.8198    2.6765 O   0  0  0  0  0  0  0  0  0  0  0  0
    4.2058   -4.6762    3.5222 C   0  0  0  0  0  0  0  0  0  0  0  0
    2.7496   -4.4354    3.9412 C   0  0  0  0  0  0  0  0  0  0  0  0
    5.0557   -4.9694    4.7773 C   0  0  0  0  0  0  0  0  0  0  0  0
    4.8503   -3.6147    2.6039 C   0  0  2  0  0  0  0  0  0  0  0  0
    4.2443   -2.3572    2.7849 O   0  0  0  0  0  0  0  0  0  0  0  0
    4.9575    0.7815    2.8929 H   0  0  0  0  0  0  0  0  0  0  0  0
    5.3463   -0.4706    4.0272 H   0  0  0  0  0  0  0  0  0  0  0  0
    3.6716   -0.1166    3.6113 H   0  0  0  0  0  0  0  0  0  0  0  0
    6.2270   -0.3929    0.7642 H   0  0  0  0  0  0  0  0  0  0  0  0
    6.8751   -0.9042    2.2589 H   0  0  0  0  0  0  0  0  0  0  0  0
    7.5382   -2.1391    0.0863 H   0  0  0  0  0  0  0  0  0  0  0  0
    7.4378   -2.9363    1.5728 H   0  0  0  0  0  0  0  0  0  0  0  0
    6.6718   -4.4491    0.4558 H   0  0  0  0  0  0  0  0  0  0  0  0
    6.9228   -3.4738   -1.5814 H   0  0  0  0  0  0  0  0  0  0  0  0
    5.6734   -4.6620   -1.5127 H   0  0  0  0  0  0  0  0  0  0  0  0
    5.4037   -2.7226   -2.9954 H   0  0  0  0  0  0  0  0  0  0  0  0
    5.4675   -0.6344   -1.3204 H   0  0  0  0  0  0  0  0  0  0  0  0
    3.1937   -0.0433   -2.7171 H   0  0  0  0  0  0  0  0  0  0  0  0
    4.5118   -0.7453   -3.6375 H   0  0  0  0  0  0  0  0  0  0  0  0
    1.9313   -2.0568   -2.8941 H   0  0  0  0  0  0  0  0  0  0  0  0
    3.1407   -2.5603   -4.0733 H   0  0  0  0  0  0  0  0  0  0  0  0
    3.4827   -4.2310   -2.3443 H   0  0  0  0  0  0  0  0  0  0  0  0
    1.9722   -2.8617   -0.6429 H   0  0  0  0  0  0  0  0  0  0  0  0
    2.7959   -0.8686   -0.7137 H   0  0  0  0  0  0  0  0  0  0  0  0
    2.7153   -0.9006    1.4730 H   0  0  0  0  0  0  0  0  0  0  0  0
    3.8324    0.2476    0.8212 H   0  0  0  0  0  0  0  0  0  0  0  0
    2.6962   -3.6297    1.3369 H   0  0  0  0  0  0  0  0  0  0  0  0
    3.4072   -6.0513   -0.2536 H   0  0  0  0  0  0  0  0  0  0  0  0
    2.6341   -3.4997    4.4927 H   0  0  0  0  0  0  0  0  0  0  0  0
    2.3942   -5.2403    4.5861 H   0  0  0  0  0  0  0  0  0  0  0  0
    2.0642   -4.4122    3.0943 H   0  0  0  0  0  0  0  0  0  0  0  0
    5.0839   -4.0876    5.4255 H   0  0  0  0  0  0  0  0  0  0  0  0
    6.0830   -5.2312    4.5309 H   0  0  0  0  0  0  0  0  0  0  0  0
    4.6326   -5.7845    5.3661 H   0  0  0  0  0  0  0  0  0  0  0  0
    5.8877   -3.5697    2.9211 H   0  0  0  0  0  0  0  0  0  0  0  0
  2  1  1  1
  1 26  1  0
  1 27  1  0
  1 28  1  0
  2 14  1  0
  2 25  1  0
  2  3  1  0
  3  4  1  0
  3 29  1  0
  3 30  1  0
  4  5  1  0
  4 31  1  0
  4 32  1  0
  5 18  1  0
  5  6  1  0
  5 33  1  1
  6  7  1  0
  6 34  1  0
  6 35  1  0
  7 11  1  0
  7  8  1  0
  7 36  1  6
  8 13  1  0
  8  9  1  0
  8 37  1  1
  9 10  1  0
  9 38  1  0
  9 39  1  0
 10 11  1  0
 10 40  1  0
 10 41  1  0
 11 12  1  0
 11 42  1  6
 12 13  1  0
 12 15  1  0
 12 43  1  6
 13 14  1  0
 13 44  1  6
 14 45  1  0
 14 46  1  0
 15 16  1  0
 15 18  1  0
 15 47  1  1
 16 17  2  0
 16 48  1  0
 18 24  1  0
 18 19  1  1
 19 20  1  0
 20 21  1  0
 21 22  1  0
 21 23  1  0
 21 24  1  0
 22 49  1  0
 22 50  1  0
 22 51  1  0
 23 52  1  0
 23 53  1  0
 23 54  1  0
 24 25  1  0
 24 55  1  1
M  END
>  <i_m_ct_stereo_status>  (31) 
1

>  <s_m_source_file>  (31) 
/var/tmp/pbs.5076255.sched01/tmpnv36izql/0kitkh5ys.sdf

>  <i_m_source_file_index>  (31) 
12

>  <i_lp_mmshare_version>  (31) 
48012

>  <i_f3d_flags>  (31) 
0

>  <s_epik_input>  (31) 
TzFPQyhbQ0gzXSkoW0NIM10pW0NAQEhdMk9bQ0BAXShbQ0gzXSkoW0NIMl1bQ0gyXVtDQEhdM1tDQEBdMTI0KVtDSDJdW0NASF01W0NASF02W0NAQEhdKFtDSDJdMylbQ0BIXShbQ0gyXVtDSDJdNilbQ0BIXTVbQ0BIXTRbQ0hdPU8=

>  <s_epik_cmdline>  (31) 
J2VwaWtfcHl0aG9uJywgJy1waHQnLCAnMi4wJywgJy1waCcsICc3LjAnLCAnLXRuJywgJzgnLCAnLW1hJywgJzIwMCcsICctaW1hZScsICc8aW5maWxlLm1hZT4nLCAnLW9tYWUnLCAnPG91dGZpbGUubWFlPic=

>  <r_lp_tautomer_probability>  (31) 
1

>  <r_epik_Ionization_Penalty>  (31) 
5.70886e-07

>  <r_epik_Ionization_Penalty_Charging>  (31) 
0

>  <r_epik_Ionization_Penalty_Neutral>  (31) 
5.70886e-07

>  <r_epik_State_Penalty>  (31) 
-0

>  <r_epik_Charging_Adjusted_Penalty>  (31) 
0

>  <i_epik_Tot_Q>  (31) 
0

>  <i_epik_Tot_abs_Q>  (31) 
0

>  <s_lp_Force_Field>  (31) 
OPLS3e

>  <r_lp_Energy>  (31) 
102.127

>  <b_lp_Chiralities_Consistent>  (31) 
1

>  <s_lp_Variant>  (31) 
8:0-1

>  <s_i_glide_gridfile>  (31) 
pfpi4k_grid

>  <i_i_glide_lignum>  (31) 
12

>  <i_i_glide_rotatable_bonds>  (31) 
1

>  <r_i_docking_score>  (31) 
-3.48077

>  <r_i_glide_ligand_efficiency>  (31) 
-0.139231

>  <r_i_glide_ligand_efficiency_sa>  (31) 
-0.407113

>  <r_i_glide_ligand_efficiency_ln>  (31) 
-0.825046

>  <r_i_glide_gscore>  (31) 
-3.48077

>  <r_i_glide_lipo>  (31) 
-0.690248

>  <r_i_glide_hbond>  (31) 
-0.119204

>  <r_i_glide_metal>  (31) 
-0

>  <r_i_glide_rewards>  (31) 
-1.04686

>  <r_i_glide_evdw>  (31) 
-19.1913

>  <r_i_glide_ecoul>  (31) 
-4.07926

>  <r_i_glide_erotb>  (31) 
0

>  <r_i_glide_esite>  (31) 
-0.0529992

>  <r_i_glide_emodel>  (31) 
-28.1664

>  <r_i_glide_energy>  (31) 
-23.2706

>  <r_i_glide_einternal>  (31) 
0.666223

>  <r_i_glide_intrahb_reward>  (31) 
-0

>  <i_i_glide_confnum>  (31) 
2

>  <i_i_glide_posenum>  (31) 
26

>  <r_i_glide_eff_state_penalty>  (31) 
0

>  <ligand_id>  (31) 
8

>  <original_smiles>  (31) 
CC12CCC3CC4C5CCC4C(C5C1)C(C=O)C31OOC(C)(C)C1O2

>  <smiles>  (31) 
[H]C(=O)C1([H])C2([H])C3([H])C([H])([H])C([H])([H])C4([H])C3([H])C([H])([H])C3([H])C([H])([H])C([H])([H])C(C([H])([H])[H])(OC5([H])C(C([H])([H])[H])(C([H])([H])[H])OOC513)C([H])([H])C42[H]

$$$$
8:0:1
     RDKit          3D

 55 60  0  0  1  0  0  0  0  0999 V2000
    2.9469   -0.2115    2.5791 C   0  0  0  0  0  0  0  0  0  0  0  0
    3.8151   -1.1858    1.7536 C   0  0  2  0  0  0  0  0  0  0  0  0
    5.1410   -0.4452    1.4498 C   0  0  0  0  0  0  0  0  0  0  0  0
    6.4606   -1.1980    1.2453 C   0  0  0  0  0  0  0  0  0  0  0  0
    6.4913   -2.6715    0.7867 C   0  0  2  0  0  0  0  0  0  0  0  0
    6.8685   -2.8522   -0.6862 C   0  0  0  0  0  0  0  0  0  0  0  0
    5.8258   -2.6293   -1.7876 C   0  0  2  0  0  0  0  0  0  0  0  0
    4.6931   -1.5850   -1.6975 C   0  0  1  0  0  0  0  0  0  0  0  0
    4.1473   -1.7568   -3.1371 C   0  0  0  0  0  0  0  0  0  0  0  0
    4.1700   -3.2975   -3.3057 C   0  0  0  0  0  0  0  0  0  0  0  0
    4.8824   -3.7853   -2.0151 C   0  0  2  0  0  0  0  0  0  0  0  0
    3.9266   -3.7069   -0.7910 C   0  0  2  0  0  0  0  0  0  0  0  0
    3.6114   -2.2081   -0.7614 C   0  0  1  0  0  0  0  0  0  0  0  0
    3.0262   -1.5003    0.4817 C   0  0  0  0  0  0  0  0  0  0  0  0
    4.3950   -4.3571    0.5427 C   0  0  1  0  0  0  0  0  0  0  0  0
    4.6397   -5.8546    0.2968 C   0  0  0  0  0  0  0  0  0  0  0  0
    3.9665   -6.7031    0.8783 O   0  0  0  0  0  0  0  0  0  0  0  0
    5.4943   -3.6739    1.4490 C   0  0  1  0  0  0  0  0  0  0  0  0
    6.2986   -4.6746    2.0723 O   0  0  0  0  0  0  0  0  0  0  0  0
    5.4731   -5.3107    3.1661 O   0  0  0  0  0  0  0  0  0  0  0  0
    4.7093   -4.2810    3.7528 C   0  0  0  0  0  0  0  0  0  0  0  0
    3.2683   -4.8167    3.8298 C   0  0  0  0  0  0  0  0  0  0  0  0
    5.2132   -3.9761    5.1749 C   0  0  0  0  0  0  0  0  0  0  0  0
    4.9459   -3.1088    2.7768 C   0  0  2  0  0  0  0  0  0  0  0  0
    3.7849   -2.3225    2.6160 O   0  0  0  0  0  0  0  0  0  0  0  0
    2.8160    0.7461    2.0725 H   0  0  0  0  0  0  0  0  0  0  0  0
    3.3989   -0.0018    3.5496 H   0  0  0  0  0  0  0  0  0  0  0  0
    1.9532   -0.6190    2.7682 H   0  0  0  0  0  0  0  0  0  0  0  0
    4.9687    0.2159    0.5984 H   0  0  0  0  0  0  0  0  0  0  0  0
    5.3317    0.2367    2.2755 H   0  0  0  0  0  0  0  0  0  0  0  0
    7.0874   -0.6073    0.5816 H   0  0  0  0  0  0  0  0  0  0  0  0
    6.9913   -1.1218    2.1926 H   0  0  0  0  0  0  0  0  0  0  0  0
    7.4352   -2.9617    1.2477 H   0  0  0  0  0  0  0  0  0  0  0  0
    7.7018   -2.1836   -0.8917 H   0  0  0  0  0  0  0  0  0  0  0  0
    7.2924   -3.8464   -0.8122 H   0  0  0  0  0  0  0  0  0  0  0  0
    6.4221   -2.4868   -2.6919 H   0  0  0  0  0  0  0  0  0  0  0  0
    4.9903   -0.5620   -1.4748 H   0  0  0  0  0  0  0  0  0  0  0  0
    3.1541   -1.3294   -3.2878 H   0  0  0  0  0  0  0  0  0  0  0  0
    4.8089   -1.2831   -3.8640 H   0  0  0  0  0  0  0  0  0  0  0  0
    3.1690   -3.7230   -3.4050 H   0  0  0  0  0  0  0  0  0  0  0  0
    4.7409   -3.5778   -4.1911 H   0  0  0  0  0  0  0  0  0  0  0  0
    5.3683   -4.7452   -2.1615 H   0  0  0  0  0  0  0  0  0  0  0  0
    3.0115   -4.2413   -1.0551 H   0  0  0  0  0  0  0  0  0  0  0  0
    2.6915   -2.1789   -1.3451 H   0  0  0  0  0  0  0  0  0  0  0  0
    2.1395   -2.0570    0.7916 H   0  0  0  0  0  0  0  0  0  0  0  0
    2.6502   -0.5430    0.1081 H   0  0  0  0  0  0  0  0  0  0  0  0
    3.4925   -4.3421    1.1432 H   0  0  0  0  0  0  0  0  0  0  0  0
    5.4214   -6.0986   -0.4206 H   0  0  0  0  0  0  0  0  0  0  0  0
    2.5660   -4.0486    4.1574 H   0  0  0  0  0  0  0  0  0  0  0  0
    3.2122   -5.6402    4.5446 H   0  0  0  0  0  0  0  0  0  0  0  0
    2.9132   -5.2174    2.8827 H   0  0  0  0  0  0  0  0  0  0  0  0
    4.6280   -3.1732    5.6283 H   0  0  0  0  0  0  0  0  0  0  0  0
    6.2562   -3.6637    5.1913 H   0  0  0  0  0  0  0  0  0  0  0  0
    5.1240   -4.8489    5.8230 H   0  0  0  0  0  0  0  0  0  0  0  0
    5.6994   -2.4910    3.2650 H   0  0  0  0  0  0  0  0  0  0  0  0
  2  1  1  1
  1 26  1  0
  1 27  1  0
  1 28  1  0
  2 14  1  0
  2 25  1  0
  2  3  1  0
  3  4  1  0
  3 29  1  0
  3 30  1  0
  4  5  1  0
  4 31  1  0
  4 32  1  0
  5 18  1  0
  5  6  1  0
  5 33  1  1
  6  7  1  0
  6 34  1  0
  6 35  1  0
  7 11  1  0
  7  8  1  0
  7 36  1  6
  8 13  1  0
  8  9  1  0
  8 37  1  1
  9 10  1  0
  9 38  1  0
  9 39  1  0
 10 11  1  0
 10 40  1  0
 10 41  1  0
 11 12  1  0
 11 42  1  6
 12 13  1  0
 12 15  1  0
 12 43  1  6
 13 14  1  0
 13 44  1  6
 14 45  1  0
 14 46  1  0
 15 16  1  0
 15 18  1  0
 15 47  1  1
 16 17  2  0
 16 48  1  0
 18 24  1  0
 18 19  1  1
 19 20  1  0
 20 21  1  0
 21 22  1  0
 21 23  1  0
 21 24  1  0
 22 49  1  0
 22 50  1  0
 22 51  1  0
 23 52  1  0
 23 53  1  0
 23 54  1  0
 24 25  1  0
 24 55  1  1
M  END
>  <i_m_ct_stereo_status>  (32) 
1

>  <s_m_source_file>  (32) 
/var/tmp/pbs.5076255.sched01/tmpnv36izql/0kitkh5ys.sdf

>  <i_m_source_file_index>  (32) 
12

>  <i_lp_mmshare_version>  (32) 
48012

>  <i_f3d_flags>  (32) 
0

>  <s_epik_input>  (32) 
TzFPQyhbQ0gzXSkoW0NIM10pW0NAQEhdMk9bQ0BAXShbQ0gzXSkoW0NIMl1bQ0gyXVtDQEhdM1tDQEBdMTI0KVtDSDJdW0NASF01W0NASF02W0NAQEhdKFtDSDJdMylbQ0BIXShbQ0gyXVtDSDJdNilbQ0BIXTVbQ0BIXTRbQ0hdPU8=

>  <s_epik_cmdline>  (32) 
J2VwaWtfcHl0aG9uJywgJy1waHQnLCAnMi4wJywgJy1waCcsICc3LjAnLCAnLXRuJywgJzgnLCAnLW1hJywgJzIwMCcsICctaW1hZScsICc8aW5maWxlLm1hZT4nLCAnLW9tYWUnLCAnPG91dGZpbGUubWFlPic=

>  <r_lp_tautomer_probability>  (32) 
1

>  <r_epik_Ionization_Penalty>  (32) 
5.70886e-07

>  <r_epik_Ionization_Penalty_Charging>  (32) 
0

>  <r_epik_Ionization_Penalty_Neutral>  (32) 
5.70886e-07

>  <r_epik_State_Penalty>  (32) 
-0

>  <r_epik_Charging_Adjusted_Penalty>  (32) 
0

>  <i_epik_Tot_Q>  (32) 
0

>  <i_epik_Tot_abs_Q>  (32) 
0

>  <s_lp_Force_Field>  (32) 
OPLS3e

>  <r_lp_Energy>  (32) 
102.127

>  <b_lp_Chiralities_Consistent>  (32) 
1

>  <s_lp_Variant>  (32) 
8:0-1

>  <s_i_glide_gridfile>  (32) 
pfpi4k_grid

>  <i_i_glide_lignum>  (32) 
12

>  <i_i_glide_rotatable_bonds>  (32) 
1

>  <r_i_docking_score>  (32) 
-3.3631

>  <r_i_glide_ligand_efficiency>  (32) 
-0.134524

>  <r_i_glide_ligand_efficiency_sa>  (32) 
-0.393351

>  <r_i_glide_ligand_efficiency_ln>  (32) 
-0.797156

>  <r_i_glide_gscore>  (32) 
-3.3631

>  <r_i_glide_lipo>  (32) 
-0.707304

>  <r_i_glide_hbond>  (32) 
0

>  <r_i_glide_metal>  (32) 
-0

>  <r_i_glide_rewards>  (32) 
-1.17804

>  <r_i_glide_evdw>  (32) 
-27.0442

>  <r_i_glide_ecoul>  (32) 
-0.836976

>  <r_i_glide_erotb>  (32) 
0

>  <r_i_glide_esite>  (32) 
0

>  <r_i_glide_emodel>  (32) 
-32.4888

>  <r_i_glide_energy>  (32) 
-27.8811

>  <r_i_glide_einternal>  (32) 
0.993372

>  <r_i_glide_intrahb_reward>  (32) 
-0

>  <i_i_glide_confnum>  (32) 
1

>  <i_i_glide_posenum>  (32) 
7

>  <r_i_glide_eff_state_penalty>  (32) 
0

>  <ligand_id>  (32) 
8

>  <original_smiles>  (32) 
CC12CCC3CC4C5CCC4C(C5C1)C(C=O)C31OOC(C)(C)C1O2

>  <smiles>  (32) 
[H]C(=O)C1([H])C2([H])C3([H])C([H])([H])C([H])([H])C4([H])C3([H])C([H])([H])C3([H])C([H])([H])C([H])([H])C(C([H])([H])[H])(OC5([H])C(C([H])([H])[H])(C([H])([H])[H])OOC513)C([H])([H])C42[H]

$$$$
8:0:2
     RDKit          3D

 55 60  0  0  1  0  0  0  0  0999 V2000
    7.2298   -6.0519    2.2609 C   0  0  0  0  0  0  0  0  0  0  0  0
    6.0665   -5.1823    1.7359 C   0  0  2  0  0  0  0  0  0  0  0  0
    5.1119   -6.1445    0.9733 C   0  0  0  0  0  0  0  0  0  0  0  0
    3.5997   -5.8829    0.8778 C   0  0  0  0  0  0  0  0  0  0  0  0
    3.0197   -4.4551    1.0125 C   0  0  2  0  0  0  0  0  0  0  0  0
    2.6194   -3.8119   -0.3191 C   0  0  0  0  0  0  0  0  0  0  0  0
    3.6703   -3.1658   -1.2237 C   0  0  2  0  0  0  0  0  0  0  0  0
    5.1102   -3.6928   -1.3644 C   0  0  1  0  0  0  0  0  0  0  0  0
    5.5439   -2.7601   -2.5176 C   0  0  0  0  0  0  0  0  0  0  0  0
    4.9427   -1.3990   -2.0734 C   0  0  0  0  0  0  0  0  0  0  0  0
    4.0991   -1.7710   -0.8276 C   0  0  2  0  0  0  0  0  0  0  0  0
    5.0160   -2.0322    0.4025 C   0  0  2  0  0  0  0  0  0  0  0  0
    5.8837   -3.1919   -0.1086 C   0  0  1  0  0  0  0  0  0  0  0  0
    6.7020   -4.1162    0.8201 C   0  0  0  0  0  0  0  0  0  0  0  0
    4.3146   -2.2115    1.7798 C   0  0  1  0  0  0  0  0  0  0  0  0
    3.5189   -0.9345    2.0888 C   0  0  0  0  0  0  0  0  0  0  0  0
    4.0798    0.0331    2.5997 O   0  0  0  0  0  0  0  0  0  0  0  0
    3.5556   -3.5479    2.1593 C   0  0  1  0  0  0  0  0  0  0  0  0
    2.4301   -3.2491    2.9860 O   0  0  0  0  0  0  0  0  0  0  0  0
    2.9534   -2.8750    4.3503 O   0  0  0  0  0  0  0  0  0  0  0  0
    4.0445   -3.7284    4.6108 C   0  0  0  0  0  0  0  0  0  0  0  0
    5.1675   -2.8155    5.1343 C   0  0  0  0  0  0  0  0  0  0  0  0
    3.6767   -4.7559    5.6976 C   0  0  0  0  0  0  0  0  0  0  0  0
    4.2837   -4.3837    3.2344 C   0  0  2  0  0  0  0  0  0  0  0  0
    5.6573   -4.5684    2.9620 O   0  0  0  0  0  0  0  0  0  0  0  0
    7.7215   -6.6019    1.4572 H   0  0  0  0  0  0  0  0  0  0  0  0
    6.8790   -6.7859    2.9872 H   0  0  0  0  0  0  0  0  0  0  0  0
    7.9939   -5.4555    2.7590 H   0  0  0  0  0  0  0  0  0  0  0  0
    5.5016   -6.2594   -0.0363 H   0  0  0  0  0  0  0  0  0  0  0  0
    5.2075   -7.1466    1.3931 H   0  0  0  0  0  0  0  0  0  0  0  0
    3.2529   -6.3157   -0.0577 H   0  0  0  0  0  0  0  0  0  0  0  0
    3.1236   -6.5105    1.6319 H   0  0  0  0  0  0  0  0  0  0  0  0
    2.0283   -4.7228    1.3822 H   0  0  0  0  0  0  0  0  0  0  0  0
    2.1171   -4.5758   -0.9122 H   0  0  0  0  0  0  0  0  0  0  0  0
    1.8518   -3.0648   -0.1252 H   0  0  0  0  0  0  0  0  0  0  0  0
    3.1778   -3.1308   -2.1989 H   0  0  0  0  0  0  0  0  0  0  0  0
    5.2061   -4.7486   -1.6073 H   0  0  0  0  0  0  0  0  0  0  0  0
    6.6241   -2.7226   -2.6680 H   0  0  0  0  0  0  0  0  0  0  0  0
    5.1060   -3.0883   -3.4621 H   0  0  0  0  0  0  0  0  0  0  0  0
    5.7045   -0.6563   -1.8348 H   0  0  0  0  0  0  0  0  0  0  0  0
    4.3121   -0.9904   -2.8635 H   0  0  0  0  0  0  0  0  0  0  0  0
    3.2789   -1.0726   -0.6578 H   0  0  0  0  0  0  0  0  0  0  0  0
    5.6563   -1.1557    0.5255 H   0  0  0  0  0  0  0  0  0  0  0  0
    6.7436   -2.6532   -0.5056 H   0  0  0  0  0  0  0  0  0  0  0  0
    7.3188   -3.4744    1.4513 H   0  0  0  0  0  0  0  0  0  0  0  0
    7.4115   -4.6301    0.1682 H   0  0  0  0  0  0  0  0  0  0  0  0
    5.1458   -2.1628    2.4737 H   0  0  0  0  0  0  0  0  0  0  0  0
    2.4629   -0.9468    1.8158 H   0  0  0  0  0  0  0  0  0  0  0  0
    6.1056   -3.3592    5.2543 H   0  0  0  0  0  0  0  0  0  0  0  0
    4.8997   -2.4040    6.1095 H   0  0  0  0  0  0  0  0  0  0  0  0
    5.3499   -1.9596    4.4855 H   0  0  0  0  0  0  0  0  0  0  0  0
    4.5188   -5.4231    5.8936 H   0  0  0  0  0  0  0  0  0  0  0  0
    2.8260   -5.3781    5.4106 H   0  0  0  0  0  0  0  0  0  0  0  0
    3.4253   -4.2676    6.6406 H   0  0  0  0  0  0  0  0  0  0  0  0
    3.8237   -5.3691    3.3185 H   0  0  0  0  0  0  0  0  0  0  0  0
  2  1  1  1
  1 26  1  0
  1 27  1  0
  1 28  1  0
  2 14  1  0
  2 25  1  0
  2  3  1  0
  3  4  1  0
  3 29  1  0
  3 30  1  0
  4  5  1  0
  4 31  1  0
  4 32  1  0
  5 18  1  0
  5  6  1  0
  5 33  1  1
  6  7  1  0
  6 34  1  0
  6 35  1  0
  7 11  1  0
  7  8  1  0
  7 36  1  6
  8 13  1  0
  8  9  1  0
  8 37  1  6
  9 10  1  0
  9 38  1  0
  9 39  1  0
 10 11  1  0
 10 40  1  0
 10 41  1  0
 11 12  1  0
 11 42  1  1
 12 13  1  0
 12 15  1  0
 12 43  1  1
 13 14  1  0
 13 44  1  6
 14 45  1  0
 14 46  1  0
 15 16  1  0
 15 18  1  0
 15 47  1  1
 16 17  2  0
 16 48  1  0
 18 24  1  0
 18 19  1  1
 19 20  1  0
 20 21  1  0
 21 22  1  0
 21 23  1  0
 21 24  1  0
 22 49  1  0
 22 50  1  0
 22 51  1  0
 23 52  1  0
 23 53  1  0
 23 54  1  0
 24 25  1  0
 24 55  1  1
M  END
>  <i_m_ct_stereo_status>  (33) 
1

>  <s_m_source_file>  (33) 
/var/tmp/pbs.5076255.sched01/tmpnv36izql/0kitkh5ys.sdf

>  <i_m_source_file_index>  (33) 
12

>  <i_lp_mmshare_version>  (33) 
48012

>  <i_f3d_flags>  (33) 
0

>  <s_epik_input>  (33) 
TzFPQyhbQ0gzXSkoW0NIM10pW0NAQEhdMk9bQ0BAXShbQ0gzXSkoW0NIMl1bQ0gyXVtDQEhdM1tDQEBdMTI0KVtDSDJdW0NASF01W0NASF02W0NAQEhdKFtDSDJdMylbQ0BIXShbQ0gyXVtDSDJdNilbQ0BIXTVbQ0BIXTRbQ0hdPU8=

>  <s_epik_cmdline>  (33) 
J2VwaWtfcHl0aG9uJywgJy1waHQnLCAnMi4wJywgJy1waCcsICc3LjAnLCAnLXRuJywgJzgnLCAnLW1hJywgJzIwMCcsICctaW1hZScsICc8aW5maWxlLm1hZT4nLCAnLW9tYWUnLCAnPG91dGZpbGUubWFlPic=

>  <r_lp_tautomer_probability>  (33) 
1

>  <r_epik_Ionization_Penalty>  (33) 
5.70886e-07

>  <r_epik_Ionization_Penalty_Charging>  (33) 
0

>  <r_epik_Ionization_Penalty_Neutral>  (33) 
5.70886e-07

>  <r_epik_State_Penalty>  (33) 
-0

>  <r_epik_Charging_Adjusted_Penalty>  (33) 
0

>  <i_epik_Tot_Q>  (33) 
0

>  <i_epik_Tot_abs_Q>  (33) 
0

>  <s_lp_Force_Field>  (33) 
OPLS3e

>  <r_lp_Energy>  (33) 
102.127

>  <b_lp_Chiralities_Consistent>  (33) 
1

>  <s_lp_Variant>  (33) 
8:0-1

>  <s_i_glide_gridfile>  (33) 
pfpi4k_grid

>  <i_i_glide_lignum>  (33) 
12

>  <i_i_glide_rotatable_bonds>  (33) 
1

>  <r_i_docking_score>  (33) 
-2.96235

>  <r_i_glide_ligand_efficiency>  (33) 
-0.118494

>  <r_i_glide_ligand_efficiency_sa>  (33) 
-0.346478

>  <r_i_glide_ligand_efficiency_ln>  (33) 
-0.702165

>  <r_i_glide_gscore>  (33) 
-2.96235

>  <r_i_glide_lipo>  (33) 
-0.615444

>  <r_i_glide_hbond>  (33) 
0

>  <r_i_glide_metal>  (33) 
-0

>  <r_i_glide_rewards>  (33) 
-1.04686

>  <r_i_glide_evdw>  (33) 
-25.947

>  <r_i_glide_ecoul>  (33) 
0.0156055

>  <r_i_glide_erotb>  (33) 
0

>  <r_i_glide_esite>  (33) 
-0.00503384

>  <r_i_glide_emodel>  (33) 
-30.103

>  <r_i_glide_energy>  (33) 
-25.9314

>  <r_i_glide_einternal>  (33) 
0.743763

>  <r_i_glide_intrahb_reward>  (33) 
-0

>  <i_i_glide_confnum>  (33) 
1

>  <i_i_glide_posenum>  (33) 
28

>  <r_i_glide_eff_state_penalty>  (33) 
0

>  <ligand_id>  (33) 
8

>  <original_smiles>  (33) 
CC12CCC3CC4C5CCC4C(C5C1)C(C=O)C31OOC(C)(C)C1O2

>  <smiles>  (33) 
[H]C(=O)C1([H])C2([H])C3([H])C([H])([H])C([H])([H])C4([H])C3([H])C([H])([H])C3([H])C([H])([H])C([H])([H])C(C([H])([H])[H])(OC5([H])C(C([H])([H])[H])(C([H])([H])[H])OOC513)C([H])([H])C42[H]

$$$$
9:0:0
     RDKit          3D

 33 35  0  0  1  0  0  0  0  0999 V2000
    7.0095   -2.7071    0.0142 C   0  0  0  0  0  0  0  0  0  0  0  0
    6.4821   -1.7284   -0.7201 N   0  0  0  0  0  0  0  0  0  0  0  0
    5.2735   -1.9572   -1.2595 C   0  0  0  0  0  0  0  0  0  0  0  0
    4.5944   -3.1743   -1.0745 C   0  0  0  0  0  0  0  0  0  0  0  0
    5.2655   -4.1508   -0.3027 C   0  0  0  0  0  0  0  0  0  0  0  0
    4.6673   -5.4006   -0.1041 N   0  0  0  0  0  0  0  0  0  0  0  0
    5.1832   -6.3523    0.8680 C   0  0  2  0  0  0  0  0  0  0  0  0
    4.3686   -7.6273    0.8865 C   0  0  0  0  0  0  0  0  0  0  0  0
    4.7087   -8.1898    2.2599 C   0  0  0  0  0  0  0  0  0  0  0  0
    4.8906   -7.0528    3.1002 O   0  0  0  0  0  0  0  0  0  0  0  0
    5.0586   -5.8752    2.3141 C   0  0  0  0  0  0  0  0  0  0  0  0
    6.4747   -3.9059    0.2446 N   0  0  0  0  0  0  0  0  0  0  0  0
    3.2536   -3.4414   -1.7331 C   0  0  0  0  0  0  0  0  0  0  0  0
    2.6128   -2.2449   -2.3109 N   0  0  0  0  0  0  0  0  0  0  0  0
    3.5645   -1.3785   -3.0378 C   0  0  0  0  0  0  0  0  0  0  0  0
    4.6360   -0.8474   -2.0812 C   0  0  0  0  0  0  0  0  0  0  0  0
    3.8049   -5.6093   -0.5829 H   0  0  0  0  0  0  0  0  0  0  0  0
    7.9880   -2.5149    0.4293 H   0  0  0  0  0  0  0  0  0  0  0  0
    6.2259   -6.5915    0.6478 H   0  0  0  0  0  0  0  0  0  0  0  0
    3.2991   -7.4102    0.8530 H   0  0  0  0  0  0  0  0  0  0  0  0
    4.6139   -8.3086    0.0709 H   0  0  0  0  0  0  0  0  0  0  0  0
    3.9239   -8.8400    2.6431 H   0  0  0  0  0  0  0  0  0  0  0  0
    5.6366   -8.7587    2.2150 H   0  0  0  0  0  0  0  0  0  0  0  0
    5.9224   -5.2863    2.6365 H   0  0  0  0  0  0  0  0  0  0  0  0
    4.1680   -5.2668    2.4481 H   0  0  0  0  0  0  0  0  0  0  0  0
    2.5561   -3.9321   -1.0471 H   0  0  0  0  0  0  0  0  0  0  0  0
    3.4797   -4.1084   -2.5592 H   0  0  0  0  0  0  0  0  0  0  0  0
    1.8724   -2.5391   -2.9356 H   0  0  0  0  0  0  0  0  0  0  0  0
    4.0358   -1.9617   -3.8261 H   0  0  0  0  0  0  0  0  0  0  0  0
    3.0347   -0.5552   -3.5167 H   0  0  0  0  0  0  0  0  0  0  0  0
    5.3991   -0.3149   -2.6497 H   0  0  0  0  0  0  0  0  0  0  0  0
    4.2157   -0.1241   -1.3835 H   0  0  0  0  0  0  0  0  0  0  0  0
    2.1394   -1.7011   -1.5734 H   0  0  0  0  0  0  0  0  0  0  0  0
  1  2  2  0
  1 18  1  0
  1 12  1  0
  2  3  1  0
  3  4  2  0
  3 16  1  0
  4  5  1  0
  4 13  1  0
  5  6  1  0
  5 12  2  0
  6  7  1  0
  6 17  1  0
  7 11  1  0
  7  8  1  0
  7 19  1  6
  8  9  1  0
  8 20  1  0
  8 21  1  0
  9 10  1  0
  9 22  1  0
  9 23  1  0
 10 11  1  0
 11 24  1  0
 11 25  1  0
 13 14  1  0
 13 26  1  0
 13 27  1  0
 14 15  1  0
 14 28  1  0
 14 33  1  0
 15 16  1  0
 15 29  1  0
 15 30  1  0
 16 31  1  0
 16 32  1  0
M  CHG  1  14   1
M  END
>  <i_m_ct_stereo_status>  (34) 
1

>  <s_m_source_file>  (34) 
/var/tmp/pbs.5076255.sched01/tmpnv36izql/0kitkh5ys.sdf

>  <i_m_source_file_index>  (34) 
13

>  <i_lp_mmshare_version>  (34) 
48012

>  <i_f3d_flags>  (34) 
0

>  <s_epik_input>  (34) 
W0NIMl0xW0NIMl1bTkhdW0NIMl1jKGMxMikvYyhbbkhdW2NIXW4yKT1OL1tDQEBIXTNbQ0gyXVtDSDJdT1tDSDJdMw==

>  <s_epik_cmdline>  (34) 
J2VwaWtfcHl0aG9uJywgJy1waHQnLCAnMi4wJywgJy1waCcsICc3LjAnLCAnLXRuJywgJzgnLCAnLW1hJywgJzIwMCcsICctaW1hZScsICc8aW5maWxlLm1hZT4nLCAnLW9tYWUnLCAnPG91dGZpbGUubWFlPic=

>  <r_lp_tautomer_probability>  (34) 
1

>  <r_epik_Ionization_Penalty>  (34) 
0.0450613

>  <r_epik_Ionization_Penalty_Charging>  (34) 
0.0448153

>  <r_epik_Ionization_Penalty_Neutral>  (34) 
0.000245956

>  <r_epik_State_Penalty>  (34) 
0.00509655

>  <r_epik_Charging_Adjusted_Penalty>  (34) 
0.0499118

>  <i_epik_Tot_Q>  (34) 
1

>  <i_epik_Tot_abs_Q>  (34) 
1

>  <s_lp_Force_Field>  (34) 
OPLS3e

>  <r_lp_Energy>  (34) 
20.8528

>  <b_lp_Chiralities_Consistent>  (34) 
1

>  <s_lp_Variant>  (34) 
9:0-1

>  <s_i_glide_gridfile>  (34) 
pfpi4k_grid

>  <i_i_glide_lignum>  (34) 
13

>  <i_i_glide_rotatable_bonds>  (34) 
2

>  <r_i_docking_score>  (34) 
-4.51879

>  <r_i_glide_ligand_efficiency>  (34) 
-0.282424

>  <r_i_glide_ligand_efficiency_sa>  (34) 
-0.711664

>  <r_i_glide_ligand_efficiency_ln>  (34) 
-1.19779

>  <r_i_glide_gscore>  (34) 
-4.51879

>  <r_i_glide_lipo>  (34) 
-0.335595

>  <r_i_glide_hbond>  (34) 
-0.480507

>  <r_i_glide_metal>  (34) 
-0

>  <r_i_glide_rewards>  (34) 
-1.98726

>  <r_i_glide_evdw>  (34) 
-16.4774

>  <r_i_glide_ecoul>  (34) 
-10.0196

>  <r_i_glide_erotb>  (34) 
0.689245

>  <r_i_glide_esite>  (34) 
-0.0778639

>  <r_i_glide_emodel>  (34) 
-37.1633

>  <r_i_glide_energy>  (34) 
-26.497

>  <r_i_glide_einternal>  (34) 
0.248449

>  <r_i_glide_intrahb_reward>  (34) 
-0

>  <i_i_glide_confnum>  (34) 
1

>  <i_i_glide_posenum>  (34) 
4

>  <r_i_glide_eff_state_penalty>  (34) 
0

>  <ligand_id>  (34) 
9

>  <original_smiles>  (34) 
c1nc2c(c(=NC3CCOC3)[nH]1)CNCC2

>  <smiles>  (34) 
[H]c1nc(N([H])C2([H])C([H])([H])OC([H])([H])C2([H])[H])c2c(n1)C([H])([H])C([H])([H])[N+]([H])([H])C2([H])[H]

$$$$
9:0:1
     RDKit          3D

 33 35  0  0  1  0  0  0  0  0999 V2000
    6.2794   -1.0715    0.7834 C   0  0  0  0  0  0  0  0  0  0  0  0
    6.6104   -1.7297   -0.3309 N   0  0  0  0  0  0  0  0  0  0  0  0
    5.5925   -2.2208   -1.0550 C   0  0  0  0  0  0  0  0  0  0  0  0
    4.2454   -1.9936   -0.7163 C   0  0  0  0  0  0  0  0  0  0  0  0
    4.0168   -1.2620    0.4672 C   0  0  0  0  0  0  0  0  0  0  0  0
    2.7093   -0.9955    0.8869 N   0  0  0  0  0  0  0  0  0  0  0  0
    2.4045   -0.4543    2.1994 C   0  0  2  0  0  0  0  0  0  0  0  0
    0.9030   -0.2815    2.3907 C   0  0  0  0  0  0  0  0  0  0  0  0
    0.7142    1.2025    2.6957 C   0  0  0  0  0  0  0  0  0  0  0  0
    1.9713    1.5979    3.2110 O   0  0  0  0  0  0  0  0  0  0  0  0
    2.9427    0.9578    2.4043 C   0  0  0  0  0  0  0  0  0  0  0  0
    5.0493   -0.8237    1.2206 N   0  0  0  0  0  0  0  0  0  0  0  0
    3.1056   -2.5954   -1.5312 C   0  0  0  0  0  0  0  0  0  0  0  0
    3.5400   -3.0996   -2.8395 N   0  0  0  0  0  0  0  0  0  0  0  0
    4.7837   -3.8842   -2.7522 C   0  0  0  0  0  0  0  0  0  0  0  0
    5.9534   -3.0247   -2.2835 C   0  0  0  0  0  0  0  0  0  0  0  0
    1.9376   -1.0429    0.2034 H   0  0  0  0  0  0  0  0  0  0  0  0
    7.0952   -0.7184    1.3839 H   0  0  0  0  0  0  0  0  0  0  0  0
    2.7977   -1.1150    2.9766 H   0  0  0  0  0  0  0  0  0  0  0  0
    0.3098   -0.5633    1.5171 H   0  0  0  0  0  0  0  0  0  0  0  0
    0.5704   -0.9003    3.2239 H   0  0  0  0  0  0  0  0  0  0  0  0
    0.4969    1.7543    1.7787 H   0  0  0  0  0  0  0  0  0  0  0  0
   -0.0845    1.3830    3.4122 H   0  0  0  0  0  0  0  0  0  0  0  0
    3.9228    0.9632    2.8782 H   0  0  0  0  0  0  0  0  0  0  0  0
    3.0103    1.4743    1.4488 H   0  0  0  0  0  0  0  0  0  0  0  0
    2.3441   -1.8594   -1.7731 H   0  0  0  0  0  0  0  0  0  0  0  0
    2.6491   -3.3950   -0.9428 H   0  0  0  0  0  0  0  0  0  0  0  0
    2.8006   -3.6981   -3.1889 H   0  0  0  0  0  0  0  0  0  0  0  0
    4.6293   -4.6786   -2.0246 H   0  0  0  0  0  0  0  0  0  0  0  0
    5.0009   -4.3567   -3.7130 H   0  0  0  0  0  0  0  0  0  0  0  0
    6.8327   -3.6447   -2.0914 H   0  0  0  0  0  0  0  0  0  0  0  0
    6.2094   -2.3439   -3.0868 H   0  0  0  0  0  0  0  0  0  0  0  0
    3.6546   -2.3183   -3.4722 H   0  0  0  0  0  0  0  0  0  0  0  0
  1  2  2  0
  1 18  1  0
  1 12  1  0
  2  3  1  0
  3  4  2  0
  3 16  1  0
  4  5  1  0
  4 13  1  0
  5  6  1  0
  5 12  2  0
  6  7  1  0
  6 17  1  0
  7 11  1  0
  7  8  1  0
  7 19  1  1
  8  9  1  0
  8 20  1  0
  8 21  1  0
  9 10  1  0
  9 22  1  0
  9 23  1  0
 10 11  1  0
 11 24  1  0
 11 25  1  0
 13 14  1  0
 13 26  1  0
 13 27  1  0
 14 15  1  0
 14 28  1  0
 14 33  1  0
 15 16  1  0
 15 29  1  0
 15 30  1  0
 16 31  1  0
 16 32  1  0
M  CHG  1  14   1
M  END
>  <i_m_ct_stereo_status>  (35) 
1

>  <s_m_source_file>  (35) 
/var/tmp/pbs.5076255.sched01/tmpnv36izql/0kitkh5ys.sdf

>  <i_m_source_file_index>  (35) 
13

>  <i_lp_mmshare_version>  (35) 
48012

>  <i_f3d_flags>  (35) 
0

>  <s_epik_input>  (35) 
W0NIMl0xW0NIMl1bTkhdW0NIMl1jKGMxMikvYyhbbkhdW2NIXW4yKT1OL1tDQEBIXTNbQ0gyXVtDSDJdT1tDSDJdMw==

>  <s_epik_cmdline>  (35) 
J2VwaWtfcHl0aG9uJywgJy1waHQnLCAnMi4wJywgJy1waCcsICc3LjAnLCAnLXRuJywgJzgnLCAnLW1hJywgJzIwMCcsICctaW1hZScsICc8aW5maWxlLm1hZT4nLCAnLW9tYWUnLCAnPG91dGZpbGUubWFlPic=

>  <r_lp_tautomer_probability>  (35) 
1

>  <r_epik_Ionization_Penalty>  (35) 
0.0450613

>  <r_epik_Ionization_Penalty_Charging>  (35) 
0.0448153

>  <r_epik_Ionization_Penalty_Neutral>  (35) 
0.000245956

>  <r_epik_State_Penalty>  (35) 
0.00509655

>  <r_epik_Charging_Adjusted_Penalty>  (35) 
0.0499118

>  <i_epik_Tot_Q>  (35) 
1

>  <i_epik_Tot_abs_Q>  (35) 
1

>  <s_lp_Force_Field>  (35) 
OPLS3e

>  <r_lp_Energy>  (35) 
20.8528

>  <b_lp_Chiralities_Consistent>  (35) 
1

>  <s_lp_Variant>  (35) 
9:0-1

>  <s_i_glide_gridfile>  (35) 
pfpi4k_grid

>  <i_i_glide_lignum>  (35) 
13

>  <i_i_glide_rotatable_bonds>  (35) 
2

>  <r_i_docking_score>  (35) 
-4.36682

>  <r_i_glide_ligand_efficiency>  (35) 
-0.272927

>  <r_i_glide_ligand_efficiency_sa>  (35) 
-0.687732

>  <r_i_glide_ligand_efficiency_ln>  (35) 
-1.15751

>  <r_i_glide_gscore>  (35) 
-4.36682

>  <r_i_glide_lipo>  (35) 
-0.190913

>  <r_i_glide_hbond>  (35) 
-0.274191

>  <r_i_glide_metal>  (35) 
-0

>  <r_i_glide_rewards>  (35) 
-2.01783

>  <r_i_glide_evdw>  (35) 
-14.5374

>  <r_i_glide_ecoul>  (35) 
-11.8182

>  <r_i_glide_erotb>  (35) 
0.689245

>  <r_i_glide_esite>  (35) 
-0.0735341

>  <r_i_glide_emodel>  (35) 
-35.9006

>  <r_i_glide_energy>  (35) 
-26.3556

>  <r_i_glide_einternal>  (35) 
1.04772

>  <r_i_glide_intrahb_reward>  (35) 
-0

>  <i_i_glide_confnum>  (35) 
6

>  <i_i_glide_posenum>  (35) 
6

>  <r_i_glide_eff_state_penalty>  (35) 
0

>  <ligand_id>  (35) 
9

>  <original_smiles>  (35) 
c1nc2c(c(=NC3CCOC3)[nH]1)CNCC2

>  <smiles>  (35) 
[H]c1nc(N([H])C2([H])C([H])([H])OC([H])([H])C2([H])[H])c2c(n1)C([H])([H])C([H])([H])[N+]([H])([H])C2([H])[H]

$$$$
9:0:2
     RDKit          3D

 33 35  0  0  1  0  0  0  0  0999 V2000
    1.9393   -2.3281    3.9662 C   0  0  0  0  0  0  0  0  0  0  0  0
    0.8707   -1.6026    4.3081 N   0  0  0  0  0  0  0  0  0  0  0  0
    0.6357   -0.4990    3.5758 C   0  0  0  0  0  0  0  0  0  0  0  0
    1.4556   -0.1335    2.4887 C   0  0  0  0  0  0  0  0  0  0  0  0
    2.5548   -0.9812    2.2222 C   0  0  0  0  0  0  0  0  0  0  0  0
    3.4275   -0.6752    1.1720 N   0  0  0  0  0  0  0  0  0  0  0  0
    4.5006   -1.5718    0.7685 C   0  0  2  0  0  0  0  0  0  0  0  0
    5.7803   -1.3269    1.5374 C   0  0  0  0  0  0  0  0  0  0  0  0
    6.8181   -1.9198    0.5938 C   0  0  0  0  0  0  0  0  0  0  0  0
    6.3315   -1.6689   -0.7215 O   0  0  0  0  0  0  0  0  0  0  0  0
    4.9450   -1.3348   -0.6749 C   0  0  0  0  0  0  0  0  0  0  0  0
    2.7875   -2.0792    2.9713 N   0  0  0  0  0  0  0  0  0  0  0  0
    1.1982    1.1349    1.6862 C   0  0  0  0  0  0  0  0  0  0  0  0
   -0.1200    1.7401    1.9449 N   0  0  0  0  0  0  0  0  0  0  0  0
   -0.4527    1.7748    3.3887 C   0  0  0  0  0  0  0  0  0  0  0  0
   -0.5618    0.3492    3.9596 C   0  0  0  0  0  0  0  0  0  0  0  0
    3.1948    0.0867    0.5576 H   0  0  0  0  0  0  0  0  0  0  0  0
    2.1506   -3.1855    4.5890 H   0  0  0  0  0  0  0  0  0  0  0  0
    4.1999   -2.6159    0.8716 H   0  0  0  0  0  0  0  0  0  0  0  0
    5.9642   -0.2580    1.6599 H   0  0  0  0  0  0  0  0  0  0  0  0
    5.7800   -1.7883    2.5262 H   0  0  0  0  0  0  0  0  0  0  0  0
    7.8047   -1.4804    0.7393 H   0  0  0  0  0  0  0  0  0  0  0  0
    6.8951   -2.9965    0.7503 H   0  0  0  0  0  0  0  0  0  0  0  0
    4.3526   -1.9110   -1.3914 H   0  0  0  0  0  0  0  0  0  0  0  0
    4.8623   -0.2802   -0.9417 H   0  0  0  0  0  0  0  0  0  0  0  0
    1.2614    0.9258    0.6203 H   0  0  0  0  0  0  0  0  0  0  0  0
    1.9843    1.8513    1.9284 H   0  0  0  0  0  0  0  0  0  0  0  0
   -0.1077    2.6948    1.5684 H   0  0  0  0  0  0  0  0  0  0  0  0
    0.3359    2.3153    3.9113 H   0  0  0  0  0  0  0  0  0  0  0  0
   -1.3811    2.3245    3.5480 H   0  0  0  0  0  0  0  0  0  0  0  0
   -0.6609    0.3830    5.0475 H   0  0  0  0  0  0  0  0  0  0  0  0
   -1.4629   -0.1358    3.5866 H   0  0  0  0  0  0  0  0  0  0  0  0
   -0.8160    1.2215    1.4279 H   0  0  0  0  0  0  0  0  0  0  0  0
  1  2  2  0
  1 18  1  0
  1 12  1  0
  2  3  1  0
  3  4  2  0
  3 16  1  0
  4  5  1  0
  4 13  1  0
  5  6  1  0
  5 12  2  0
  6  7  1  0
  6 17  1  0
  7 11  1  0
  7  8  1  0
  7 19  1  6
  8  9  1  0
  8 20  1  0
  8 21  1  0
  9 10  1  0
  9 22  1  0
  9 23  1  0
 10 11  1  0
 11 24  1  0
 11 25  1  0
 13 14  1  0
 13 26  1  0
 13 27  1  0
 14 15  1  0
 14 28  1  0
 14 33  1  0
 15 16  1  0
 15 29  1  0
 15 30  1  0
 16 31  1  0
 16 32  1  0
M  CHG  1  14   1
M  END
>  <i_m_ct_stereo_status>  (36) 
1

>  <s_m_source_file>  (36) 
/var/tmp/pbs.5076255.sched01/tmpnv36izql/0kitkh5ys.sdf

>  <i_m_source_file_index>  (36) 
13

>  <i_lp_mmshare_version>  (36) 
48012

>  <i_f3d_flags>  (36) 
0

>  <s_epik_input>  (36) 
W0NIMl0xW0NIMl1bTkhdW0NIMl1jKGMxMikvYyhbbkhdW2NIXW4yKT1OL1tDQEBIXTNbQ0gyXVtDSDJdT1tDSDJdMw==

>  <s_epik_cmdline>  (36) 
J2VwaWtfcHl0aG9uJywgJy1waHQnLCAnMi4wJywgJy1waCcsICc3LjAnLCAnLXRuJywgJzgnLCAnLW1hJywgJzIwMCcsICctaW1hZScsICc8aW5maWxlLm1hZT4nLCAnLW9tYWUnLCAnPG91dGZpbGUubWFlPic=

>  <r_lp_tautomer_probability>  (36) 
1

>  <r_epik_Ionization_Penalty>  (36) 
0.0450613

>  <r_epik_Ionization_Penalty_Charging>  (36) 
0.0448153

>  <r_epik_Ionization_Penalty_Neutral>  (36) 
0.000245956

>  <r_epik_State_Penalty>  (36) 
0.00509655

>  <r_epik_Charging_Adjusted_Penalty>  (36) 
0.0499118

>  <i_epik_Tot_Q>  (36) 
1

>  <i_epik_Tot_abs_Q>  (36) 
1

>  <s_lp_Force_Field>  (36) 
OPLS3e

>  <r_lp_Energy>  (36) 
20.8528

>  <b_lp_Chiralities_Consistent>  (36) 
1

>  <s_lp_Variant>  (36) 
9:0-1

>  <s_i_glide_gridfile>  (36) 
pfpi4k_grid

>  <i_i_glide_lignum>  (36) 
13

>  <i_i_glide_rotatable_bonds>  (36) 
2

>  <r_i_docking_score>  (36) 
-3.74858

>  <r_i_glide_ligand_efficiency>  (36) 
-0.234286

>  <r_i_glide_ligand_efficiency_sa>  (36) 
-0.590365

>  <r_i_glide_ligand_efficiency_ln>  (36) 
-0.993636

>  <r_i_glide_gscore>  (36) 
-3.74858

>  <r_i_glide_lipo>  (36) 
-0.194135

>  <r_i_glide_hbond>  (36) 
-0.342677

>  <r_i_glide_metal>  (36) 
-0

>  <r_i_glide_rewards>  (36) 
-1.90744

>  <r_i_glide_evdw>  (36) 
-18.1864

>  <r_i_glide_ecoul>  (36) 
-6.53559

>  <r_i_glide_erotb>  (36) 
0.689245

>  <r_i_glide_esite>  (36) 
-0.103911

>  <r_i_glide_emodel>  (36) 
-33.529

>  <r_i_glide_energy>  (36) 
-24.722

>  <r_i_glide_einternal>  (36) 
0.234263

>  <r_i_glide_intrahb_reward>  (36) 
-0

>  <i_i_glide_confnum>  (36) 
1

>  <i_i_glide_posenum>  (36) 
1

>  <r_i_glide_eff_state_penalty>  (36) 
0

>  <ligand_id>  (36) 
9

>  <original_smiles>  (36) 
c1nc2c(c(=NC3CCOC3)[nH]1)CNCC2

>  <smiles>  (36) 
[H]c1nc(N([H])C2([H])C([H])([H])OC([H])([H])C2([H])[H])c2c(n1)C([H])([H])C([H])([H])[N+]([H])([H])C2([H])[H]

$$$$
10:0:0
     RDKit          3D

 59 62  0  0  1  0  0  0  0  0999 V2000
    3.9845   -3.2530   -4.1785 C   0  0  0  0  0  0  0  0  0  0  0  0
    3.3807   -1.9898   -3.6187 C   0  0  0  0  0  0  0  0  0  0  0  0
    3.4940   -0.7733   -4.5210 C   0  0  0  0  0  0  0  0  0  0  0  0
    2.7896   -1.9227   -2.4129 C   0  0  0  0  0  0  0  0  0  0  0  0
    2.6461   -3.0524   -1.4008 C   0  0  0  0  0  0  0  0  0  0  0  0
    3.5748   -2.9324   -0.1359 C   0  0  1  0  0  0  0  0  0  0  0  0
    3.2783   -1.6343    0.3397 O   0  0  0  0  0  0  0  0  0  0  0  0
    3.2198   -3.9918    0.9532 C   0  0  1  0  0  0  0  0  0  0  0  0
    3.8944   -5.2103    0.3190 C   0  0  0  0  0  0  0  0  0  0  0  0
    5.3261   -4.6982    0.1146 C   0  0  2  0  0  0  0  0  0  0  0  0
    6.1319   -4.7687    1.4436 C   0  0  1  0  0  0  0  0  0  0  0  0
    6.0873   -6.1765    2.1106 C   0  0  0  0  0  0  0  0  0  0  0  0
    7.6818   -4.5020    1.1763 C   0  0  1  0  0  0  0  0  0  0  0  0
    8.4359   -5.6815    0.9556 O   0  0  0  0  0  0  0  0  0  0  0  0
    8.0746   -3.6645   -0.0568 C   0  0  0  0  0  0  0  0  0  0  0  0
    7.4963   -2.2482   -0.1302 C   0  0  0  0  0  0  0  0  0  0  0  0
    6.0216   -2.1562    0.3175 C   0  0  2  0  0  0  0  0  0  0  0  0
    5.9563   -2.2824    1.8399 C   0  0  1  0  0  0  0  0  0  0  0  0
    5.4656   -1.1170    2.4551 O   0  0  0  0  0  0  0  0  0  0  0  0
    5.4327   -3.6593    2.3450 C   0  0  1  0  0  0  0  0  0  0  0  0
    3.8232   -3.7913    2.4075 C   0  0  0  0  0  0  0  0  0  0  0  0
    3.1422   -2.6209    3.1759 C   0  0  0  0  0  0  0  0  0  0  0  0
    3.4003   -4.9783    3.3338 C   0  0  0  0  0  0  0  0  0  0  0  0
    5.1085   -3.2163   -0.3607 C   0  0  2  0  0  0  0  0  0  0  0  0
    5.4903   -3.2018   -1.7091 O   0  0  0  0  0  0  0  0  0  0  0  0
    5.0484   -3.0805   -4.3130 H   0  0  0  0  0  0  0  0  0  0  0  0
    3.5044   -3.4454   -5.1225 H   0  0  0  0  0  0  0  0  0  0  0  0
    3.8757   -4.1686   -3.5875 H   0  0  0  0  0  0  0  0  0  0  0  0
    4.5421   -0.5419   -4.6925 H   0  0  0  0  0  0  0  0  0  0  0  0
    3.0091    0.0981   -4.0884 H   0  0  0  0  0  0  0  0  0  0  0  0
    3.0362   -0.9491   -5.4948 H   0  0  0  0  0  0  0  0  0  0  0  0
    2.3957   -0.9618   -2.1541 H   0  0  0  0  0  0  0  0  0  0  0  0
    1.6091   -3.0570   -1.0817 H   0  0  0  0  0  0  0  0  0  0  0  0
    2.7285   -4.0104   -1.9067 H   0  0  0  0  0  0  0  0  0  0  0  0
    2.4124   -1.3791    0.0199 H   0  0  0  0  0  0  0  0  0  0  0  0
    2.1351   -4.1339    1.0250 H   0  0  0  0  0  0  0  0  0  0  0  0
    3.8060   -6.1452    0.8588 H   0  0  0  0  0  0  0  0  0  0  0  0
    3.4567   -5.4537   -0.6381 H   0  0  0  0  0  0  0  0  0  0  0  0
    5.8028   -5.3230   -0.6410 H   0  0  0  0  0  0  0  0  0  0  0  0
    6.7051   -6.1829    3.0114 H   0  0  0  0  0  0  0  0  0  0  0  0
    6.4474   -6.9666    1.4394 H   0  0  0  0  0  0  0  0  0  0  0  0
    5.1161   -6.5297    2.4197 H   0  0  0  0  0  0  0  0  0  0  0  0
    8.1399   -4.0776    2.0669 H   0  0  0  0  0  0  0  0  0  0  0  0
    8.4317   -6.1860    1.7582 H   0  0  0  0  0  0  0  0  0  0  0  0
    9.1566   -3.5770   -0.1145 H   0  0  0  0  0  0  0  0  0  0  0  0
    7.8055   -4.1967   -0.9664 H   0  0  0  0  0  0  0  0  0  0  0  0
    8.1197   -1.5746    0.4611 H   0  0  0  0  0  0  0  0  0  0  0  0
    7.5957   -1.9048   -1.1586 H   0  0  0  0  0  0  0  0  0  0  0  0
    5.6901   -1.1562    0.0246 H   0  0  0  0  0  0  0  0  0  0  0  0
    6.9922   -2.2182    2.1169 H   0  0  0  0  0  0  0  0  0  0  0  0
    4.5712   -0.9952    2.1646 H   0  0  0  0  0  0  0  0  0  0  0  0
    5.8060   -3.7739    3.3594 H   0  0  0  0  0  0  0  0  0  0  0  0
    3.6099   -2.4886    4.1533 H   0  0  0  0  0  0  0  0  0  0  0  0
    2.0741   -2.8027    3.3346 H   0  0  0  0  0  0  0  0  0  0  0  0
    3.1582   -1.6533    2.6948 H   0  0  0  0  0  0  0  0  0  0  0  0
    4.1650   -5.1946    4.0777 H   0  0  0  0  0  0  0  0  0  0  0  0
    3.1595   -5.9015    2.8134 H   0  0  0  0  0  0  0  0  0  0  0  0
    2.4913   -4.7789    3.9078 H   0  0  0  0  0  0  0  0  0  0  0  0
    4.8117   -3.6500   -2.1874 H   0  0  0  0  0  0  0  0  0  0  0  0
  1  2  1  0
  1 26  1  0
  1 27  1  0
  1 28  1  0
  2  3  1  0
  2  4  2  3
  3 29  1  0
  3 30  1  0
  3 31  1  0
  4  5  1  0
  4 32  1  0
  5  6  1  0
  5 33  1  0
  5 34  1  0
  6 24  1  0
  6  7  1  1
  6  8  1  0
  7 35  1  0
  8 21  1  0
  8  9  1  0
  8 36  1  1
  9 10  1  0
  9 37  1  0
  9 38  1  0
 10 24  1  0
 10 11  1  0
 10 39  1  6
 11 20  1  0
 11 12  1  1
 11 13  1  0
 12 40  1  0
 12 41  1  0
 12 42  1  0
 13 14  1  0
 13 15  1  0
 13 43  1  1
 14 44  1  0
 15 16  1  0
 15 45  1  0
 15 46  1  0
 16 17  1  0
 16 47  1  0
 16 48  1  0
 17 18  1  0
 17 24  1  0
 17 49  1  1
 18 19  1  0
 18 20  1  0
 18 50  1  1
 19 51  1  0
 20 21  1  0
 20 52  1  1
 21 22  1  0
 21 23  1  0
 22 53  1  0
 22 54  1  0
 22 55  1  0
 23 56  1  0
 23 57  1  0
 23 58  1  0
 24 25  1  6
 25 59  1  0
M  END
>  <i_m_ct_stereo_status>  (37) 
1

>  <s_m_source_file>  (37) 
/var/tmp/pbs.5076255.sched01/tmpnv36izql/0kitkh5ys.sdf

>  <i_m_source_file_index>  (37) 
14

>  <i_lp_mmshare_version>  (37) 
48012

>  <i_f3d_flags>  (37) 
0

>  <s_epik_input>  (37) 
W0NIM11DKFtDSDNdKT1bQ0hdW0NIMl1bQ0BAXTEoW09IXSlbQ0BASF0oW0NIMl0yKUMoW0NIM10pKFtDSDNdKVtDQEBIXTNbQ0BIXShbT0hdKVtDQEBIXShbQ0gyXVtDSDJdW0NAQEhdNFtPSF0pW0NAQF0xKFtPSF0pW0NASF0yW0NAXTM0W0NIM10=

>  <s_epik_cmdline>  (37) 
J2VwaWtfcHl0aG9uJywgJy1waHQnLCAnMi4wJywgJy1waCcsICc3LjAnLCAnLXRuJywgJzgnLCAnLW1hJywgJzIwMCcsICctaW1hZScsICc8aW5maWxlLm1hZT4nLCAnLW9tYWUnLCAnPG91dGZpbGUubWFlPic=

>  <r_lp_tautomer_probability>  (37) 
1

>  <r_epik_Ionization_Penalty>  (37) 
3.90638e-06

>  <r_epik_Ionization_Penalty_Charging>  (37) 
0

>  <r_epik_Ionization_Penalty_Neutral>  (37) 
3.90638e-06

>  <r_epik_State_Penalty>  (37) 
-0

>  <r_epik_Charging_Adjusted_Penalty>  (37) 
0

>  <i_epik_Tot_Q>  (37) 
0

>  <i_epik_Tot_abs_Q>  (37) 
0

>  <s_lp_Force_Field>  (37) 
OPLS3e

>  <r_lp_Energy>  (37) 
84.0633

>  <b_lp_Chiralities_Consistent>  (37) 
1

>  <s_lp_Variant>  (37) 
10:0-1

>  <s_i_glide_gridfile>  (37) 
pfpi4k_grid

>  <i_i_glide_lignum>  (37) 
14

>  <i_i_glide_rotatable_bonds>  (37) 
6

>  <r_i_docking_score>  (37) 
-3.9477

>  <r_i_glide_ligand_efficiency>  (37) 
-0.157908

>  <r_i_glide_ligand_efficiency_sa>  (37) 
-0.461726

>  <r_i_glide_ligand_efficiency_ln>  (37) 
-0.935724

>  <r_i_glide_gscore>  (37) 
-3.9477

>  <r_i_glide_lipo>  (37) 
-1.07723

>  <r_i_glide_hbond>  (37) 
0

>  <r_i_glide_metal>  (37) 
-0

>  <r_i_glide_rewards>  (37) 
-1.51937

>  <r_i_glide_evdw>  (37) 
-17.2354

>  <r_i_glide_ecoul>  (37) 
-5.33115

>  <r_i_glide_erotb>  (37) 
0.310335

>  <r_i_glide_esite>  (37) 
0

>  <r_i_glide_emodel>  (37) 
-31.7461

>  <r_i_glide_energy>  (37) 
-22.5665

>  <r_i_glide_einternal>  (37) 
3.37411

>  <r_i_glide_intrahb_reward>  (37) 
-0.5

>  <i_i_glide_confnum>  (37) 
3

>  <i_i_glide_posenum>  (37) 
40

>  <r_i_glide_eff_state_penalty>  (37) 
0

>  <ligand_id>  (37) 
10

>  <original_smiles>  (37) 
CC(C)=CCC1(O)C2CC3C4(C)C(O)CCC(C(O)C4C2(C)C)C31O

>  <smiles>  (37) 
[H]OC1([H])C2([H])C([H])([H])C([H])([H])C([H])(O[H])C3(C([H])([H])[H])C4([H])C([H])([H])C([H])(C(O[H])(C([H])([H])C([H])=C(C([H])([H])[H])C([H])([H])[H])C24O[H])C(C([H])([H])[H])(C([H])([H])[H])C13[H]

$$$$
10:0:1
     RDKit          3D

 59 62  0  0  1  0  0  0  0  0999 V2000
    1.6093   -0.4551    3.7413 C   0  0  0  0  0  0  0  0  0  0  0  0
    2.7396    0.5334    3.5392 C   0  0  0  0  0  0  0  0  0  0  0  0
    4.1294   -0.0739    3.5687 C   0  0  0  0  0  0  0  0  0  0  0  0
    2.5897    1.8550    3.3529 C   0  0  0  0  0  0  0  0  0  0  0  0
    1.3267    2.7129    3.3661 C   0  0  0  0  0  0  0  0  0  0  0  0
    1.3436    4.0528    4.1939 C   0  0  1  0  0  0  0  0  0  0  0  0
    0.1639    4.6504    3.6851 O   0  0  0  0  0  0  0  0  0  0  0  0
    1.2588    3.8032    5.7399 C   0  0  1  0  0  0  0  0  0  0  0  0
    2.7264    3.4701    6.0309 C   0  0  0  0  0  0  0  0  0  0  0  0
    3.4406    4.6792    5.4035 C   0  0  2  0  0  0  0  0  0  0  0  0
    3.3840    5.8689    6.4207 C   0  0  1  0  0  0  0  0  0  0  0  0
    3.8900    5.4897    7.8578 C   0  0  0  0  0  0  0  0  0  0  0  0
    4.3510    7.0554    5.9702 C   0  0  1  0  0  0  0  0  0  0  0  0
    5.6422    6.9954    6.5509 O   0  0  0  0  0  0  0  0  0  0  0  0
    4.6898    7.1566    4.4654 C   0  0  0  0  0  0  0  0  0  0  0  0
    3.4953    7.3640    3.5388 C   0  0  0  0  0  0  0  0  0  0  0  0
    2.2592    6.5052    3.9056 C   0  0  2  0  0  0  0  0  0  0  0  0
    1.5908    7.1220    5.1537 C   0  0  1  0  0  0  0  0  0  0  0  0
    0.2844    7.5977    4.8791 O   0  0  0  0  0  0  0  0  0  0  0  0
    1.8469    6.2775    6.4441 C   0  0  1  0  0  0  0  0  0  0  0  0
    0.8600    5.0275    6.6717 C   0  0  0  0  0  0  0  0  0  0  0  0
   -0.6355    5.4084    6.5193 C   0  0  0  0  0  0  0  0  0  0  0  0
    0.8485    4.5784    8.1738 C   0  0  0  0  0  0  0  0  0  0  0  0
    2.6070    4.9843    4.0821 C   0  0  2  0  0  0  0  0  0  0  0  0
    3.3548    4.6606    2.9303 O   0  0  0  0  0  0  0  0  0  0  0  0
    1.7228   -0.9399    4.7140 H   0  0  0  0  0  0  0  0  0  0  0  0
    1.6547   -1.2169    2.9608 H   0  0  0  0  0  0  0  0  0  0  0  0
    0.6228    0.0026    3.6982 H   0  0  0  0  0  0  0  0  0  0  0  0
    4.3026   -0.5619    4.5290 H   0  0  0  0  0  0  0  0  0  0  0  0
    4.9027    0.6865    3.4572 H   0  0  0  0  0  0  0  0  0  0  0  0
    4.2539   -0.8009    2.7678 H   0  0  0  0  0  0  0  0  0  0  0  0
    3.5023    2.3808    3.1759 H   0  0  0  0  0  0  0  0  0  0  0  0
    1.1204    2.9135    2.3139 H   0  0  0  0  0  0  0  0  0  0  0  0
    0.4692    2.1378    3.7161 H   0  0  0  0  0  0  0  0  0  0  0  0
    0.2065    4.6323    2.7311 H   0  0  0  0  0  0  0  0  0  0  0  0
    0.6076    2.9564    5.9566 H   0  0  0  0  0  0  0  0  0  0  0  0
    2.9611    3.2695    7.0662 H   0  0  0  0  0  0  0  0  0  0  0  0
    3.0528    2.5435    5.5877 H   0  0  0  0  0  0  0  0  0  0  0  0
    4.4736    4.4071    5.1863 H   0  0  0  0  0  0  0  0  0  0  0  0
    3.8753    6.3625    8.5123 H   0  0  0  0  0  0  0  0  0  0  0  0
    4.9070    5.0890    7.8503 H   0  0  0  0  0  0  0  0  0  0  0  0
    3.3249    4.7426    8.3924 H   0  0  0  0  0  0  0  0  0  0  0  0
    3.9508    8.0095    6.3216 H   0  0  0  0  0  0  0  0  0  0  0  0
    6.1437    7.7291    6.2233 H   0  0  0  0  0  0  0  0  0  0  0  0
    5.3770    7.9892    4.2950 H   0  0  0  0  0  0  0  0  0  0  0  0
    5.2506    6.2748    4.1433 H   0  0  0  0  0  0  0  0  0  0  0  0
    3.2233    8.4202    3.5114 H   0  0  0  0  0  0  0  0  0  0  0  0
    3.8387    7.1333    2.5307 H   0  0  0  0  0  0  0  0  0  0  0  0
    1.5837    6.6114    3.0521 H   0  0  0  0  0  0  0  0  0  0  0  0
    2.0548    8.0847    5.3441 H   0  0  0  0  0  0  0  0  0  0  0  0
    0.2719    7.9476    3.9800 H   0  0  0  0  0  0  0  0  0  0  0  0
    1.6920    6.9628    7.2779 H   0  0  0  0  0  0  0  0  0  0  0  0
   -0.8748    6.2730    7.1459 H   0  0  0  0  0  0  0  0  0  0  0  0
   -1.3036    4.5957    6.8133 H   0  0  0  0  0  0  0  0  0  0  0  0
   -0.9504    5.6506    5.5135 H   0  0  0  0  0  0  0  0  0  0  0  0
    1.1358    5.3927    8.8374 H   0  0  0  0  0  0  0  0  0  0  0  0
    1.4771    3.7251    8.3995 H   0  0  0  0  0  0  0  0  0  0  0  0
   -0.1269    4.2486    8.5317 H   0  0  0  0  0  0  0  0  0  0  0  0
    2.7675    4.6366    2.1830 H   0  0  0  0  0  0  0  0  0  0  0  0
  1  2  1  0
  1 26  1  0
  1 27  1  0
  1 28  1  0
  2  3  1  0
  2  4  2  3
  3 29  1  0
  3 30  1  0
  3 31  1  0
  4  5  1  0
  4 32  1  0
  5  6  1  0
  5 33  1  0
  5 34  1  0
  6 24  1  0
  6  7  1  6
  6  8  1  0
  7 35  1  0
  8 21  1  0
  8  9  1  0
  8 36  1  6
  9 10  1  0
  9 37  1  0
  9 38  1  0
 10 24  1  0
 10 11  1  0
 10 39  1  6
 11 20  1  0
 11 12  1  1
 11 13  1  0
 12 40  1  0
 12 41  1  0
 12 42  1  0
 13 14  1  0
 13 15  1  0
 13 43  1  1
 14 44  1  0
 15 16  1  0
 15 45  1  0
 15 46  1  0
 16 17  1  0
 16 47  1  0
 16 48  1  0
 17 18  1  0
 17 24  1  0
 17 49  1  6
 18 19  1  0
 18 20  1  0
 18 50  1  1
 19 51  1  0
 20 21  1  0
 20 52  1  1
 21 22  1  0
 21 23  1  0
 22 53  1  0
 22 54  1  0
 22 55  1  0
 23 56  1  0
 23 57  1  0
 23 58  1  0
 24 25  1  6
 25 59  1  0
M  END
>  <i_m_ct_stereo_status>  (38) 
1

>  <s_m_source_file>  (38) 
/var/tmp/pbs.5076255.sched01/tmpnv36izql/0kitkh5ys.sdf

>  <i_m_source_file_index>  (38) 
14

>  <i_lp_mmshare_version>  (38) 
48012

>  <i_f3d_flags>  (38) 
0

>  <s_epik_input>  (38) 
W0NIM11DKFtDSDNdKT1bQ0hdW0NIMl1bQ0BAXTEoW09IXSlbQ0BASF0oW0NIMl0yKUMoW0NIM10pKFtDSDNdKVtDQEBIXTNbQ0BIXShbT0hdKVtDQEBIXShbQ0gyXVtDSDJdW0NAQEhdNFtPSF0pW0NAQF0xKFtPSF0pW0NASF0yW0NAXTM0W0NIM10=

>  <s_epik_cmdline>  (38) 
J2VwaWtfcHl0aG9uJywgJy1waHQnLCAnMi4wJywgJy1waCcsICc3LjAnLCAnLXRuJywgJzgnLCAnLW1hJywgJzIwMCcsICctaW1hZScsICc8aW5maWxlLm1hZT4nLCAnLW9tYWUnLCAnPG91dGZpbGUubWFlPic=

>  <r_lp_tautomer_probability>  (38) 
1

>  <r_epik_Ionization_Penalty>  (38) 
3.90638e-06

>  <r_epik_Ionization_Penalty_Charging>  (38) 
0

>  <r_epik_Ionization_Penalty_Neutral>  (38) 
3.90638e-06

>  <r_epik_State_Penalty>  (38) 
-0

>  <r_epik_Charging_Adjusted_Penalty>  (38) 
0

>  <i_epik_Tot_Q>  (38) 
0

>  <i_epik_Tot_abs_Q>  (38) 
0

>  <s_lp_Force_Field>  (38) 
OPLS3e

>  <r_lp_Energy>  (38) 
84.0633

>  <b_lp_Chiralities_Consistent>  (38) 
1

>  <s_lp_Variant>  (38) 
10:0-1

>  <s_i_glide_gridfile>  (38) 
pfpi4k_grid

>  <i_i_glide_lignum>  (38) 
14

>  <i_i_glide_rotatable_bonds>  (38) 
6

>  <r_i_docking_score>  (38) 
-2.7933

>  <r_i_glide_ligand_efficiency>  (38) 
-0.111732

>  <r_i_glide_ligand_efficiency_sa>  (38) 
-0.326706

>  <r_i_glide_ligand_efficiency_ln>  (38) 
-0.662096

>  <r_i_glide_gscore>  (38) 
-2.7933

>  <r_i_glide_lipo>  (38) 
-0.0762263

>  <r_i_glide_hbond>  (38) 
0

>  <r_i_glide_metal>  (38) 
-0

>  <r_i_glide_rewards>  (38) 
-1.01937

>  <r_i_glide_evdw>  (38) 
-12.2628

>  <r_i_glide_ecoul>  (38) 
-9.29931

>  <r_i_glide_erotb>  (38) 
0.310335

>  <r_i_glide_esite>  (38) 
0

>  <r_i_glide_emodel>  (38) 
-22.3519

>  <r_i_glide_energy>  (38) 
-21.5621

>  <r_i_glide_einternal>  (38) 
6.72911

>  <r_i_glide_intrahb_reward>  (38) 
-0

>  <i_i_glide_confnum>  (38) 
3

>  <i_i_glide_posenum>  (38) 
35

>  <r_i_glide_eff_state_penalty>  (38) 
0

>  <ligand_id>  (38) 
10

>  <original_smiles>  (38) 
CC(C)=CCC1(O)C2CC3C4(C)C(O)CCC(C(O)C4C2(C)C)C31O

>  <smiles>  (38) 
[H]OC1([H])C2([H])C([H])([H])C([H])([H])C([H])(O[H])C3(C([H])([H])[H])C4([H])C([H])([H])C([H])(C(O[H])(C([H])([H])C([H])=C(C([H])([H])[H])C([H])([H])[H])C24O[H])C(C([H])([H])[H])(C([H])([H])[H])C13[H]

$$$$
10:0:2
     RDKit          3D

 59 62  0  0  1  0  0  0  0  0999 V2000
   -3.6035    5.8051    1.8002 C   0  0  0  0  0  0  0  0  0  0  0  0
   -4.2636    4.5277    2.3007 C   0  0  0  0  0  0  0  0  0  0  0  0
   -5.7738    4.6586    2.4225 C   0  0  0  0  0  0  0  0  0  0  0  0
   -3.6193    3.3810    2.6239 C   0  0  0  0  0  0  0  0  0  0  0  0
   -2.1306    3.0510    2.5193 C   0  0  0  0  0  0  0  0  0  0  0  0
   -1.2936    3.1321    3.8456 C   0  0  1  0  0  0  0  0  0  0  0  0
   -1.2659    4.5290    4.0375 O   0  0  0  0  0  0  0  0  0  0  0  0
   -1.9476    2.3452    5.0080 C   0  0  1  0  0  0  0  0  0  0  0  0
   -1.5348    0.9238    4.5860 C   0  0  0  0  0  0  0  0  0  0  0  0
   -0.0135    1.0682    4.4807 C   0  0  2  0  0  0  0  0  0  0  0  0
    0.6361    1.0323    5.9080 C   0  0  1  0  0  0  0  0  0  0  0  0
    0.1987   -0.2062    6.7565 C   0  0  0  0  0  0  0  0  0  0  0  0
    2.2240    0.9145    5.8094 C   0  0  1  0  0  0  0  0  0  0  0  0
    2.6902   -0.4188    5.8877 O   0  0  0  0  0  0  0  0  0  0  0  0
    2.8956    1.4165    4.5075 C   0  0  0  0  0  0  0  0  0  0  0  0
    2.6798    2.8918    4.1714 C   0  0  0  0  0  0  0  0  0  0  0  0
    1.2426    3.3763    4.4362 C   0  0  2  0  0  0  0  0  0  0  0  0
    1.0487    3.5114    5.9690 C   0  0  1  0  0  0  0  0  0  0  0  0
    0.8221    4.8451    6.3578 O   0  0  0  0  0  0  0  0  0  0  0  0
    0.1532    2.3833    6.5800 C   0  0  1  0  0  0  0  0  0  0  0  0
   -1.4295    2.6137    6.4730 C   0  0  0  0  0  0  0  0  0  0  0  0
   -1.8659    4.0083    6.9735 C   0  0  0  0  0  0  0  0  0  0  0  0
   -2.2232    1.7222    7.4808 C   0  0  0  0  0  0  0  0  0  0  0  0
    0.1400    2.4745    3.7752 C   0  0  2  0  0  0  0  0  0  0  0  0
    0.4956    2.2056    2.4321 O   0  0  0  0  0  0  0  0  0  0  0  0
   -3.8728    6.6198    2.4724 H   0  0  0  0  0  0  0  0  0  0  0  0
   -3.9861    6.0604    0.8108 H   0  0  0  0  0  0  0  0  0  0  0  0
   -2.5145    5.7548    1.7120 H   0  0  0  0  0  0  0  0  0  0  0  0
   -6.1095    5.3797    3.1481 H   0  0  0  0  0  0  0  0  0  0  0  0
   -6.2468    3.7474    2.7587 H   0  0  0  0  0  0  0  0  0  0  0  0
   -6.2009    4.9328    1.4637 H   0  0  0  0  0  0  0  0  0  0  0  0
   -4.1851    2.5496    2.9937 H   0  0  0  0  0  0  0  0  0  0  0  0
   -2.0653    2.0602    2.0688 H   0  0  0  0  0  0  0  0  0  0  0  0
   -1.7059    3.7417    1.8208 H   0  0  0  0  0  0  0  0  0  0  0  0
   -0.7207    4.8847    3.3462 H   0  0  0  0  0  0  0  0  0  0  0  0
   -3.0197    2.5129    4.9998 H   0  0  0  0  0  0  0  0  0  0  0  0
   -1.8814    0.1152    5.2165 H   0  0  0  0  0  0  0  0  0  0  0  0
   -1.9271    0.6565    3.6128 H   0  0  0  0  0  0  0  0  0  0  0  0
    0.3841    0.2540    3.8704 H   0  0  0  0  0  0  0  0  0  0  0  0
    0.7173   -0.1981    7.7168 H   0  0  0  0  0  0  0  0  0  0  0  0
    0.4286   -1.1501    6.2563 H   0  0  0  0  0  0  0  0  0  0  0  0
   -0.8524   -0.2765    6.9828 H   0  0  0  0  0  0  0  0  0  0  0  0
    2.6767    1.3949    6.6769 H   0  0  0  0  0  0  0  0  0  0  0  0
    3.6360   -0.4012    5.9351 H   0  0  0  0  0  0  0  0  0  0  0  0
    3.9729    1.2561    4.5744 H   0  0  0  0  0  0  0  0  0  0  0  0
    2.5730    0.8041    3.6631 H   0  0  0  0  0  0  0  0  0  0  0  0
    3.3803    3.4925    4.7551 H   0  0  0  0  0  0  0  0  0  0  0  0
    2.9534    3.0620    3.1287 H   0  0  0  0  0  0  0  0  0  0  0  0
    1.2105    4.3701    3.9830 H   0  0  0  0  0  0  0  0  0  0  0  0
    2.0125    3.4027    6.4546 H   0  0  0  0  0  0  0  0  0  0  0  0
    1.4757    5.4029    5.9551 H   0  0  0  0  0  0  0  0  0  0  0  0
    0.3969    2.3507    7.6412 H   0  0  0  0  0  0  0  0  0  0  0  0
   -1.5010    4.1961    7.9846 H   0  0  0  0  0  0  0  0  0  0  0  0
   -2.9517    4.1257    6.9746 H   0  0  0  0  0  0  0  0  0  0  0  0
   -1.4974    4.8081    6.3560 H   0  0  0  0  0  0  0  0  0  0  0  0
   -1.6071    1.4576    8.3409 H   0  0  0  0  0  0  0  0  0  0  0  0
   -2.6399    0.8259    7.0348 H   0  0  0  0  0  0  0  0  0  0  0  0
   -3.1040    2.2150    7.8948 H   0  0  0  0  0  0  0  0  0  0  0  0
    0.4165    3.0129    1.9225 H   0  0  0  0  0  0  0  0  0  0  0  0
  1  2  1  0
  1 26  1  0
  1 27  1  0
  1 28  1  0
  2  3  1  0
  2  4  2  3
  3 29  1  0
  3 30  1  0
  3 31  1  0
  4  5  1  0
  4 32  1  0
  5  6  1  0
  5 33  1  0
  5 34  1  0
  6 24  1  0
  6  7  1  1
  6  8  1  0
  7 35  1  0
  8 21  1  0
  8  9  1  0
  8 36  1  1
  9 10  1  0
  9 37  1  0
  9 38  1  0
 10 24  1  0
 10 11  1  0
 10 39  1  6
 11 20  1  0
 11 12  1  1
 11 13  1  0
 12 40  1  0
 12 41  1  0
 12 42  1  0
 13 14  1  0
 13 15  1  0
 13 43  1  1
 14 44  1  0
 15 16  1  0
 15 45  1  0
 15 46  1  0
 16 17  1  0
 16 47  1  0
 16 48  1  0
 17 18  1  0
 17 24  1  0
 17 49  1  6
 18 19  1  0
 18 20  1  0
 18 50  1  1
 19 51  1  0
 20 21  1  0
 20 52  1  1
 21 22  1  0
 21 23  1  0
 22 53  1  0
 22 54  1  0
 22 55  1  0
 23 56  1  0
 23 57  1  0
 23 58  1  0
 24 25  1  6
 25 59  1  0
M  END
>  <i_m_ct_stereo_status>  (39) 
1

>  <s_m_source_file>  (39) 
/var/tmp/pbs.5076255.sched01/tmpnv36izql/0kitkh5ys.sdf

>  <i_m_source_file_index>  (39) 
14

>  <i_lp_mmshare_version>  (39) 
48012

>  <i_f3d_flags>  (39) 
0

>  <s_epik_input>  (39) 
W0NIM11DKFtDSDNdKT1bQ0hdW0NIMl1bQ0BAXTEoW09IXSlbQ0BASF0oW0NIMl0yKUMoW0NIM10pKFtDSDNdKVtDQEBIXTNbQ0BIXShbT0hdKVtDQEBIXShbQ0gyXVtDSDJdW0NAQEhdNFtPSF0pW0NAQF0xKFtPSF0pW0NASF0yW0NAXTM0W0NIM10=

>  <s_epik_cmdline>  (39) 
J2VwaWtfcHl0aG9uJywgJy1waHQnLCAnMi4wJywgJy1waCcsICc3LjAnLCAnLXRuJywgJzgnLCAnLW1hJywgJzIwMCcsICctaW1hZScsICc8aW5maWxlLm1hZT4nLCAnLW9tYWUnLCAnPG91dGZpbGUubWFlPic=

>  <r_lp_tautomer_probability>  (39) 
1

>  <r_epik_Ionization_Penalty>  (39) 
3.90638e-06

>  <r_epik_Ionization_Penalty_Charging>  (39) 
0

>  <r_epik_Ionization_Penalty_Neutral>  (39) 
3.90638e-06

>  <r_epik_State_Penalty>  (39) 
-0

>  <r_epik_Charging_Adjusted_Penalty>  (39) 
0

>  <i_epik_Tot_Q>  (39) 
0

>  <i_epik_Tot_abs_Q>  (39) 
0

>  <s_lp_Force_Field>  (39) 
OPLS3e

>  <r_lp_Energy>  (39) 
84.0633

>  <b_lp_Chiralities_Consistent>  (39) 
1

>  <s_lp_Variant>  (39) 
10:0-1

>  <s_i_glide_gridfile>  (39) 
pfpi4k_grid

>  <i_i_glide_lignum>  (39) 
14

>  <i_i_glide_rotatable_bonds>  (39) 
6

>  <r_i_docking_score>  (39) 
-2.41295

>  <r_i_glide_ligand_efficiency>  (39) 
-0.096518

>  <r_i_glide_ligand_efficiency_sa>  (39) 
-0.28222

>  <r_i_glide_ligand_efficiency_ln>  (39) 
-0.571941

>  <r_i_glide_gscore>  (39) 
-2.41295

>  <r_i_glide_lipo>  (39) 
-0.138503

>  <r_i_glide_hbond>  (39) 
0

>  <r_i_glide_metal>  (39) 
-0

>  <r_i_glide_rewards>  (39) 
-1.01937

>  <r_i_glide_evdw>  (39) 
-12.2989

>  <r_i_glide_ecoul>  (39) 
-6.33643

>  <r_i_glide_erotb>  (39) 
0.310335

>  <r_i_glide_esite>  (39) 
0

>  <r_i_glide_emodel>  (39) 
-21.2935

>  <r_i_glide_energy>  (39) 
-18.6353

>  <r_i_glide_einternal>  (39) 
1.84079

>  <r_i_glide_intrahb_reward>  (39) 
-0

>  <i_i_glide_confnum>  (39) 
3

>  <i_i_glide_posenum>  (39) 
1

>  <r_i_glide_eff_state_penalty>  (39) 
0

>  <ligand_id>  (39) 
10

>  <original_smiles>  (39) 
CC(C)=CCC1(O)C2CC3C4(C)C(O)CCC(C(O)C4C2(C)C)C31O

>  <smiles>  (39) 
[H]OC1([H])C2([H])C([H])([H])C([H])([H])C([H])(O[H])C3(C([H])([H])[H])C4([H])C([H])([H])C([H])(C(O[H])(C([H])([H])C([H])=C(C([H])([H])[H])C([H])([H])[H])C24O[H])C(C([H])([H])[H])(C([H])([H])[H])C13[H]

$$$$
12:0:0
     RDKit          3D

 45 48  0  0  1  0  0  0  0  0999 V2000
    3.3754   -0.3304   -3.1785 C   0  0  0  0  0  0  0  0  0  0  0  0
    4.3861   -1.3372   -2.6637 C   0  0  0  0  0  0  0  0  0  0  0  0
    4.4047   -1.9818   -1.4767 C   0  0  0  0  0  0  0  0  0  0  0  0
    3.4347   -1.7966   -0.3357 C   0  0  1  0  0  0  0  0  0  0  0  0
    2.5290   -3.0330   -0.1239 C   0  0  0  0  0  0  0  0  0  0  0  0
    3.0865   -4.3494    0.5044 C   0  0  2  0  0  0  0  0  0  0  0  0
    2.8572   -4.4576    2.0267 C   0  0  0  0  0  0  0  0  0  0  0  0
    1.7166   -4.6908    2.4466 O   0  0  0  0  0  0  0  0  0  0  0  0
    4.0035   -4.3152    2.9479 C   0  0  0  0  0  0  0  0  0  0  0  0
    3.7086   -4.4019    4.2869 O   0  0  0  0  0  0  0  0  0  0  0  0
    4.6182   -5.1451    5.0870 C   0  0  0  0  0  0  0  0  0  0  0  0
    5.2633   -4.1956    2.4623 C   0  0  0  0  0  0  0  0  0  0  0  0
    5.6269   -4.1836    0.9932 C   0  0  1  0  0  0  0  0  0  0  0  0
    4.5239   -4.7859    0.1225 C   0  0  2  0  0  0  0  0  0  0  0  0
    4.9700   -4.3702   -1.2590 C   0  0  0  0  0  0  0  0  0  0  0  0
    5.5000   -2.9487   -1.1167 C   0  0  2  0  0  0  0  0  0  0  0  0
    6.0081   -2.8072    0.3602 C   0  0  2  0  0  0  0  0  0  0  0  0
    7.5443   -2.6558    0.2907 C   0  0  0  0  0  0  0  0  0  0  0  0
    5.3909   -1.6742    1.1308 N   0  0  0  0  0  0  0  0  0  0  0  0
    6.1149   -1.1107    2.2800 C   0  0  0  0  0  0  0  0  0  0  0  0
    4.1019   -1.3096    0.9386 C   0  0  0  0  0  0  0  0  0  0  0  0
    3.4645   -0.5822    1.7068 O   0  0  0  0  0  0  0  0  0  0  0  0
    3.0255   -0.6224   -4.1712 H   0  0  0  0  0  0  0  0  0  0  0  0
    3.8434    0.6547   -3.2671 H   0  0  0  0  0  0  0  0  0  0  0  0
    2.4920   -0.2766   -2.5440 H   0  0  0  0  0  0  0  0  0  0  0  0
    5.1625   -1.5723   -3.3716 H   0  0  0  0  0  0  0  0  0  0  0  0
    2.7950   -0.9637   -0.5914 H   0  0  0  0  0  0  0  0  0  0  0  0
    1.7175   -2.6699    0.5059 H   0  0  0  0  0  0  0  0  0  0  0  0
    2.0720   -3.2868   -1.0854 H   0  0  0  0  0  0  0  0  0  0  0  0
    2.4426   -5.1332    0.0993 H   0  0  0  0  0  0  0  0  0  0  0  0
    4.2634   -5.1670    6.1186 H   0  0  0  0  0  0  0  0  0  0  0  0
    5.6220   -4.7212    5.1009 H   0  0  0  0  0  0  0  0  0  0  0  0
    4.6693   -6.1757    4.7329 H   0  0  0  0  0  0  0  0  0  0  0  0
    6.1188   -4.1115    3.1172 H   0  0  0  0  0  0  0  0  0  0  0  0
    6.4820   -4.8546    0.9068 H   0  0  0  0  0  0  0  0  0  0  0  0
    4.5571   -5.8753    0.2056 H   0  0  0  0  0  0  0  0  0  0  0  0
    5.7775   -5.0242   -1.5111 H   0  0  0  0  0  0  0  0  0  0  0  0
    4.2166   -4.4648   -2.0354 H   0  0  0  0  0  0  0  0  0  0  0  0
    6.3047   -2.8180   -1.8409 H   0  0  0  0  0  0  0  0  0  0  0  0
    8.0006   -3.4250   -0.3359 H   0  0  0  0  0  0  0  0  0  0  0  0
    7.9979   -2.7535    1.2739 H   0  0  0  0  0  0  0  0  0  0  0  0
    7.8268   -1.6889   -0.1305 H   0  0  0  0  0  0  0  0  0  0  0  0
    5.6204   -0.2564    2.7403 H   0  0  0  0  0  0  0  0  0  0  0  0
    7.0997   -0.7513    1.9961 H   0  0  0  0  0  0  0  0  0  0  0  0
    6.2074   -1.8477    3.0710 H   0  0  0  0  0  0  0  0  0  0  0  0
  1  2  1  0
  1 23  1  0
  1 24  1  0
  1 25  1  0
  2  3  2  3
  2 26  1  0
  3 16  1  0
  3  4  1  0
  4 21  1  0
  4  5  1  0
  4 27  1  6
  5  6  1  0
  5 28  1  0
  5 29  1  0
  6 14  1  0
  6  7  1  0
  6 30  1  6
  7  8  2  0
  7  9  1  0
  9 10  1  0
  9 12  2  0
 10 11  1  0
 11 31  1  0
 11 32  1  0
 11 33  1  0
 12 13  1  0
 12 34  1  0
 13 17  1  0
 13 14  1  0
 13 35  1  1
 14 15  1  0
 14 36  1  6
 15 16  1  0
 15 37  1  0
 15 38  1  0
 16 17  1  0
 16 39  1  6
 17 18  1  6
 17 19  1  0
 18 40  1  0
 18 41  1  0
 18 42  1  0
 19 20  1  0
 19 21  1  0
 20 43  1  0
 20 44  1  0
 20 45  1  0
 21 22  2  0
M  END
>  <i_m_ct_stereo_status>  (40) 
1

>  <s_m_source_file>  (40) 
/var/tmp/pbs.5076255.sched01/tmpnv36izql/0kitkh5ys.sdf

>  <i_m_source_file_index>  (40) 
16

>  <i_lp_mmshare_version>  (40) 
48012

>  <i_f3d_flags>  (40) 
0

>  <s_epik_input>  (40) 
W0NIM10vW0NIXT1DKFtDQEBIXTFbQ0gyXTIpXFtDQEhdKEMoPU8pTjNbQ0gzXSlbQ0gyXVtDQEhdKEMoPU8pQyg9W0NIXTQpT1tDSDNdKVtDQEBIXTJbQ0BASF00W0NAQF0xM1tDSDNd

>  <s_epik_cmdline>  (40) 
J2VwaWtfcHl0aG9uJywgJy1waHQnLCAnMi4wJywgJy1waCcsICc3LjAnLCAnLXRuJywgJzgnLCAnLW1hJywgJzIwMCcsICctaW1hZScsICc8aW5maWxlLm1hZT4nLCAnLW9tYWUnLCAnPG91dGZpbGUubWFlPic=

>  <r_lp_tautomer_probability>  (40) 
1

>  <r_epik_Ionization_Penalty>  (40) 
1.25725e-09

>  <r_epik_Ionization_Penalty_Charging>  (40) 
0

>  <r_epik_Ionization_Penalty_Neutral>  (40) 
1.25725e-09

>  <r_epik_State_Penalty>  (40) 
-0

>  <r_epik_Charging_Adjusted_Penalty>  (40) 
0

>  <i_epik_Tot_Q>  (40) 
0

>  <i_epik_Tot_abs_Q>  (40) 
0

>  <s_lp_Force_Field>  (40) 
OPLS3e

>  <r_lp_Energy>  (40) 
45.9723

>  <b_lp_Chiralities_Consistent>  (40) 
1

>  <s_lp_Variant>  (40) 
12:0-1

>  <s_i_glide_gridfile>  (40) 
pfpi4k_grid

>  <i_i_glide_lignum>  (40) 
16

>  <i_i_glide_rotatable_bonds>  (40) 
1

>  <r_i_docking_score>  (40) 
-2.65461

>  <r_i_glide_ligand_efficiency>  (40) 
-0.120664

>  <r_i_glide_ligand_efficiency_sa>  (40) 
-0.338106

>  <r_i_glide_ligand_efficiency_ln>  (40) 
-0.648884

>  <r_i_glide_gscore>  (40) 
-2.65461

>  <r_i_glide_lipo>  (40) 
-0.562405

>  <r_i_glide_hbond>  (40) 
0

>  <r_i_glide_metal>  (40) 
-0

>  <r_i_glide_rewards>  (40) 
-1.48343

>  <r_i_glide_evdw>  (40) 
-13.9533

>  <r_i_glide_ecoul>  (40) 
0.715937

>  <r_i_glide_erotb>  (40) 
0

>  <r_i_glide_esite>  (40) 
-0.018496

>  <r_i_glide_emodel>  (40) 
-15.2146

>  <r_i_glide_energy>  (40) 
-13.2374

>  <r_i_glide_einternal>  (40) 
0.015542

>  <r_i_glide_intrahb_reward>  (40) 
-0

>  <i_i_glide_confnum>  (40) 
1

>  <i_i_glide_posenum>  (40) 
31

>  <r_i_glide_eff_state_penalty>  (40) 
0

>  <ligand_id>  (40) 
12

>  <original_smiles>  (40) 
CC=C1C2CC3C(=O)C(OC)=CC4C3CC1C4(C)N(C)C2=O

>  <smiles>  (40) 
[H]C(=C1C2([H])C(=O)N(C([H])([H])[H])C3(C([H])([H])[H])C1([H])C([H])([H])C1([H])C([H])(C(=O)C(OC([H])([H])[H])=C([H])C13[H])C2([H])[H])C([H])([H])[H]

$$$$
12:0:1
     RDKit          3D

 45 48  0  0  1  0  0  0  0  0999 V2000
    3.2606    0.0501   -3.5503 C   0  0  0  0  0  0  0  0  0  0  0  0
    4.2398   -1.0655   -3.2760 C   0  0  0  0  0  0  0  0  0  0  0  0
    4.3976   -1.7624   -2.1419 C   0  0  0  0  0  0  0  0  0  0  0  0
    3.6533   -1.5835   -0.8305 C   0  0  1  0  0  0  0  0  0  0  0  0
    2.6851   -2.7451   -0.4989 C   0  0  0  0  0  0  0  0  0  0  0  0
    3.2140   -4.1336   -0.0625 C   0  0  2  0  0  0  0  0  0  0  0  0
    3.2581   -4.3079    1.4670 C   0  0  0  0  0  0  0  0  0  0  0  0
    2.1838   -4.4361    2.0594 O   0  0  0  0  0  0  0  0  0  0  0  0
    4.5495   -4.3250    2.1769 C   0  0  0  0  0  0  0  0  0  0  0  0
    4.4848   -4.4841    3.5388 O   0  0  0  0  0  0  0  0  0  0  0  0
    5.4222   -5.3800    4.1182 C   0  0  0  0  0  0  0  0  0  0  0  0
    5.7045   -4.2914    1.4626 C   0  0  0  0  0  0  0  0  0  0  0  0
    5.7932   -4.2205   -0.0536 C   0  0  1  0  0  0  0  0  0  0  0  0
    4.4977   -4.6525   -0.7384 C   0  0  2  0  0  0  0  0  0  0  0  0
    4.7128   -4.1612   -2.1635 C   0  0  0  0  0  0  0  0  0  0  0  0
    5.4383   -2.8338   -2.0403 C   0  0  2  0  0  0  0  0  0  0  0  0
    6.2091   -2.8587   -0.6722 C   0  0  2  0  0  0  0  0  0  0  0  0
    7.7194   -2.8596   -1.0175 C   0  0  0  0  0  0  0  0  0  0  0  0
    5.8571   -1.7398    0.2487 N   0  0  0  0  0  0  0  0  0  0  0  0
    6.8434   -1.3187    1.2488 C   0  0  0  0  0  0  0  0  0  0  0  0
    4.6027   -1.2318    0.3040 C   0  0  0  0  0  0  0  0  0  0  0  0
    4.1959   -0.4873    1.1986 O   0  0  0  0  0  0  0  0  0  0  0  0
    2.7060   -0.1089   -4.4770 H   0  0  0  0  0  0  0  0  0  0  0  0
    3.8005    1.0024   -3.6426 H   0  0  0  0  0  0  0  0  0  0  0  0
    2.5143    0.1019   -2.7612 H   0  0  0  0  0  0  0  0  0  0  0  0
    4.8638   -1.2956   -4.1263 H   0  0  0  0  0  0  0  0  0  0  0  0
    3.0148   -0.7162   -0.9199 H   0  0  0  0  0  0  0  0  0  0  0  0
    2.0413   -2.3911    0.3053 H   0  0  0  0  0  0  0  0  0  0  0  0
    2.0455   -2.8857   -1.3709 H   0  0  0  0  0  0  0  0  0  0  0  0
    2.4201   -4.8223   -0.3827 H   0  0  0  0  0  0  0  0  0  0  0  0
    5.2662   -5.4230    5.1964 H   0  0  0  0  0  0  0  0  0  0  0  0
    6.4633   -5.0905    3.9723 H   0  0  0  0  0  0  0  0  0  0  0  0
    5.2699   -6.3794    3.7151 H   0  0  0  0  0  0  0  0  0  0  0  0
    6.6750   -4.3241    1.9186 H   0  0  0  0  0  0  0  0  0  0  0  0
    6.5472   -4.9739   -0.2957 H   0  0  0  0  0  0  0  0  0  0  0  0
    4.4416   -5.7434   -0.7244 H   0  0  0  0  0  0  0  0  0  0  0  0
    5.3497   -4.8732   -2.6810 H   0  0  0  0  0  0  0  0  0  0  0  0
    3.8081   -4.0377   -2.7624 H   0  0  0  0  0  0  0  0  0  0  0  0
    6.1167   -2.7366   -2.8989 H   0  0  0  0  0  0  0  0  0  0  0  0
    7.9653   -3.6199   -1.7600 H   0  0  0  0  0  0  0  0  0  0  0  0
    8.3484   -3.0395   -0.1481 H   0  0  0  0  0  0  0  0  0  0  0  0
    8.0193   -1.9093   -1.4566 H   0  0  0  0  0  0  0  0  0  0  0  0
    6.5252   -0.4723    1.8497 H   0  0  0  0  0  0  0  0  0  0  0  0
    7.8053   -1.0439    0.8179 H   0  0  0  0  0  0  0  0  0  0  0  0
    7.0077   -2.1198    1.9528 H   0  0  0  0  0  0  0  0  0  0  0  0
  1  2  1  0
  1 23  1  0
  1 24  1  0
  1 25  1  0
  2  3  2  3
  2 26  1  0
  3 16  1  0
  3  4  1  0
  4 21  1  0
  4  5  1  0
  4 27  1  6
  5  6  1  0
  5 28  1  0
  5 29  1  0
  6 14  1  0
  6  7  1  0
  6 30  1  6
  7  8  2  0
  7  9  1  0
  9 10  1  0
  9 12  2  0
 10 11  1  0
 11 31  1  0
 11 32  1  0
 11 33  1  0
 12 13  1  0
 12 34  1  0
 13 17  1  0
 13 14  1  0
 13 35  1  6
 14 15  1  0
 14 36  1  6
 15 16  1  0
 15 37  1  0
 15 38  1  0
 16 17  1  0
 16 39  1  6
 17 18  1  6
 17 19  1  0
 18 40  1  0
 18 41  1  0
 18 42  1  0
 19 20  1  0
 19 21  1  0
 20 43  1  0
 20 44  1  0
 20 45  1  0
 21 22  2  0
M  END
>  <i_m_ct_stereo_status>  (41) 
1

>  <s_m_source_file>  (41) 
/var/tmp/pbs.5076255.sched01/tmpnv36izql/0kitkh5ys.sdf

>  <i_m_source_file_index>  (41) 
16

>  <i_lp_mmshare_version>  (41) 
48012

>  <i_f3d_flags>  (41) 
0

>  <s_epik_input>  (41) 
W0NIM10vW0NIXT1DKFtDQEBIXTFbQ0gyXTIpXFtDQEhdKEMoPU8pTjNbQ0gzXSlbQ0gyXVtDQEhdKEMoPU8pQyg9W0NIXTQpT1tDSDNdKVtDQEBIXTJbQ0BASF00W0NAQF0xM1tDSDNd

>  <s_epik_cmdline>  (41) 
J2VwaWtfcHl0aG9uJywgJy1waHQnLCAnMi4wJywgJy1waCcsICc3LjAnLCAnLXRuJywgJzgnLCAnLW1hJywgJzIwMCcsICctaW1hZScsICc8aW5maWxlLm1hZT4nLCAnLW9tYWUnLCAnPG91dGZpbGUubWFlPic=

>  <r_lp_tautomer_probability>  (41) 
1

>  <r_epik_Ionization_Penalty>  (41) 
1.25725e-09

>  <r_epik_Ionization_Penalty_Charging>  (41) 
0

>  <r_epik_Ionization_Penalty_Neutral>  (41) 
1.25725e-09

>  <r_epik_State_Penalty>  (41) 
-0

>  <r_epik_Charging_Adjusted_Penalty>  (41) 
0

>  <i_epik_Tot_Q>  (41) 
0

>  <i_epik_Tot_abs_Q>  (41) 
0

>  <s_lp_Force_Field>  (41) 
OPLS3e

>  <r_lp_Energy>  (41) 
45.9723

>  <b_lp_Chiralities_Consistent>  (41) 
1

>  <s_lp_Variant>  (41) 
12:0-1

>  <s_i_glide_gridfile>  (41) 
pfpi4k_grid

>  <i_i_glide_lignum>  (41) 
16

>  <i_i_glide_rotatable_bonds>  (41) 
1

>  <r_i_docking_score>  (41) 
-2.65125

>  <r_i_glide_ligand_efficiency>  (41) 
-0.120511

>  <r_i_glide_ligand_efficiency_sa>  (41) 
-0.337678

>  <r_i_glide_ligand_efficiency_ln>  (41) 
-0.648063

>  <r_i_glide_gscore>  (41) 
-2.65125

>  <r_i_glide_lipo>  (41) 
-0.388415

>  <r_i_glide_hbond>  (41) 
0

>  <r_i_glide_metal>  (41) 
-0

>  <r_i_glide_rewards>  (41) 
-1.42302

>  <r_i_glide_evdw>  (41) 
-19.1954

>  <r_i_glide_ecoul>  (41) 
0.799653

>  <r_i_glide_erotb>  (41) 
0

>  <r_i_glide_esite>  (41) 
0

>  <r_i_glide_emodel>  (41) 
-20.3551

>  <r_i_glide_energy>  (41) 
-18.3957

>  <r_i_glide_einternal>  (41) 
0.0366719

>  <r_i_glide_intrahb_reward>  (41) 
-0

>  <i_i_glide_confnum>  (41) 
2

>  <i_i_glide_posenum>  (41) 
33

>  <r_i_glide_eff_state_penalty>  (41) 
0

>  <ligand_id>  (41) 
12

>  <original_smiles>  (41) 
CC=C1C2CC3C(=O)C(OC)=CC4C3CC1C4(C)N(C)C2=O

>  <smiles>  (41) 
[H]C(=C1C2([H])C(=O)N(C([H])([H])[H])C3(C([H])([H])[H])C1([H])C([H])([H])C1([H])C([H])(C(=O)C(OC([H])([H])[H])=C([H])C13[H])C2([H])[H])C([H])([H])[H]

$$$$
12:0:2
     RDKit          3D

 45 48  0  0  1  0  0  0  0  0999 V2000
    4.4858   -6.8446    0.9481 C   0  0  0  0  0  0  0  0  0  0  0  0
    4.6231   -5.3647    1.2693 C   0  0  0  0  0  0  0  0  0  0  0  0
    4.5633   -4.3107    0.4283 C   0  0  0  0  0  0  0  0  0  0  0  0
    4.4107   -4.3935   -1.0760 C   0  0  1  0  0  0  0  0  0  0  0  0
    3.0609   -3.8567   -1.5522 C   0  0  0  0  0  0  0  0  0  0  0  0
    2.8739   -2.3390   -1.5710 C   0  0  2  0  0  0  0  0  0  0  0  0
    3.0473   -1.6717   -2.9288 C   0  0  0  0  0  0  0  0  0  0  0  0
    2.3226   -1.9787   -3.8707 O   0  0  0  0  0  0  0  0  0  0  0  0
    4.1128   -0.7195   -3.0821 C   0  0  0  0  0  0  0  0  0  0  0  0
    4.2697   -0.2462   -4.3525 O   0  0  0  0  0  0  0  0  0  0  0  0
    3.6985    1.0253   -4.5665 C   0  0  0  0  0  0  0  0  0  0  0  0
    4.9156   -0.4236   -2.0455 C   0  0  0  0  0  0  0  0  0  0  0  0
    4.7416   -0.9070   -0.5925 C   0  0  1  0  0  0  0  0  0  0  0  0
    3.3391   -1.4589   -0.3794 C   0  0  2  0  0  0  0  0  0  0  0  0
    3.4188   -2.1747    0.9527 C   0  0  0  0  0  0  0  0  0  0  0  0
    4.7644   -2.8873    0.9048 C   0  0  2  0  0  0  0  0  0  0  0  0
    5.6886   -2.0308   -0.0412 C   0  0  2  0  0  0  0  0  0  0  0  0
    6.8124   -1.4172    0.8163 C   0  0  0  0  0  0  0  0  0  0  0  0
    6.2840   -2.8272   -1.1496 N   0  0  0  0  0  0  0  0  0  0  0  0
    7.5114   -2.3708   -1.7850 C   0  0  0  0  0  0  0  0  0  0  0  0
    5.5092   -3.6766   -1.8297 C   0  0  0  0  0  0  0  0  0  0  0  0
    5.6312   -3.8660   -3.0393 O   0  0  0  0  0  0  0  0  0  0  0  0
    3.7141   -7.2764    1.5837 H   0  0  0  0  0  0  0  0  0  0  0  0
    5.4182   -7.3637    1.1696 H   0  0  0  0  0  0  0  0  0  0  0  0
    4.2149   -7.0626   -0.0826 H   0  0  0  0  0  0  0  0  0  0  0  0
    4.7907   -5.1570    2.3120 H   0  0  0  0  0  0  0  0  0  0  0  0
    4.5448   -5.4326   -1.3394 H   0  0  0  0  0  0  0  0  0  0  0  0
    2.8788   -4.1539   -2.5791 H   0  0  0  0  0  0  0  0  0  0  0  0
    2.2650   -4.3215   -0.9791 H   0  0  0  0  0  0  0  0  0  0  0  0
    1.8173   -2.3678   -1.5908 H   0  0  0  0  0  0  0  0  0  0  0  0
    3.9122    1.3366   -5.5834 H   0  0  0  0  0  0  0  0  0  0  0  0
    4.0893    1.8014   -3.9082 H   0  0  0  0  0  0  0  0  0  0  0  0
    2.6171    0.9458   -4.4576 H   0  0  0  0  0  0  0  0  0  0  0  0
    5.7616    0.1873   -2.2585 H   0  0  0  0  0  0  0  0  0  0  0  0
    4.8301   -0.0361    0.0601 H   0  0  0  0  0  0  0  0  0  0  0  0
    2.6494   -0.6287   -0.2564 H   0  0  0  0  0  0  0  0  0  0  0  0
    3.4372   -1.4341    1.7488 H   0  0  0  0  0  0  0  0  0  0  0  0
    2.5643   -2.8265    1.1380 H   0  0  0  0  0  0  0  0  0  0  0  0
    5.1764   -2.9333    1.9098 H   0  0  0  0  0  0  0  0  0  0  0  0
    6.4080   -0.9222    1.6960 H   0  0  0  0  0  0  0  0  0  0  0  0
    7.4005   -0.6696    0.2836 H   0  0  0  0  0  0  0  0  0  0  0  0
    7.4886   -2.1985    1.1614 H   0  0  0  0  0  0  0  0  0  0  0  0
    7.8403   -3.0409   -2.5655 H   0  0  0  0  0  0  0  0  0  0  0  0
    8.3614   -2.1991   -1.1280 H   0  0  0  0  0  0  0  0  0  0  0  0
    7.2047   -1.4630   -2.2905 H   0  0  0  0  0  0  0  0  0  0  0  0
  1  2  1  0
  1 23  1  0
  1 24  1  0
  1 25  1  0
  2  3  2  3
  2 26  1  0
  3 16  1  0
  3  4  1  0
  4 21  1  0
  4  5  1  0
  4 27  1  6
  5  6  1  0
  5 28  1  0
  5 29  1  0
  6 14  1  0
  6  7  1  0
  6 30  1  1
  7  8  2  0
  7  9  1  0
  9 10  1  0
  9 12  2  0
 10 11  1  0
 11 31  1  0
 11 32  1  0
 11 33  1  0
 12 13  1  0
 12 34  1  0
 13 17  1  0
 13 14  1  0
 13 35  1  1
 14 15  1  0
 14 36  1  1
 15 16  1  0
 15 37  1  0
 15 38  1  0
 16 17  1  0
 16 39  1  1
 17 18  1  1
 17 19  1  0
 18 40  1  0
 18 41  1  0
 18 42  1  0
 19 20  1  0
 19 21  1  0
 20 43  1  0
 20 44  1  0
 20 45  1  0
 21 22  2  0
M  END
>  <i_m_ct_stereo_status>  (42) 
1

>  <s_m_source_file>  (42) 
/var/tmp/pbs.5076255.sched01/tmpnv36izql/0kitkh5ys.sdf

>  <i_m_source_file_index>  (42) 
16

>  <i_lp_mmshare_version>  (42) 
48012

>  <i_f3d_flags>  (42) 
0

>  <s_epik_input>  (42) 
W0NIM10vW0NIXT1DKFtDQEBIXTFbQ0gyXTIpXFtDQEhdKEMoPU8pTjNbQ0gzXSlbQ0gyXVtDQEhdKEMoPU8pQyg9W0NIXTQpT1tDSDNdKVtDQEBIXTJbQ0BASF00W0NAQF0xM1tDSDNd

>  <s_epik_cmdline>  (42) 
J2VwaWtfcHl0aG9uJywgJy1waHQnLCAnMi4wJywgJy1waCcsICc3LjAnLCAnLXRuJywgJzgnLCAnLW1hJywgJzIwMCcsICctaW1hZScsICc8aW5maWxlLm1hZT4nLCAnLW9tYWUnLCAnPG91dGZpbGUubWFlPic=

>  <r_lp_tautomer_probability>  (42) 
1

>  <r_epik_Ionization_Penalty>  (42) 
1.25725e-09

>  <r_epik_Ionization_Penalty_Charging>  (42) 
0

>  <r_epik_Ionization_Penalty_Neutral>  (42) 
1.25725e-09

>  <r_epik_State_Penalty>  (42) 
-0

>  <r_epik_Charging_Adjusted_Penalty>  (42) 
0

>  <i_epik_Tot_Q>  (42) 
0

>  <i_epik_Tot_abs_Q>  (42) 
0

>  <s_lp_Force_Field>  (42) 
OPLS3e

>  <r_lp_Energy>  (42) 
45.9723

>  <b_lp_Chiralities_Consistent>  (42) 
1

>  <s_lp_Variant>  (42) 
12:0-1

>  <s_i_glide_gridfile>  (42) 
pfpi4k_grid

>  <i_i_glide_lignum>  (42) 
16

>  <i_i_glide_rotatable_bonds>  (42) 
1

>  <r_i_docking_score>  (42) 
-2.47987

>  <r_i_glide_ligand_efficiency>  (42) 
-0.112721

>  <r_i_glide_ligand_efficiency_sa>  (42) 
-0.315849

>  <r_i_glide_ligand_efficiency_ln>  (42) 
-0.60617

>  <r_i_glide_gscore>  (42) 
-2.47987

>  <r_i_glide_lipo>  (42) 
-0.396612

>  <r_i_glide_hbond>  (42) 
0

>  <r_i_glide_metal>  (42) 
-0

>  <r_i_glide_rewards>  (42) 
-1.46155

>  <r_i_glide_evdw>  (42) 
-7.31416

>  <r_i_glide_ecoul>  (42) 
-1.54494

>  <r_i_glide_erotb>  (42) 
0

>  <r_i_glide_esite>  (42) 
-0.0242585

>  <r_i_glide_emodel>  (42) 
-8.23046

>  <r_i_glide_energy>  (42) 
-8.85909

>  <r_i_glide_einternal>  (42) 
2.91688

>  <r_i_glide_intrahb_reward>  (42) 
-0

>  <i_i_glide_confnum>  (42) 
1

>  <i_i_glide_posenum>  (42) 
34

>  <r_i_glide_eff_state_penalty>  (42) 
0

>  <ligand_id>  (42) 
12

>  <original_smiles>  (42) 
CC=C1C2CC3C(=O)C(OC)=CC4C3CC1C4(C)N(C)C2=O

>  <smiles>  (42) 
[H]C(=C1C2([H])C(=O)N(C([H])([H])[H])C3(C([H])([H])[H])C1([H])C([H])([H])C1([H])C([H])(C(=O)C(OC([H])([H])[H])=C([H])C13[H])C2([H])[H])C([H])([H])[H]

$$$$
12:1:0
     RDKit          3D

 45 48  0  0  1  0  0  0  0  0999 V2000
    3.6129    0.0268   -4.3736 C   0  0  0  0  0  0  0  0  0  0  0  0
    4.0130    0.0617   -2.9050 C   0  0  0  0  0  0  0  0  0  0  0  0
    4.2007   -0.9382   -2.0337 C   0  0  0  0  0  0  0  0  0  0  0  0
    4.4809   -0.7998   -0.5191 C   0  0  1  0  0  0  0  0  0  0  0  0
    3.4194   -1.3767    0.4338 C   0  0  0  0  0  0  0  0  0  0  0  0
    3.2146   -2.9374    0.4892 C   0  0  2  0  0  0  0  0  0  0  0  0
    3.9123   -3.5479    1.7146 C   0  0  0  0  0  0  0  0  0  0  0  0
    3.4190   -3.3152    2.8226 O   0  0  0  0  0  0  0  0  0  0  0  0
    5.1427   -4.3532    1.5355 C   0  0  0  0  0  0  0  0  0  0  0  0
    5.7233   -4.8228    2.6985 O   0  0  0  0  0  0  0  0  0  0  0  0
    6.2069   -6.1644    2.6782 C   0  0  0  0  0  0  0  0  0  0  0  0
    5.6035   -4.6456    0.3013 C   0  0  0  0  0  0  0  0  0  0  0  0
    4.9229   -4.2227   -0.9891 C   0  0  1  0  0  0  0  0  0  0  0  0
    3.4598   -3.8063   -0.7899 C   0  0  2  0  0  0  0  0  0  0  0  0
    3.0869   -3.1272   -2.1073 C   0  0  0  0  0  0  0  0  0  0  0  0
    4.3465   -2.3580   -2.4470 C   0  0  2  0  0  0  0  0  0  0  0  0
    5.5772   -3.0566   -1.7632 C   0  0  2  0  0  0  0  0  0  0  0  0
    6.3685   -3.5429   -2.9396 C   0  0  0  0  0  0  0  0  0  0  0  0
    6.4381   -2.2027   -0.8720 N   0  0  0  0  0  0  0  0  0  0  0  0
    7.8518   -2.5591   -0.6425 C   0  0  0  0  0  0  0  0  0  0  0  0
    5.8474   -1.2631   -0.0903 C   0  0  0  0  0  0  0  0  0  0  0  0
    6.3558   -0.7506    0.9171 O   0  0  0  0  0  0  0  0  0  0  0  0
    2.6901    0.6141   -4.4409 H   0  0  0  0  0  0  0  0  0  0  0  0
    3.4352   -0.9599   -4.8292 H   0  0  0  0  0  0  0  0  0  0  0  0
    4.3730    0.5983   -4.9047 H   0  0  0  0  0  0  0  0  0  0  0  0
    4.1349    1.0772   -2.6112 H   0  0  0  0  0  0  0  0  0  0  0  0
    4.4271    0.2461   -0.2987 H   0  0  0  0  0  0  0  0  0  0  0  0
    3.6624   -1.0368    1.4726 H   0  0  0  0  0  0  0  0  0  0  0  0
    2.5489   -0.8358    0.1462 H   0  0  0  0  0  0  0  0  0  0  0  0
    2.1582   -3.0537    0.6963 H   0  0  0  0  0  0  0  0  0  0  0  0
    6.5838   -6.4430    3.6661 H   0  0  0  0  0  0  0  0  0  0  0  0
    7.0156   -6.3131    1.9632 H   0  0  0  0  0  0  0  0  0  0  0  0
    5.3863   -6.8475    2.4421 H   0  0  0  0  0  0  0  0  0  0  0  0
    6.5094   -5.2189    0.0968 H   0  0  0  0  0  0  0  0  0  0  0  0
    4.9375   -5.0964   -1.6299 H   0  0  0  0  0  0  0  0  0  0  0  0
    2.8562   -4.7144   -0.6955 H   0  0  0  0  0  0  0  0  0  0  0  0
    2.9625   -3.8448   -2.9228 H   0  0  0  0  0  0  0  0  0  0  0  0
    2.2047   -2.4870   -2.0534 H   0  0  0  0  0  0  0  0  0  0  0  0
    4.4741   -2.3287   -3.5224 H   0  0  0  0  0  0  0  0  0  0  0  0
    5.7267   -4.0663   -3.6436 H   0  0  0  0  0  0  0  0  0  0  0  0
    7.3246   -3.9992   -2.7456 H   0  0  0  0  0  0  0  0  0  0  0  0
    6.6481   -2.6512   -3.4608 H   0  0  0  0  0  0  0  0  0  0  0  0
    8.3655   -1.8292   -0.0087 H   0  0  0  0  0  0  0  0  0  0  0  0
    8.4278   -2.5910   -1.5591 H   0  0  0  0  0  0  0  0  0  0  0  0
    7.9770   -3.5147   -0.1277 H   0  0  0  0  0  0  0  0  0  0  0  0
  1  2  1  0
  1 23  1  0
  1 24  1  0
  1 25  1  0
  2  3  2  3
  2 26  1  0
  3 16  1  0
  3  4  1  0
  4 21  1  0
  4  5  1  0
  4 27  1  1
  5  6  1  0
  5 28  1  0
  5 29  1  0
  6 14  1  0
  6  7  1  0
  6 30  1  1
  7  8  2  0
  7  9  1  0
  9 10  1  0
  9 12  2  0
 10 11  1  0
 11 31  1  0
 11 32  1  0
 11 33  1  0
 12 13  1  0
 12 34  1  0
 13 17  1  0
 13 14  1  0
 13 35  1  6
 14 15  1  0
 14 36  1  1
 15 16  1  0
 15 37  1  0
 15 38  1  0
 16 17  1  0
 16 39  1  6
 17 18  1  6
 17 19  1  0
 18 40  1  0
 18 41  1  0
 18 42  1  0
 19 20  1  0
 19 21  1  0
 20 43  1  0
 20 44  1  0
 20 45  1  0
 21 22  2  0
M  END
>  <i_m_ct_stereo_status>  (43) 
1

>  <s_m_source_file>  (43) 
/var/tmp/pbs.5076255.sched01/tmpnv36izql/0kitkh5ys.sdf

>  <i_m_source_file_index>  (43) 
17

>  <i_lp_mmshare_version>  (43) 
48012

>  <i_f3d_flags>  (43) 
0

>  <s_epik_input>  (43) 
W0NIM10vW0NIXT1DKFtDQEBIXTFbQ0gyXTIpXFtDQEhdKEMoPU8pTjNbQ0gzXSlbQ0gyXVtDQEhdKEMoPU8pQyg9W0NIXTQpT1tDSDNdKVtDQEBIXTJbQ0BASF00W0NAQF0xM1tDSDNd

>  <s_epik_cmdline>  (43) 
J2VwaWtfcHl0aG9uJywgJy1waHQnLCAnMi4wJywgJy1waCcsICc3LjAnLCAnLXRuJywgJzgnLCAnLW1hJywgJzIwMCcsICctaW1hZScsICc8aW5maWxlLm1hZT4nLCAnLW9tYWUnLCAnPG91dGZpbGUubWFlPic=

>  <r_lp_tautomer_probability>  (43) 
1

>  <r_epik_Ionization_Penalty>  (43) 
1.25725e-09

>  <r_epik_Ionization_Penalty_Charging>  (43) 
0

>  <r_epik_Ionization_Penalty_Neutral>  (43) 
1.25725e-09

>  <r_epik_State_Penalty>  (43) 
-0

>  <r_epik_Charging_Adjusted_Penalty>  (43) 
0

>  <i_epik_Tot_Q>  (43) 
0

>  <i_epik_Tot_abs_Q>  (43) 
0

>  <s_lp_Force_Field>  (43) 
OPLS3e

>  <r_lp_Energy>  (43) 
45.6644

>  <b_lp_Chiralities_Consistent>  (43) 
1

>  <s_lp_Variant>  (43) 
12:0-2

>  <s_i_glide_gridfile>  (43) 
pfpi4k_grid

>  <i_i_glide_lignum>  (43) 
17

>  <i_i_glide_rotatable_bonds>  (43) 
1

>  <r_i_docking_score>  (43) 
-2.88637

>  <r_i_glide_ligand_efficiency>  (43) 
-0.131199

>  <r_i_glide_ligand_efficiency_sa>  (43) 
-0.367624

>  <r_i_glide_ligand_efficiency_ln>  (43) 
-0.705535

>  <r_i_glide_gscore>  (43) 
-2.88637

>  <r_i_glide_lipo>  (43) 
-0.680312

>  <r_i_glide_hbond>  (43) 
0

>  <r_i_glide_metal>  (43) 
-0

>  <r_i_glide_rewards>  (43) 
-1.36267

>  <r_i_glide_evdw>  (43) 
-14.1467

>  <r_i_glide_ecoul>  (43) 
-0.496008

>  <r_i_glide_erotb>  (43) 
0

>  <r_i_glide_esite>  (43) 
-0.0616536

>  <r_i_glide_emodel>  (43) 
-15.197

>  <r_i_glide_energy>  (43) 
-14.6427

>  <r_i_glide_einternal>  (43) 
0.00719252

>  <r_i_glide_intrahb_reward>  (43) 
-0

>  <i_i_glide_confnum>  (43) 
1

>  <i_i_glide_posenum>  (43) 
21

>  <r_i_glide_eff_state_penalty>  (43) 
0

>  <ligand_id>  (43) 
12

>  <original_smiles>  (43) 
CC=C1C2CC3C(=O)C(OC)=CC4C3CC1C4(C)N(C)C2=O

>  <smiles>  (43) 
[H]C(=C1C2([H])C(=O)N(C([H])([H])[H])C3(C([H])([H])[H])C1([H])C([H])([H])C1([H])C([H])(C(=O)C(OC([H])([H])[H])=C([H])C13[H])C2([H])[H])C([H])([H])[H]

$$$$
12:1:1
     RDKit          3D

 45 48  0  0  1  0  0  0  0  0999 V2000
    4.3457   -1.9519   -3.7503 C   0  0  0  0  0  0  0  0  0  0  0  0
    3.7254   -1.5569   -2.4189 C   0  0  0  0  0  0  0  0  0  0  0  0
    3.9603   -2.1011   -1.2029 C   0  0  0  0  0  0  0  0  0  0  0  0
    3.2673   -1.6281    0.0514 C   0  0  1  0  0  0  0  0  0  0  0  0
    2.2734   -2.6758    0.6007 C   0  0  0  0  0  0  0  0  0  0  0  0
    2.7736   -3.9675    1.3091 C   0  0  2  0  0  0  0  0  0  0  0  0
    2.8059   -3.8349    2.8405 C   0  0  0  0  0  0  0  0  0  0  0  0
    1.7340   -3.8054    3.4359 O   0  0  0  0  0  0  0  0  0  0  0  0
    4.1204   -3.7747    3.5176 C   0  0  0  0  0  0  0  0  0  0  0  0
    4.0786   -3.6606    4.8926 O   0  0  0  0  0  0  0  0  0  0  0  0
    5.0177   -4.4433    5.6205 C   0  0  0  0  0  0  0  0  0  0  0  0
    5.2550   -3.9139    2.8062 C   0  0  0  0  0  0  0  0  0  0  0  0
    5.3536   -4.1389    1.3149 C   0  0  1  0  0  0  0  0  0  0  0  0
    4.0415   -4.6725    0.7600 C   0  0  2  0  0  0  0  0  0  0  0  0
    4.2605   -4.5174   -0.7271 C   0  0  0  0  0  0  0  0  0  0  0  0
    4.9823   -3.1769   -0.9035 C   0  0  2  0  0  0  0  0  0  0  0  0
    5.7736   -2.9222    0.4309 C   0  0  2  0  0  0  0  0  0  0  0  0
    7.2818   -3.0138    0.0816 C   0  0  0  0  0  0  0  0  0  0  0  0
    5.4586   -1.6329    1.1143 N   0  0  0  0  0  0  0  0  0  0  0  0
    6.4542   -1.0550    2.0183 C   0  0  0  0  0  0  0  0  0  0  0  0
    4.2180   -1.0856    1.0915 C   0  0  0  0  0  0  0  0  0  0  0  0
    3.8493   -0.1775    1.8115 O   0  0  0  0  0  0  0  0  0  0  0  0
    3.5524   -2.0952   -4.4832 H   0  0  0  0  0  0  0  0  0  0  0  0
    4.9184   -2.8759   -3.7011 H   0  0  0  0  0  0  0  0  0  0  0  0
    4.9907   -1.1508   -4.1044 H   0  0  0  0  0  0  0  0  0  0  0  0
    2.9957   -0.7551   -2.4859 H   0  0  0  0  0  0  0  0  0  0  0  0
    2.6801   -0.7552   -0.2305 H   0  0  0  0  0  0  0  0  0  0  0  0
    1.5862   -2.1509    1.2694 H   0  0  0  0  0  0  0  0  0  0  0  0
    1.6866   -3.0229   -0.2561 H   0  0  0  0  0  0  0  0  0  0  0  0
    1.9692   -4.6840    1.1416 H   0  0  0  0  0  0  0  0  0  0  0  0
    4.8715   -4.2909    6.6914 H   0  0  0  0  0  0  0  0  0  0  0  0
    6.0594   -4.1978    5.4098 H   0  0  0  0  0  0  0  0  0  0  0  0
    4.8540   -5.5018    5.4130 H   0  0  0  0  0  0  0  0  0  0  0  0
    6.2093   -3.8974    3.2721 H   0  0  0  0  0  0  0  0  0  0  0  0
    6.0858   -4.9382    1.1868 H   0  0  0  0  0  0  0  0  0  0  0  0
    3.9516   -5.7348    0.9997 H   0  0  0  0  0  0  0  0  0  0  0  0
    4.9059   -5.3255   -1.0846 H   0  0  0  0  0  0  0  0  0  0  0  0
    3.3062   -4.5557   -1.2457 H   0  0  0  0  0  0  0  0  0  0  0  0
    5.6649   -3.2557   -1.7500 H   0  0  0  0  0  0  0  0  0  0  0  0
    7.5114   -3.9184   -0.4874 H   0  0  0  0  0  0  0  0  0  0  0  0
    7.9172   -3.0376    0.9677 H   0  0  0  0  0  0  0  0  0  0  0  0
    7.5855   -2.1668   -0.5353 H   0  0  0  0  0  0  0  0  0  0  0  0
    6.1753   -0.0908    2.4337 H   0  0  0  0  0  0  0  0  0  0  0  0
    7.4072   -0.9020    1.5147 H   0  0  0  0  0  0  0  0  0  0  0  0
    6.6075   -1.6915    2.8797 H   0  0  0  0  0  0  0  0  0  0  0  0
  1  2  1  0
  1 23  1  0
  1 24  1  0
  1 25  1  0
  2  3  2  3
  2 26  1  0
  3 16  1  0
  3  4  1  0
  4 21  1  0
  4  5  1  0
  4 27  1  6
  5  6  1  0
  5 28  1  0
  5 29  1  0
  6 14  1  0
  6  7  1  0
  6 30  1  1
  7  8  2  0
  7  9  1  0
  9 10  1  0
  9 12  2  0
 10 11  1  0
 11 31  1  0
 11 32  1  0
 11 33  1  0
 12 13  1  0
 12 34  1  0
 13 17  1  0
 13 14  1  0
 13 35  1  1
 14 15  1  0
 14 36  1  6
 15 16  1  0
 15 37  1  0
 15 38  1  0
 16 17  1  0
 16 39  1  6
 17 18  1  6
 17 19  1  0
 18 40  1  0
 18 41  1  0
 18 42  1  0
 19 20  1  0
 19 21  1  0
 20 43  1  0
 20 44  1  0
 20 45  1  0
 21 22  2  0
M  END
>  <i_m_ct_stereo_status>  (44) 
1

>  <s_m_source_file>  (44) 
/var/tmp/pbs.5076255.sched01/tmpnv36izql/0kitkh5ys.sdf

>  <i_m_source_file_index>  (44) 
17

>  <i_lp_mmshare_version>  (44) 
48012

>  <i_f3d_flags>  (44) 
0

>  <s_epik_input>  (44) 
W0NIM10vW0NIXT1DKFtDQEBIXTFbQ0gyXTIpXFtDQEhdKEMoPU8pTjNbQ0gzXSlbQ0gyXVtDQEhdKEMoPU8pQyg9W0NIXTQpT1tDSDNdKVtDQEBIXTJbQ0BASF00W0NAQF0xM1tDSDNd

>  <s_epik_cmdline>  (44) 
J2VwaWtfcHl0aG9uJywgJy1waHQnLCAnMi4wJywgJy1waCcsICc3LjAnLCAnLXRuJywgJzgnLCAnLW1hJywgJzIwMCcsICctaW1hZScsICc8aW5maWxlLm1hZT4nLCAnLW9tYWUnLCAnPG91dGZpbGUubWFlPic=

>  <r_lp_tautomer_probability>  (44) 
1

>  <r_epik_Ionization_Penalty>  (44) 
1.25725e-09

>  <r_epik_Ionization_Penalty_Charging>  (44) 
0

>  <r_epik_Ionization_Penalty_Neutral>  (44) 
1.25725e-09

>  <r_epik_State_Penalty>  (44) 
-0

>  <r_epik_Charging_Adjusted_Penalty>  (44) 
0

>  <i_epik_Tot_Q>  (44) 
0

>  <i_epik_Tot_abs_Q>  (44) 
0

>  <s_lp_Force_Field>  (44) 
OPLS3e

>  <r_lp_Energy>  (44) 
45.6644

>  <b_lp_Chiralities_Consistent>  (44) 
1

>  <s_lp_Variant>  (44) 
12:0-2

>  <s_i_glide_gridfile>  (44) 
pfpi4k_grid

>  <i_i_glide_lignum>  (44) 
17

>  <i_i_glide_rotatable_bonds>  (44) 
1

>  <r_i_docking_score>  (44) 
-2.60459

>  <r_i_glide_ligand_efficiency>  (44) 
-0.11839

>  <r_i_glide_ligand_efficiency_sa>  (44) 
-0.331734

>  <r_i_glide_ligand_efficiency_ln>  (44) 
-0.636656

>  <r_i_glide_gscore>  (44) 
-2.60459

>  <r_i_glide_lipo>  (44) 
-0.490541

>  <r_i_glide_hbond>  (44) 
0

>  <r_i_glide_metal>  (44) 
-0

>  <r_i_glide_rewards>  (44) 
-1.51366

>  <r_i_glide_evdw>  (44) 
-14.8146

>  <r_i_glide_ecoul>  (44) 
0.943761

>  <r_i_glide_erotb>  (44) 
0

>  <r_i_glide_esite>  (44) 
-0.00122739

>  <r_i_glide_emodel>  (44) 
-15.712

>  <r_i_glide_energy>  (44) 
-13.8708

>  <r_i_glide_einternal>  (44) 
0.00668574

>  <r_i_glide_intrahb_reward>  (44) 
-0

>  <i_i_glide_confnum>  (44) 
1

>  <i_i_glide_posenum>  (44) 
7

>  <r_i_glide_eff_state_penalty>  (44) 
0

>  <ligand_id>  (44) 
12

>  <original_smiles>  (44) 
CC=C1C2CC3C(=O)C(OC)=CC4C3CC1C4(C)N(C)C2=O

>  <smiles>  (44) 
[H]C(=C1C2([H])C(=O)N(C([H])([H])[H])C3(C([H])([H])[H])C1([H])C([H])([H])C1([H])C([H])(C(=O)C(OC([H])([H])[H])=C([H])C13[H])C2([H])[H])C([H])([H])[H]

$$$$
12:1:2
     RDKit          3D

 45 48  0  0  1  0  0  0  0  0999 V2000
    4.0141   -0.9535   -4.3898 C   0  0  0  0  0  0  0  0  0  0  0  0
    3.6028   -0.9099   -2.9309 C   0  0  0  0  0  0  0  0  0  0  0  0
    4.0259   -1.7161   -1.9327 C   0  0  0  0  0  0  0  0  0  0  0  0
    3.5318   -1.5949   -0.5096 C   0  0  1  0  0  0  0  0  0  0  0  0
    2.6124   -2.7728   -0.0790 C   0  0  0  0  0  0  0  0  0  0  0  0
    3.2066   -4.1843    0.1981 C   0  0  2  0  0  0  0  0  0  0  0  0
    3.4864   -4.4400    1.6901 C   0  0  0  0  0  0  0  0  0  0  0  0
    2.5182   -4.5880    2.4418 O   0  0  0  0  0  0  0  0  0  0  0  0
    4.8882   -4.5126    2.1600 C   0  0  0  0  0  0  0  0  0  0  0  0
    5.0661   -4.7474    3.5032 O   0  0  0  0  0  0  0  0  0  0  0  0
    6.0529   -5.7137    3.8469 C   0  0  0  0  0  0  0  0  0  0  0  0
    5.9107   -4.4343    1.2810 C   0  0  0  0  0  0  0  0  0  0  0  0
    5.7518   -4.2698   -0.2163 C   0  0  1  0  0  0  0  0  0  0  0  0
    4.3687   -4.6779   -0.7034 C   0  0  2  0  0  0  0  0  0  0  0  0
    4.3827   -4.1447   -2.1304 C   0  0  0  0  0  0  0  0  0  0  0  0
    5.0778   -2.7957   -2.0644 C   0  0  2  0  0  0  0  0  0  0  0  0
    6.0659   -2.8760   -0.8464 C   0  0  2  0  0  0  0  0  0  0  0  0
    7.4950   -2.8575   -1.4357 C   0  0  0  0  0  0  0  0  0  0  0  0
    5.8837   -1.7843    0.1628 N   0  0  0  0  0  0  0  0  0  0  0  0
    7.0175   -1.4539    1.0311 C   0  0  0  0  0  0  0  0  0  0  0  0
    4.6567   -1.2982    0.4704 C   0  0  0  0  0  0  0  0  0  0  0  0
    4.4179   -0.6071    1.4620 O   0  0  0  0  0  0  0  0  0  0  0  0
    3.1133   -0.9268   -5.0076 H   0  0  0  0  0  0  0  0  0  0  0  0
    4.5716   -1.8507   -4.6541 H   0  0  0  0  0  0  0  0  0  0  0  0
    4.6114   -0.0746   -4.6353 H   0  0  0  0  0  0  0  0  0  0  0  0
    2.8689   -0.1478   -2.7206 H   0  0  0  0  0  0  0  0  0  0  0  0
    2.9324   -0.6921   -0.4748 H   0  0  0  0  0  0  0  0  0  0  0  0
    2.0640   -2.4477    0.8092 H   0  0  0  0  0  0  0  0  0  0  0  0
    1.8570   -2.9131   -0.8524 H   0  0  0  0  0  0  0  0  0  0  0  0
    2.3820   -4.8650   -0.0220 H   0  0  0  0  0  0  0  0  0  0  0  0
    6.0920   -5.8248    4.9314 H   0  0  0  0  0  0  0  0  0  0  0  0
    7.0589   -5.4559    3.5156 H   0  0  0  0  0  0  0  0  0  0  0  0
    5.7821   -6.6842    3.4276 H   0  0  0  0  0  0  0  0  0  0  0  0
    6.9434   -4.5084    1.5892 H   0  0  0  0  0  0  0  0  0  0  0  0
    6.4224   -5.0103   -0.6224 H   0  0  0  0  0  0  0  0  0  0  0  0
    4.3119   -5.7706   -0.7234 H   0  0  0  0  0  0  0  0  0  0  0  0
    4.9822   -4.8183   -2.7498 H   0  0  0  0  0  0  0  0  0  0  0  0
    3.3875   -4.0465   -2.5660 H   0  0  0  0  0  0  0  0  0  0  0  0
    5.6213   -2.6551   -2.9982 H   0  0  0  0  0  0  0  0  0  0  0  0
    7.6136   -3.5826   -2.2430 H   0  0  0  0  0  0  0  0  0  0  0  0
    8.2653   -3.0769   -0.6945 H   0  0  0  0  0  0  0  0  0  0  0  0
    7.7034   -1.8858   -1.8744 H   0  0  0  0  0  0  0  0  0  0  0  0
    6.8060   -0.6539    1.7458 H   0  0  0  0  0  0  0  0  0  0  0  0
    7.8866   -1.1313    0.4705 H   0  0  0  0  0  0  0  0  0  0  0  0
    7.2944   -2.3288    1.6060 H   0  0  0  0  0  0  0  0  0  0  0  0
  1  2  1  0
  1 23  1  0
  1 24  1  0
  1 25  1  0
  2  3  2  3
  2 26  1  0
  3 16  1  0
  3  4  1  0
  4 21  1  0
  4  5  1  0
  4 27  1  6
  5  6  1  0
  5 28  1  0
  5 29  1  0
  6 14  1  0
  6  7  1  0
  6 30  1  6
  7  8  2  0
  7  9  1  0
  9 10  1  0
  9 12  2  0
 10 11  1  0
 11 31  1  0
 11 32  1  0
 11 33  1  0
 12 13  1  0
 12 34  1  0
 13 17  1  0
 13 14  1  0
 13 35  1  6
 14 15  1  0
 14 36  1  6
 15 16  1  0
 15 37  1  0
 15 38  1  0
 16 17  1  0
 16 39  1  6
 17 18  1  6
 17 19  1  0
 18 40  1  0
 18 41  1  0
 18 42  1  0
 19 20  1  0
 19 21  1  0
 20 43  1  0
 20 44  1  0
 20 45  1  0
 21 22  2  0
M  END
>  <i_m_ct_stereo_status>  (45) 
1

>  <s_m_source_file>  (45) 
/var/tmp/pbs.5076255.sched01/tmpnv36izql/0kitkh5ys.sdf

>  <i_m_source_file_index>  (45) 
17

>  <i_lp_mmshare_version>  (45) 
48012

>  <i_f3d_flags>  (45) 
0

>  <s_epik_input>  (45) 
W0NIM10vW0NIXT1DKFtDQEBIXTFbQ0gyXTIpXFtDQEhdKEMoPU8pTjNbQ0gzXSlbQ0gyXVtDQEhdKEMoPU8pQyg9W0NIXTQpT1tDSDNdKVtDQEBIXTJbQ0BASF00W0NAQF0xM1tDSDNd

>  <s_epik_cmdline>  (45) 
J2VwaWtfcHl0aG9uJywgJy1waHQnLCAnMi4wJywgJy1waCcsICc3LjAnLCAnLXRuJywgJzgnLCAnLW1hJywgJzIwMCcsICctaW1hZScsICc8aW5maWxlLm1hZT4nLCAnLW9tYWUnLCAnPG91dGZpbGUubWFlPic=

>  <r_lp_tautomer_probability>  (45) 
1

>  <r_epik_Ionization_Penalty>  (45) 
1.25725e-09

>  <r_epik_Ionization_Penalty_Charging>  (45) 
0

>  <r_epik_Ionization_Penalty_Neutral>  (45) 
1.25725e-09

>  <r_epik_State_Penalty>  (45) 
-0

>  <r_epik_Charging_Adjusted_Penalty>  (45) 
0

>  <i_epik_Tot_Q>  (45) 
0

>  <i_epik_Tot_abs_Q>  (45) 
0

>  <s_lp_Force_Field>  (45) 
OPLS3e

>  <r_lp_Energy>  (45) 
45.6644

>  <b_lp_Chiralities_Consistent>  (45) 
1

>  <s_lp_Variant>  (45) 
12:0-2

>  <s_i_glide_gridfile>  (45) 
pfpi4k_grid

>  <i_i_glide_lignum>  (45) 
17

>  <i_i_glide_rotatable_bonds>  (45) 
1

>  <r_i_docking_score>  (45) 
-2.54383

>  <r_i_glide_ligand_efficiency>  (45) 
-0.115629

>  <r_i_glide_ligand_efficiency_sa>  (45) 
-0.323996

>  <r_i_glide_ligand_efficiency_ln>  (45) 
-0.621805

>  <r_i_glide_gscore>  (45) 
-2.54383

>  <r_i_glide_lipo>  (45) 
-0.286485

>  <r_i_glide_hbond>  (45) 
0

>  <r_i_glide_metal>  (45) 
-0

>  <r_i_glide_rewards>  (45) 
-1.41257

>  <r_i_glide_evdw>  (45) 
-17.1179

>  <r_i_glide_ecoul>  (45) 
0.0741282

>  <r_i_glide_erotb>  (45) 
0

>  <r_i_glide_esite>  (45) 
0

>  <r_i_glide_emodel>  (45) 
-18.8571

>  <r_i_glide_energy>  (45) 
-17.0438

>  <r_i_glide_einternal>  (45) 
0.00893111

>  <r_i_glide_intrahb_reward>  (45) 
-0

>  <i_i_glide_confnum>  (45) 
1

>  <i_i_glide_posenum>  (45) 
12

>  <r_i_glide_eff_state_penalty>  (45) 
0

>  <ligand_id>  (45) 
12

>  <original_smiles>  (45) 
CC=C1C2CC3C(=O)C(OC)=CC4C3CC1C4(C)N(C)C2=O

>  <smiles>  (45) 
[H]C(=C1C2([H])C(=O)N(C([H])([H])[H])C3(C([H])([H])[H])C1([H])C([H])([H])C1([H])C([H])(C(=O)C(OC([H])([H])[H])=C([H])C13[H])C2([H])[H])C([H])([H])[H]

$$$$
12:2:0
     RDKit          3D

 45 48  0  0  1  0  0  0  0  0999 V2000
    2.6150   -1.6417    4.5460 C   0  0  0  0  0  0  0  0  0  0  0  0
    3.9484   -1.9553    3.8871 C   0  0  0  0  0  0  0  0  0  0  0  0
    4.1777   -2.4234    2.6406 C   0  0  0  0  0  0  0  0  0  0  0  0
    3.1309   -2.8081    1.6269 C   0  0  1  0  0  0  0  0  0  0  0  0
    2.9956   -1.8204    0.4035 C   0  0  0  0  0  0  0  0  0  0  0  0
    4.2026   -1.1871   -0.4139 C   0  0  2  0  0  0  0  0  0  0  0  0
    4.1133   -1.4655   -1.9564 C   0  0  0  0  0  0  0  0  0  0  0  0
    3.4405   -0.7203   -2.6706 O   0  0  0  0  0  0  0  0  0  0  0  0
    4.8739   -2.6218   -2.5349 C   0  0  0  0  0  0  0  0  0  0  0  0
    4.6620   -2.8377   -3.8741 O   0  0  0  0  0  0  0  0  0  0  0  0
    4.5728   -4.1816   -4.2865 C   0  0  0  0  0  0  0  0  0  0  0  0
    5.6399   -3.4156   -1.7154 C   0  0  0  0  0  0  0  0  0  0  0  0
    5.7224   -3.0848   -0.2439 C   0  0  2  0  0  0  0  0  0  0  0  0
    5.6314   -1.6054    0.0084 C   0  0  2  0  0  0  0  0  0  0  0  0
    6.0646   -1.4368    1.4476 C   0  0  0  0  0  0  0  0  0  0  0  0
    5.5788   -2.7104    2.1414 C   0  0  2  0  0  0  0  0  0  0  0  0
    5.6889   -3.8999    1.0939 C   0  0  2  0  0  0  0  0  0  0  0  0
    7.0272   -4.6365    1.3167 C   0  0  0  0  0  0  0  0  0  0  0  0
    4.5011   -4.8255    1.1868 N   0  0  0  0  0  0  0  0  0  0  0  0
    4.6736   -6.2303    0.7897 C   0  0  0  0  0  0  0  0  0  0  0  0
    3.2419   -4.3117    1.2962 C   0  0  0  0  0  0  0  0  0  0  0  0
    2.2149   -4.9735    1.1523 O   0  0  0  0  0  0  0  0  0  0  0  0
    2.6516   -0.6392    4.9754 H   0  0  0  0  0  0  0  0  0  0  0  0
    2.4365   -2.3456    5.3598 H   0  0  0  0  0  0  0  0  0  0  0  0
    1.7628   -1.6721    3.8685 H   0  0  0  0  0  0  0  0  0  0  0  0
    4.8080   -1.7637    4.5164 H   0  0  0  0  0  0  0  0  0  0  0  0
    2.1656   -2.7545    2.1179 H   0  0  0  0  0  0  0  0  0  0  0  0
    2.3404   -2.3304   -0.3057 H   0  0  0  0  0  0  0  0  0  0  0  0
    2.4183   -0.9722    0.7777 H   0  0  0  0  0  0  0  0  0  0  0  0
    4.1421   -0.1056   -0.2981 H   0  0  0  0  0  0  0  0  0  0  0  0
    4.6295   -4.2770   -5.3671 H   0  0  0  0  0  0  0  0  0  0  0  0
    3.6253   -4.5854   -3.9495 H   0  0  0  0  0  0  0  0  0  0  0  0
    5.3813   -4.7632   -3.8840 H   0  0  0  0  0  0  0  0  0  0  0  0
    6.2130   -4.2573   -2.0498 H   0  0  0  0  0  0  0  0  0  0  0  0
    4.7082   -3.3765   -0.4181 H   0  0  0  0  0  0  0  0  0  0  0  0
    6.3472   -1.0697   -0.6152 H   0  0  0  0  0  0  0  0  0  0  0  0
    7.1548   -1.4045    1.4685 H   0  0  0  0  0  0  0  0  0  0  0  0
    5.7005   -0.5092    1.8952 H   0  0  0  0  0  0  0  0  0  0  0  0
    6.1997   -2.9015    3.0154 H   0  0  0  0  0  0  0  0  0  0  0  0
    7.8672   -3.9406    1.3135 H   0  0  0  0  0  0  0  0  0  0  0  0
    7.2259   -5.3822    0.5456 H   0  0  0  0  0  0  0  0  0  0  0  0
    7.0378   -5.1427    2.2844 H   0  0  0  0  0  0  0  0  0  0  0  0
    3.7868   -6.8386    0.9780 H   0  0  0  0  0  0  0  0  0  0  0  0
    5.4776   -6.7165    1.3411 H   0  0  0  0  0  0  0  0  0  0  0  0
    4.8887   -6.2984   -0.2787 H   0  0  0  0  0  0  0  0  0  0  0  0
  1  2  1  0
  1 23  1  0
  1 24  1  0
  1 25  1  0
  2  3  2  3
  2 26  1  0
  3 16  1  0
  3  4  1  0
  4 21  1  0
  4  5  1  0
  4 27  1  1
  5  6  1  0
  5 28  1  0
  5 29  1  0
  6 14  1  0
  6  7  1  0
  6 30  1  6
  7  8  2  0
  7  9  1  0
  9 10  1  0
  9 12  2  0
 10 11  1  0
 11 31  1  0
 11 32  1  0
 11 33  1  0
 12 13  1  0
 12 34  1  0
 13 17  1  0
 13 14  1  0
 13 35  1  6
 14 15  1  0
 14 36  1  6
 15 16  1  0
 15 37  1  0
 15 38  1  0
 16 17  1  0
 16 39  1  1
 17 18  1  1
 17 19  1  0
 18 40  1  0
 18 41  1  0
 18 42  1  0
 19 20  1  0
 19 21  1  0
 20 43  1  0
 20 44  1  0
 20 45  1  0
 21 22  2  0
M  END
>  <i_m_ct_stereo_status>  (46) 
1

>  <s_m_source_file>  (46) 
/var/tmp/pbs.5076255.sched01/tmpnv36izql/0kitkh5ys.sdf

>  <i_m_source_file_index>  (46) 
18

>  <i_lp_mmshare_version>  (46) 
48012

>  <i_f3d_flags>  (46) 
0

>  <s_epik_input>  (46) 
W0NIM10vW0NIXT1DKFtDQEBIXTFbQ0gyXTIpXFtDQEhdKEMoPU8pTjNbQ0gzXSlbQ0gyXVtDQEhdKEMoPU8pQyg9W0NIXTQpT1tDSDNdKVtDQEBIXTJbQ0BASF00W0NAQF0xM1tDSDNd

>  <s_epik_cmdline>  (46) 
J2VwaWtfcHl0aG9uJywgJy1waHQnLCAnMi4wJywgJy1waCcsICc3LjAnLCAnLXRuJywgJzgnLCAnLW1hJywgJzIwMCcsICctaW1hZScsICc8aW5maWxlLm1hZT4nLCAnLW9tYWUnLCAnPG91dGZpbGUubWFlPic=

>  <r_lp_tautomer_probability>  (46) 
1

>  <r_epik_Ionization_Penalty>  (46) 
1.25725e-09

>  <r_epik_Ionization_Penalty_Charging>  (46) 
0

>  <r_epik_Ionization_Penalty_Neutral>  (46) 
1.25725e-09

>  <r_epik_State_Penalty>  (46) 
-0

>  <r_epik_Charging_Adjusted_Penalty>  (46) 
0

>  <i_epik_Tot_Q>  (46) 
0

>  <i_epik_Tot_abs_Q>  (46) 
0

>  <s_lp_Force_Field>  (46) 
OPLS3e

>  <r_lp_Energy>  (46) 
102.449

>  <b_lp_Chiralities_Consistent>  (46) 
1

>  <s_lp_Variant>  (46) 
12:0-3

>  <s_i_glide_gridfile>  (46) 
pfpi4k_grid

>  <i_i_glide_lignum>  (46) 
18

>  <i_i_glide_rotatable_bonds>  (46) 
1

>  <r_i_docking_score>  (46) 
-3.4535

>  <r_i_glide_ligand_efficiency>  (46) 
-0.156977

>  <r_i_glide_ligand_efficiency_sa>  (46) 
-0.439857

>  <r_i_glide_ligand_efficiency_ln>  (46) 
-0.844163

>  <r_i_glide_gscore>  (46) 
-3.4535

>  <r_i_glide_lipo>  (46) 
-0.863232

>  <r_i_glide_hbond>  (46) 
-0.069936

>  <r_i_glide_metal>  (46) 
-0

>  <r_i_glide_rewards>  (46) 
-1.39878

>  <r_i_glide_evdw>  (46) 
-17.6219

>  <r_i_glide_ecoul>  (46) 
-1.32363

>  <r_i_glide_erotb>  (46) 
0

>  <r_i_glide_esite>  (46) 
-0.0419129

>  <r_i_glide_emodel>  (46) 
-21.8342

>  <r_i_glide_energy>  (46) 
-18.9455

>  <r_i_glide_einternal>  (46) 
1.52359

>  <r_i_glide_intrahb_reward>  (46) 
-0

>  <i_i_glide_confnum>  (46) 
1

>  <i_i_glide_posenum>  (46) 
1

>  <r_i_glide_eff_state_penalty>  (46) 
0

>  <ligand_id>  (46) 
12

>  <original_smiles>  (46) 
CC=C1C2CC3C(=O)C(OC)=CC4C3CC1C4(C)N(C)C2=O

>  <smiles>  (46) 
[H]C(=C1C2([H])C(=O)N(C([H])([H])[H])C3(C([H])([H])[H])C1([H])C([H])([H])C1([H])C([H])(C(=O)C(OC([H])([H])[H])=C([H])C13[H])C2([H])[H])C([H])([H])[H]

$$$$
12:2:1
     RDKit          3D

 45 48  0  0  1  0  0  0  0  0999 V2000
    3.0213   -0.0420   -3.5350 C   0  0  0  0  0  0  0  0  0  0  0  0
    4.1214   -1.0460   -3.2559 C   0  0  0  0  0  0  0  0  0  0  0  0
    4.3843   -1.7115   -2.1164 C   0  0  0  0  0  0  0  0  0  0  0  0
    3.6610   -1.5560   -0.7990 C   0  0  1  0  0  0  0  0  0  0  0  0
    2.7258   -2.7574   -0.3843 C   0  0  0  0  0  0  0  0  0  0  0  0
    3.1225   -4.2747   -0.5159 C   0  0  2  0  0  0  0  0  0  0  0  0
    2.9957   -5.0860    0.8124 C   0  0  0  0  0  0  0  0  0  0  0  0
    1.8798   -5.5164    1.1012 O   0  0  0  0  0  0  0  0  0  0  0  0
    4.2325   -5.3130    1.6692 C   0  0  0  0  0  0  0  0  0  0  0  0
    4.0453   -6.0457    2.8128 O   0  0  0  0  0  0  0  0  0  0  0  0
    5.2127   -6.4009    3.5410 C   0  0  0  0  0  0  0  0  0  0  0  0
    5.4456   -4.7937    1.2465 C   0  0  0  0  0  0  0  0  0  0  0  0
    5.4931   -4.0494   -0.0805 C   0  0  2  0  0  0  0  0  0  0  0  0
    4.5207   -4.6136   -1.0782 C   0  0  2  0  0  0  0  0  0  0  0  0
    4.9658   -4.0149   -2.3924 C   0  0  0  0  0  0  0  0  0  0  0  0
    5.5460   -2.6589   -2.0254 C   0  0  2  0  0  0  0  0  0  0  0  0
    6.2009   -2.7774   -0.5900 C   0  0  2  0  0  0  0  0  0  0  0  0
    7.7261   -3.0155   -0.7438 C   0  0  0  0  0  0  0  0  0  0  0  0
    5.8813   -1.5794    0.2622 N   0  0  0  0  0  0  0  0  0  0  0  0
    6.8175   -1.2100    1.3184 C   0  0  0  0  0  0  0  0  0  0  0  0
    4.6262   -1.0591    0.2796 C   0  0  0  0  0  0  0  0  0  0  0  0
    4.2257   -0.2434    1.1059 O   0  0  0  0  0  0  0  0  0  0  0  0
    2.4874   -0.2852   -4.4550 H   0  0  0  0  0  0  0  0  0  0  0  0
    3.5027    0.9291   -3.6899 H   0  0  0  0  0  0  0  0  0  0  0  0
    2.2877    0.0438   -2.7281 H   0  0  0  0  0  0  0  0  0  0  0  0
    4.7618   -1.2085   -4.1114 H   0  0  0  0  0  0  0  0  0  0  0  0
    3.0117   -0.6988   -0.8987 H   0  0  0  0  0  0  0  0  0  0  0  0
    2.3754   -2.5783    0.6321 H   0  0  0  0  0  0  0  0  0  0  0  0
    1.8385   -2.6789   -1.0140 H   0  0  0  0  0  0  0  0  0  0  0  0
    2.3501   -4.6644   -1.1827 H   0  0  0  0  0  0  0  0  0  0  0  0
    4.9678   -7.0197    4.4160 H   0  0  0  0  0  0  0  0  0  0  0  0
    5.7166   -5.5095    3.9137 H   0  0  0  0  0  0  0  0  0  0  0  0
    5.8947   -6.9770    2.9187 H   0  0  0  0  0  0  0  0  0  0  0  0
    6.3914   -4.8696    1.7427 H   0  0  0  0  0  0  0  0  0  0  0  0
    4.8854   -3.4560    0.5650 H   0  0  0  0  0  0  0  0  0  0  0  0
    4.6462   -5.6946   -1.1239 H   0  0  0  0  0  0  0  0  0  0  0  0
    5.7522   -4.6392   -2.8006 H   0  0  0  0  0  0  0  0  0  0  0  0
    4.1755   -3.9978   -3.1483 H   0  0  0  0  0  0  0  0  0  0  0  0
    6.2982   -2.3625   -2.7567 H   0  0  0  0  0  0  0  0  0  0  0  0
    7.9282   -3.8512   -1.4126 H   0  0  0  0  0  0  0  0  0  0  0  0
    8.2032   -3.2410    0.2086 H   0  0  0  0  0  0  0  0  0  0  0  0
    8.2295   -2.1520   -1.1753 H   0  0  0  0  0  0  0  0  0  0  0  0
    6.5412   -0.2874    1.8357 H   0  0  0  0  0  0  0  0  0  0  0  0
    7.8367   -1.0627    0.9503 H   0  0  0  0  0  0  0  0  0  0  0  0
    6.8091   -2.0013    2.0618 H   0  0  0  0  0  0  0  0  0  0  0  0
  1  2  1  0
  1 23  1  0
  1 24  1  0
  1 25  1  0
  2  3  2  3
  2 26  1  0
  3 16  1  0
  3  4  1  0
  4 21  1  0
  4  5  1  0
  4 27  1  6
  5  6  1  0
  5 28  1  0
  5 29  1  0
  6 14  1  0
  6  7  1  0
  6 30  1  6
  7  8  2  0
  7  9  1  0
  9 10  1  0
  9 12  2  0
 10 11  1  0
 11 31  1  0
 11 32  1  0
 11 33  1  0
 12 13  1  0
 12 34  1  0
 13 17  1  0
 13 14  1  0
 13 35  1  6
 14 15  1  0
 14 36  1  6
 15 16  1  0
 15 37  1  0
 15 38  1  0
 16 17  1  0
 16 39  1  6
 17 18  1  6
 17 19  1  0
 18 40  1  0
 18 41  1  0
 18 42  1  0
 19 20  1  0
 19 21  1  0
 20 43  1  0
 20 44  1  0
 20 45  1  0
 21 22  2  0
M  END
>  <i_m_ct_stereo_status>  (47) 
1

>  <s_m_source_file>  (47) 
/var/tmp/pbs.5076255.sched01/tmpnv36izql/0kitkh5ys.sdf

>  <i_m_source_file_index>  (47) 
18

>  <i_lp_mmshare_version>  (47) 
48012

>  <i_f3d_flags>  (47) 
0

>  <s_epik_input>  (47) 
W0NIM10vW0NIXT1DKFtDQEBIXTFbQ0gyXTIpXFtDQEhdKEMoPU8pTjNbQ0gzXSlbQ0gyXVtDQEhdKEMoPU8pQyg9W0NIXTQpT1tDSDNdKVtDQEBIXTJbQ0BASF00W0NAQF0xM1tDSDNd

>  <s_epik_cmdline>  (47) 
J2VwaWtfcHl0aG9uJywgJy1waHQnLCAnMi4wJywgJy1waCcsICc3LjAnLCAnLXRuJywgJzgnLCAnLW1hJywgJzIwMCcsICctaW1hZScsICc8aW5maWxlLm1hZT4nLCAnLW9tYWUnLCAnPG91dGZpbGUubWFlPic=

>  <r_lp_tautomer_probability>  (47) 
1

>  <r_epik_Ionization_Penalty>  (47) 
1.25725e-09

>  <r_epik_Ionization_Penalty_Charging>  (47) 
0

>  <r_epik_Ionization_Penalty_Neutral>  (47) 
1.25725e-09

>  <r_epik_State_Penalty>  (47) 
-0

>  <r_epik_Charging_Adjusted_Penalty>  (47) 
0

>  <i_epik_Tot_Q>  (47) 
0

>  <i_epik_Tot_abs_Q>  (47) 
0

>  <s_lp_Force_Field>  (47) 
OPLS3e

>  <r_lp_Energy>  (47) 
102.449

>  <b_lp_Chiralities_Consistent>  (47) 
1

>  <s_lp_Variant>  (47) 
12:0-3

>  <s_i_glide_gridfile>  (47) 
pfpi4k_grid

>  <i_i_glide_lignum>  (47) 
18

>  <i_i_glide_rotatable_bonds>  (47) 
1

>  <r_i_docking_score>  (47) 
-3.15251

>  <r_i_glide_ligand_efficiency>  (47) 
-0.143296

>  <r_i_glide_ligand_efficiency_sa>  (47) 
-0.401521

>  <r_i_glide_ligand_efficiency_ln>  (47) 
-0.770588

>  <r_i_glide_gscore>  (47) 
-3.15251

>  <r_i_glide_lipo>  (47) 
-0.436528

>  <r_i_glide_hbond>  (47) 
-0.071078

>  <r_i_glide_metal>  (47) 
-0

>  <r_i_glide_rewards>  (47) 
-1.46543

>  <r_i_glide_evdw>  (47) 
-18.1548

>  <r_i_glide_ecoul>  (47) 
-1.69044

>  <r_i_glide_erotb>  (47) 
0

>  <r_i_glide_esite>  (47) 
-0.0181683

>  <r_i_glide_emodel>  (47) 
-23.3177

>  <r_i_glide_energy>  (47) 
-19.8452

>  <r_i_glide_einternal>  (47) 
0.00408668

>  <r_i_glide_intrahb_reward>  (47) 
-0

>  <i_i_glide_confnum>  (47) 
2

>  <i_i_glide_posenum>  (47) 
33

>  <r_i_glide_eff_state_penalty>  (47) 
0

>  <ligand_id>  (47) 
12

>  <original_smiles>  (47) 
CC=C1C2CC3C(=O)C(OC)=CC4C3CC1C4(C)N(C)C2=O

>  <smiles>  (47) 
[H]C(=C1C2([H])C(=O)N(C([H])([H])[H])C3(C([H])([H])[H])C1([H])C([H])([H])C1([H])C([H])(C(=O)C(OC([H])([H])[H])=C([H])C13[H])C2([H])[H])C([H])([H])[H]

$$$$
12:2:2
     RDKit          3D

 45 48  0  0  1  0  0  0  0  0999 V2000
    4.5373   -3.4219    5.1199 C   0  0  0  0  0  0  0  0  0  0  0  0
    5.1167   -2.4831    4.0757 C   0  0  0  0  0  0  0  0  0  0  0  0
    5.2453   -2.6826    2.7453 C   0  0  0  0  0  0  0  0  0  0  0  0
    4.8830   -3.9438    1.9941 C   0  0  1  0  0  0  0  0  0  0  0  0
    3.5984   -3.8381    1.0756 C   0  0  0  0  0  0  0  0  0  0  0  0
    3.2824   -2.6101    0.1138 C   0  0  2  0  0  0  0  0  0  0  0  0
    3.0412   -3.0485   -1.3697 C   0  0  0  0  0  0  0  0  0  0  0  0
    1.9243   -3.4657   -1.6683 O   0  0  0  0  0  0  0  0  0  0  0  0
    4.1816   -2.9364   -2.3658 C   0  0  0  0  0  0  0  0  0  0  0  0
    3.9096   -3.3706   -3.6418 O   0  0  0  0  0  0  0  0  0  0  0  0
    4.8653   -4.2551   -4.2010 C   0  0  0  0  0  0  0  0  0  0  0  0
    5.4157   -2.4990   -1.9588 C   0  0  0  0  0  0  0  0  0  0  0  0
    5.5769   -2.0699   -0.5137 C   0  0  2  0  0  0  0  0  0  0  0  0
    4.3197   -1.4589    0.0459 C   0  0  2  0  0  0  0  0  0  0  0  0
    4.7672   -0.7680    1.3168 C   0  0  0  0  0  0  0  0  0  0  0  0
    5.8992   -1.6480    1.8493 C   0  0  2  0  0  0  0  0  0  0  0  0
    6.6724   -2.2454    0.5968 C   0  0  2  0  0  0  0  0  0  0  0  0
    7.8946   -1.3596    0.2916 C   0  0  0  0  0  0  0  0  0  0  0  0
    7.0469   -3.6896    0.8103 N   0  0  0  0  0  0  0  0  0  0  0  0
    8.2412   -4.2001    0.1232 C   0  0  0  0  0  0  0  0  0  0  0  0
    6.1435   -4.5551    1.3505 C   0  0  0  0  0  0  0  0  0  0  0  0
    6.2801   -5.7806    1.3543 O   0  0  0  0  0  0  0  0  0  0  0  0
    3.8015   -2.8838    5.7205 H   0  0  0  0  0  0  0  0  0  0  0  0
    5.3292   -3.7587    5.7915 H   0  0  0  0  0  0  0  0  0  0  0  0
    4.0402   -4.2989    4.7065 H   0  0  0  0  0  0  0  0  0  0  0  0
    5.4631   -1.5405    4.4796 H   0  0  0  0  0  0  0  0  0  0  0  0
    4.6232   -4.6924    2.7314 H   0  0  0  0  0  0  0  0  0  0  0  0
    3.5630   -4.7562    0.4827 H   0  0  0  0  0  0  0  0  0  0  0  0
    2.7409   -3.9220    1.7436 H   0  0  0  0  0  0  0  0  0  0  0  0
    2.3446   -2.1719    0.4564 H   0  0  0  0  0  0  0  0  0  0  0  0
    4.6105   -4.4929   -5.2314 H   0  0  0  0  0  0  0  0  0  0  0  0
    4.8670   -5.1871   -3.6413 H   0  0  0  0  0  0  0  0  0  0  0  0
    5.8737   -3.8530   -4.2025 H   0  0  0  0  0  0  0  0  0  0  0  0
    6.2837   -2.4305   -2.6030 H   0  0  0  0  0  0  0  0  0  0  0  0
    5.3857   -3.1211   -0.4714 H   0  0  0  0  0  0  0  0  0  0  0  0
    3.9404   -0.6845   -0.6269 H   0  0  0  0  0  0  0  0  0  0  0  0
    5.1671    0.2123    1.0517 H   0  0  0  0  0  0  0  0  0  0  0  0
    3.9483   -0.6100    2.0183 H   0  0  0  0  0  0  0  0  0  0  0  0
    6.5637   -1.0407    2.4683 H   0  0  0  0  0  0  0  0  0  0  0  0
    7.5679   -0.3242    0.2102 H   0  0  0  0  0  0  0  0  0  0  0  0
    8.4005   -1.6487   -0.6310 H   0  0  0  0  0  0  0  0  0  0  0  0
    8.6502   -1.3760    1.0754 H   0  0  0  0  0  0  0  0  0  0  0  0
    8.4841   -5.2274    0.4020 H   0  0  0  0  0  0  0  0  0  0  0  0
    9.1315   -3.6153    0.3397 H   0  0  0  0  0  0  0  0  0  0  0  0
    8.0869   -4.1820   -0.9552 H   0  0  0  0  0  0  0  0  0  0  0  0
  1  2  1  0
  1 23  1  0
  1 24  1  0
  1 25  1  0
  2  3  2  3
  2 26  1  0
  3 16  1  0
  3  4  1  0
  4 21  1  0
  4  5  1  0
  4 27  1  1
  5  6  1  0
  5 28  1  0
  5 29  1  0
  6 14  1  0
  6  7  1  0
  6 30  1  1
  7  8  2  0
  7  9  1  0
  9 10  1  0
  9 12  2  0
 10 11  1  0
 11 31  1  0
 11 32  1  0
 11 33  1  0
 12 13  1  0
 12 34  1  0
 13 17  1  0
 13 14  1  0
 13 35  1  6
 14 15  1  0
 14 36  1  6
 15 16  1  0
 15 37  1  0
 15 38  1  0
 16 17  1  0
 16 39  1  1
 17 18  1  6
 17 19  1  0
 18 40  1  0
 18 41  1  0
 18 42  1  0
 19 20  1  0
 19 21  1  0
 20 43  1  0
 20 44  1  0
 20 45  1  0
 21 22  2  0
M  END
>  <i_m_ct_stereo_status>  (48) 
1

>  <s_m_source_file>  (48) 
/var/tmp/pbs.5076255.sched01/tmpnv36izql/0kitkh5ys.sdf

>  <i_m_source_file_index>  (48) 
18

>  <i_lp_mmshare_version>  (48) 
48012

>  <i_f3d_flags>  (48) 
0

>  <s_epik_input>  (48) 
W0NIM10vW0NIXT1DKFtDQEBIXTFbQ0gyXTIpXFtDQEhdKEMoPU8pTjNbQ0gzXSlbQ0gyXVtDQEhdKEMoPU8pQyg9W0NIXTQpT1tDSDNdKVtDQEBIXTJbQ0BASF00W0NAQF0xM1tDSDNd

>  <s_epik_cmdline>  (48) 
J2VwaWtfcHl0aG9uJywgJy1waHQnLCAnMi4wJywgJy1waCcsICc3LjAnLCAnLXRuJywgJzgnLCAnLW1hJywgJzIwMCcsICctaW1hZScsICc8aW5maWxlLm1hZT4nLCAnLW9tYWUnLCAnPG91dGZpbGUubWFlPic=

>  <r_lp_tautomer_probability>  (48) 
1

>  <r_epik_Ionization_Penalty>  (48) 
1.25725e-09

>  <r_epik_Ionization_Penalty_Charging>  (48) 
0

>  <r_epik_Ionization_Penalty_Neutral>  (48) 
1.25725e-09

>  <r_epik_State_Penalty>  (48) 
-0

>  <r_epik_Charging_Adjusted_Penalty>  (48) 
0

>  <i_epik_Tot_Q>  (48) 
0

>  <i_epik_Tot_abs_Q>  (48) 
0

>  <s_lp_Force_Field>  (48) 
OPLS3e

>  <r_lp_Energy>  (48) 
102.449

>  <b_lp_Chiralities_Consistent>  (48) 
1

>  <s_lp_Variant>  (48) 
12:0-3

>  <s_i_glide_gridfile>  (48) 
pfpi4k_grid

>  <i_i_glide_lignum>  (48) 
18

>  <i_i_glide_rotatable_bonds>  (48) 
1

>  <r_i_docking_score>  (48) 
-3.08614

>  <r_i_glide_ligand_efficiency>  (48) 
-0.140279

>  <r_i_glide_ligand_efficiency_sa>  (48) 
-0.393067

>  <r_i_glide_ligand_efficiency_ln>  (48) 
-0.754365

>  <r_i_glide_gscore>  (48) 
-3.08614

>  <r_i_glide_lipo>  (48) 
-0.584704

>  <r_i_glide_hbond>  (48) 
0

>  <r_i_glide_metal>  (48) 
-0

>  <r_i_glide_rewards>  (48) 
-1.61186

>  <r_i_glide_evdw>  (48) 
-21.3461

>  <r_i_glide_ecoul>  (48) 
1.18489

>  <r_i_glide_erotb>  (48) 
0

>  <r_i_glide_esite>  (48) 
0

>  <r_i_glide_emodel>  (48) 
-22.5895

>  <r_i_glide_energy>  (48) 
-20.1612

>  <r_i_glide_einternal>  (48) 
1.72788

>  <r_i_glide_intrahb_reward>  (48) 
-0

>  <i_i_glide_confnum>  (48) 
1

>  <i_i_glide_posenum>  (48) 
7

>  <r_i_glide_eff_state_penalty>  (48) 
0

>  <ligand_id>  (48) 
12

>  <original_smiles>  (48) 
CC=C1C2CC3C(=O)C(OC)=CC4C3CC1C4(C)N(C)C2=O

>  <smiles>  (48) 
[H]C(=C1C2([H])C(=O)N(C([H])([H])[H])C3(C([H])([H])[H])C1([H])C([H])([H])C1([H])C([H])(C(=O)C(OC([H])([H])[H])=C([H])C13[H])C2([H])[H])C([H])([H])[H]

$$$$
13:0:0
     RDKit          3D

 71 76  0  0  1  0  0  0  0  0999 V2000
   -0.0131   -9.8254    4.6355 C   0  0  0  0  0  0  0  0  0  0  0  0
    0.6061   -8.7241    3.7703 C   0  0  2  0  0  0  0  0  0  0  0  0
   -0.4996   -7.9143    3.0501 C   0  0  0  0  0  0  0  0  0  0  0  0
   -1.2212   -8.6691    2.0923 O   0  0  0  0  0  0  0  0  0  0  0  0
    1.6608   -9.2878    2.7822 C   0  0  2  0  0  0  0  0  0  0  0  0
    2.7385  -10.2069    3.3921 C   0  0  0  0  0  0  0  0  0  0  0  0
    4.0892   -9.7522    2.8386 C   0  0  1  0  0  0  0  0  0  0  0  0
    4.9386  -10.8199    2.4832 O   0  0  0  0  0  0  0  0  0  0  0  0
    3.7961   -8.7622    1.6877 C   0  0  1  0  0  0  0  0  0  0  0  0
    2.4124   -8.2061    1.9800 C   0  0  2  0  0  0  0  0  0  0  0  0
    2.6390   -6.9788    2.6801 O   0  0  0  0  0  0  0  0  0  0  0  0
    3.9697   -6.5255    2.6017 C   0  0  1  0  0  0  0  0  0  0  0  0
    4.5959   -6.7695    3.8476 O   0  0  0  0  0  0  0  0  0  0  0  0
    4.6677   -7.4964    1.5822 C   0  0  1  0  0  0  0  0  0  0  0  0
    6.1705   -7.7831    1.8507 C   0  0  0  0  0  0  0  0  0  0  0  0
    4.5172   -6.8912    0.1914 C   0  0  0  0  0  0  0  0  0  0  0  0
    5.1578   -5.5181    0.0220 C   0  0  0  0  0  0  0  0  0  0  0  0
    5.1241   -4.5609    1.2555 C   0  0  1  0  0  0  0  0  0  0  0  0
    5.1951   -3.0542    0.7554 C   0  0  2  0  0  0  0  0  0  0  0  0
    6.2731   -2.9865   -0.3854 C   0  0  0  0  0  0  0  0  0  0  0  0
    5.6779   -2.0437    1.8457 C   0  0  0  0  0  0  0  0  0  0  0  0
    5.8233   -0.5763    1.3799 C   0  0  0  0  0  0  0  0  0  0  0  0
    4.6968   -0.1335    0.4792 C   0  0  1  0  0  0  0  0  0  0  0  0
    4.7591   -0.6288   -0.8755 O   0  0  0  0  0  0  0  0  0  0  0  0
    3.7104   -1.1229   -0.0605 C   0  0  1  0  0  0  0  0  0  0  0  0
    3.7801   -2.6012    0.2591 C   0  0  2  0  0  0  0  0  0  0  0  0
    2.6650   -2.9223    1.2666 C   0  0  0  0  0  0  0  0  0  0  0  0
    2.5983   -4.4005    1.7011 C   0  0  1  0  0  0  0  0  0  0  0  0
    2.0673   -5.0932    0.5908 O   0  0  0  0  0  0  0  0  0  0  0  0
    3.9665   -4.9346    2.2713 C   0  0  1  0  0  0  0  0  0  0  0  0
    4.1404   -4.2162    3.6563 C   0  0  0  0  0  0  0  0  0  0  0  0
   -0.5341  -10.5314    3.9928 H   0  0  0  0  0  0  0  0  0  0  0  0
   -0.7239   -9.4039    5.3459 H   0  0  0  0  0  0  0  0  0  0  0  0
    0.7116  -10.3800    5.2301 H   0  0  0  0  0  0  0  0  0  0  0  0
    1.1055   -8.0435    4.4626 H   0  0  0  0  0  0  0  0  0  0  0  0
   -1.2163   -7.5379    3.7813 H   0  0  0  0  0  0  0  0  0  0  0  0
   -0.0759   -7.0420    2.5537 H   0  0  0  0  0  0  0  0  0  0  0  0
   -0.6184   -9.0576    1.4705 H   0  0  0  0  0  0  0  0  0  0  0  0
    1.1408   -9.9145    2.0553 H   0  0  0  0  0  0  0  0  0  0  0  0
    2.7623  -10.1457    4.4790 H   0  0  0  0  0  0  0  0  0  0  0  0
    2.5252  -11.2469    3.1369 H   0  0  0  0  0  0  0  0  0  0  0  0
    4.5737   -9.2493    3.6658 H   0  0  0  0  0  0  0  0  0  0  0  0
    4.5512  -11.3035    1.7494 H   0  0  0  0  0  0  0  0  0  0  0  0
    3.7655   -9.3265    0.7548 H   0  0  0  0  0  0  0  0  0  0  0  0
    1.8695   -7.9752    1.0618 H   0  0  0  0  0  0  0  0  0  0  0  0
    4.6180   -7.7070    3.9799 H   0  0  0  0  0  0  0  0  0  0  0  0
    6.7808   -6.8849    1.8095 H   0  0  0  0  0  0  0  0  0  0  0  0
    6.5574   -8.4684    1.0931 H   0  0  0  0  0  0  0  0  0  0  0  0
    6.3666   -8.2587    2.8106 H   0  0  0  0  0  0  0  0  0  0  0  0
    4.9398   -7.5839   -0.5240 H   0  0  0  0  0  0  0  0  0  0  0  0
    3.4762   -6.8207   -0.0761 H   0  0  0  0  0  0  0  0  0  0  0  0
    6.1950   -5.6514   -0.2783 H   0  0  0  0  0  0  0  0  0  0  0  0
    4.6591   -5.0665   -0.8320 H   0  0  0  0  0  0  0  0  0  0  0  0
    6.0555   -4.7463    1.7931 H   0  0  0  0  0  0  0  0  0  0  0  0
    6.6008   -1.9889   -0.6487 H   0  0  0  0  0  0  0  0  0  0  0  0
    5.9142   -3.4065   -1.3290 H   0  0  0  0  0  0  0  0  0  0  0  0
    7.1860   -3.5065   -0.0952 H   0  0  0  0  0  0  0  0  0  0  0  0
    4.9793   -1.9850    2.6655 H   0  0  0  0  0  0  0  0  0  0  0  0
    6.6087   -2.3901    2.2798 H   0  0  0  0  0  0  0  0  0  0  0  0
    5.8523    0.0795    2.2551 H   0  0  0  0  0  0  0  0  0  0  0  0
    6.7585   -0.4119    0.8450 H   0  0  0  0  0  0  0  0  0  0  0  0
    4.3781    0.9052    0.5629 H   0  0  0  0  0  0  0  0  0  0  0  0
    2.7344   -0.7241   -0.2941 H   0  0  0  0  0  0  0  0  0  0  0  0
    3.5410   -3.1058   -0.6758 H   0  0  0  0  0  0  0  0  0  0  0  0
    2.7597   -2.2658    2.1248 H   0  0  0  0  0  0  0  0  0  0  0  0
    1.7244   -2.6223    0.8228 H   0  0  0  0  0  0  0  0  0  0  0  0
    1.8504   -4.4814    2.4909 H   0  0  0  0  0  0  0  0  0  0  0  0
    2.7057   -5.0770   -0.1105 H   0  0  0  0  0  0  0  0  0  0  0  0
    3.7689   -3.1994    3.6971 H   0  0  0  0  0  0  0  0  0  0  0  0
    5.1895   -4.2100    3.9693 H   0  0  0  0  0  0  0  0  0  0  0  0
    3.5576   -4.7041    4.4394 H   0  0  0  0  0  0  0  0  0  0  0  0
  1  2  1  0
  1 32  1  0
  1 33  1  0
  1 34  1  0
  2  3  1  0
  2  5  1  0
  2 35  1  1
  3  4  1  0
  3 36  1  0
  3 37  1  0
  4 38  1  0
  5 10  1  0
  5  6  1  0
  5 39  1  6
  6  7  1  0
  6 40  1  0
  6 41  1  0
  7  8  1  0
  7  9  1  0
  7 42  1  1
  8 43  1  0
  9 14  1  0
  9 10  1  0
  9 44  1  6
 10 11  1  0
 10 45  1  6
 11 12  1  0
 12 30  1  0
 12 13  1  1
 12 14  1  0
 13 46  1  0
 14 15  1  1
 14 16  1  0
 15 47  1  0
 15 48  1  0
 15 49  1  0
 16 17  1  0
 16 50  1  0
 16 51  1  0
 17 18  1  0
 17 52  1  0
 17 53  1  0
 18 30  1  0
 18 19  1  0
 18 54  1  1
 19 26  1  0
 19 20  1  6
 19 21  1  0
 20 55  1  0
 20 56  1  0
 20 57  1  0
 21 22  1  0
 21 58  1  0
 21 59  1  0
 22 23  1  0
 22 60  1  0
 22 61  1  0
 23 25  1  0
 23 24  1  0
 23 62  1  6
 24 25  1  0
 25 26  1  0
 25 63  1  6
 26 27  1  0
 26 64  1  6
 27 28  1  0
 27 65  1  0
 27 66  1  0
 28 29  1  0
 28 30  1  0
 28 67  1  1
 29 68  1  0
 30 31  1  1
 31 69  1  0
 31 70  1  0
 31 71  1  0
M  END
>  <i_m_ct_stereo_status>  (49) 
1

>  <s_m_source_file>  (49) 
/var/tmp/pbs.5076255.sched01/tmpnv36izql/0kitkh5ys.sdf

>  <i_m_source_file_index>  (49) 
20

>  <i_lp_mmshare_version>  (49) 
48012

>  <i_f3d_flags>  (49) 
0

>  <s_epik_input>  (49) 
W09IXVtDSDJdW0NAQEhdKFtDSDNdKVtDQEhdKFtDSDJdW0NASF0xW09IXSlbQ0BASF0oTzIpW0NASF0xW0NAXShbQ0gzXSkoW0NAXTIzW09IXSlbQ0gyXVtDSDJdW0NASF00W0NAQF01KFtDSDNdKVtDQEhdKFtDQEhdNltDQEhdKE82KVtDSDJdW0NIMl01KVtDSDJdW0NAQEhdKFtPSF0pW0NAQF0zNFtDSDNd

>  <s_epik_cmdline>  (49) 
J2VwaWtfcHl0aG9uJywgJy1waHQnLCAnMi4wJywgJy1waCcsICc3LjAnLCAnLXRuJywgJzgnLCAnLW1hJywgJzIwMCcsICctaW1hZScsICc8aW5maWxlLm1hZT4nLCAnLW9tYWUnLCAnPG91dGZpbGUubWFlPic=

>  <r_lp_tautomer_probability>  (49) 
1

>  <r_epik_Ionization_Penalty>  (49) 
1.17741e-06

>  <r_epik_Ionization_Penalty_Charging>  (49) 
0

>  <r_epik_Ionization_Penalty_Neutral>  (49) 
1.17741e-06

>  <r_epik_State_Penalty>  (49) 
-0

>  <r_epik_Charging_Adjusted_Penalty>  (49) 
0

>  <i_epik_Tot_Q>  (49) 
0

>  <i_epik_Tot_abs_Q>  (49) 
0

>  <s_lp_Force_Field>  (49) 
OPLS3e

>  <r_lp_Energy>  (49) 
75.755

>  <b_lp_Chiralities_Consistent>  (49) 
1

>  <s_lp_Variant>  (49) 
13:0-1

>  <s_i_glide_gridfile>  (49) 
pfpi4k_grid

>  <i_i_glide_lignum>  (49) 
20

>  <i_i_glide_rotatable_bonds>  (49) 
6

>  <r_i_docking_score>  (49) 
-3.80626

>  <r_i_glide_ligand_efficiency>  (49) 
-0.122782

>  <r_i_glide_ligand_efficiency_sa>  (49) 
-0.385706

>  <r_i_glide_ligand_efficiency_ln>  (49) 
-0.858427

>  <r_i_glide_gscore>  (49) 
-3.80626

>  <r_i_glide_lipo>  (49) 
-0.712043

>  <r_i_glide_hbond>  (49) 
-0.456

>  <r_i_glide_metal>  (49) 
-0

>  <r_i_glide_rewards>  (49) 
-0.432399

>  <r_i_glide_evdw>  (49) 
-18.532

>  <r_i_glide_ecoul>  (49) 
-9.92256

>  <r_i_glide_erotb>  (49) 
0.209168

>  <r_i_glide_esite>  (49) 
0

>  <r_i_glide_emodel>  (49) 
-35.618

>  <r_i_glide_energy>  (49) 
-28.4545

>  <r_i_glide_einternal>  (49) 
1.43464

>  <r_i_glide_intrahb_reward>  (49) 
-0

>  <i_i_glide_confnum>  (49) 
2

>  <i_i_glide_posenum>  (49) 
37

>  <r_i_glide_eff_state_penalty>  (49) 
0

>  <ligand_id>  (49) 
13

>  <original_smiles>  (49) 
CC(CO)C1CC(O)C2C1OC1(O)C2(C)CCC2C3(C)CCC4OC4C3CC(O)C21C

>  <smiles>  (49) 
[H]OC([H])([H])C([H])(C([H])([H])[H])C1([H])C([H])([H])C([H])(O[H])C2([H])C1([H])OC1(O[H])C2(C([H])([H])[H])C([H])([H])C([H])([H])C2([H])C1(C([H])([H])[H])C([H])(O[H])C([H])([H])C1([H])C3([H])OC3([H])C([H])([H])C([H])([H])C12C([H])([H])[H]

$$$$
13:0:1
     RDKit          3D

 71 76  0  0  1  0  0  0  0  0999 V2000
   -0.9351   -9.0019    4.3465 C   0  0  0  0  0  0  0  0  0  0  0  0
    0.0016   -8.0385    3.6331 C   0  0  2  0  0  0  0  0  0  0  0  0
   -0.7991   -7.4336    2.4498 C   0  0  0  0  0  0  0  0  0  0  0  0
   -0.1750   -6.2539    1.9443 O   0  0  0  0  0  0  0  0  0  0  0  0
    1.3140   -8.7722    3.2256 C   0  0  2  0  0  0  0  0  0  0  0  0
    2.1845   -9.2846    4.3994 C   0  0  0  0  0  0  0  0  0  0  0  0
    3.6368   -8.8831    4.1145 C   0  0  1  0  0  0  0  0  0  0  0  0
    4.5468   -9.9354    4.3831 O   0  0  0  0  0  0  0  0  0  0  0  0
    3.6697   -8.4091    2.6374 C   0  0  1  0  0  0  0  0  0  0  0  0
    2.2498   -7.9559    2.3242 C   0  0  2  0  0  0  0  0  0  0  0  0
    2.2275   -6.5515    2.5648 O   0  0  0  0  0  0  0  0  0  0  0  0
    3.5276   -6.0133    2.6411 C   0  0  1  0  0  0  0  0  0  0  0  0
    3.8347   -5.7053    3.9888 O   0  0  0  0  0  0  0  0  0  0  0  0
    4.5236   -7.1760    2.2660 C   0  0  1  0  0  0  0  0  0  0  0  0
    5.9064   -7.1414    2.9921 C   0  0  0  0  0  0  0  0  0  0  0  0
    4.7533   -7.1391    0.7442 C   0  0  0  0  0  0  0  0  0  0  0  0
    5.3461   -5.8223    0.2403 C   0  0  0  0  0  0  0  0  0  0  0  0
    4.9551   -4.5027    0.9931 C   0  0  1  0  0  0  0  0  0  0  0  0
    5.1031   -3.2548    0.0116 C   0  0  2  0  0  0  0  0  0  0  0  0
    6.4367   -3.4374   -0.7731 C   0  0  0  0  0  0  0  0  0  0  0  0
    5.2222   -1.8838    0.7367 C   0  0  0  0  0  0  0  0  0  0  0  0
    5.4286   -0.6688   -0.1986 C   0  0  0  0  0  0  0  0  0  0  0  0
    4.5956   -0.7100   -1.4812 C   0  0  1  0  0  0  0  0  0  0  0  0
    5.0340   -1.6129   -2.4987 O   0  0  0  0  0  0  0  0  0  0  0  0
    3.8267   -1.9653   -1.8394 C   0  0  1  0  0  0  0  0  0  0  0  0
    3.8672   -3.2031   -0.9703 C   0  0  2  0  0  0  0  0  0  0  0  0
    2.5270   -3.3067   -0.2237 C   0  0  0  0  0  0  0  0  0  0  0  0
    2.4037   -4.5197    0.7433 C   0  0  1  0  0  0  0  0  0  0  0  0
    2.1067   -5.6405   -0.0680 O   0  0  0  0  0  0  0  0  0  0  0  0
    3.5850   -4.6454    1.7711 C   0  0  1  0  0  0  0  0  0  0  0  0
    3.3230   -3.4716    2.7783 C   0  0  0  0  0  0  0  0  0  0  0  0
   -1.2164   -9.8079    3.6841 H   0  0  0  0  0  0  0  0  0  0  0  0
   -1.8473   -8.4861    4.6492 H   0  0  0  0  0  0  0  0  0  0  0  0
   -0.4708   -9.4452    5.2210 H   0  0  0  0  0  0  0  0  0  0  0  0
    0.2659   -7.2292    4.3275 H   0  0  0  0  0  0  0  0  0  0  0  0
   -0.9732   -8.1916    1.6860 H   0  0  0  0  0  0  0  0  0  0  0  0
   -1.7956   -7.1523    2.7930 H   0  0  0  0  0  0  0  0  0  0  0  0
    0.7787   -6.4254    1.8618 H   0  0  0  0  0  0  0  0  0  0  0  0
    1.0536   -9.6638    2.6559 H   0  0  0  0  0  0  0  0  0  0  0  0
    1.8655   -8.8726    5.3512 H   0  0  0  0  0  0  0  0  0  0  0  0
    2.1021  -10.3604    4.4950 H   0  0  0  0  0  0  0  0  0  0  0  0
    3.8779   -8.0756    4.7934 H   0  0  0  0  0  0  0  0  0  0  0  0
    4.4299  -10.1997    5.2828 H   0  0  0  0  0  0  0  0  0  0  0  0
    3.9659   -9.2807    2.0374 H   0  0  0  0  0  0  0  0  0  0  0  0
    2.0610   -8.1550    1.2750 H   0  0  0  0  0  0  0  0  0  0  0  0
    3.8173   -6.4940    4.5072 H   0  0  0  0  0  0  0  0  0  0  0  0
    6.4609   -6.2440    2.7819 H   0  0  0  0  0  0  0  0  0  0  0  0
    6.5266   -7.9794    2.6788 H   0  0  0  0  0  0  0  0  0  0  0  0
    5.8371   -7.2179    4.0632 H   0  0  0  0  0  0  0  0  0  0  0  0
    5.4125   -7.9548    0.4442 H   0  0  0  0  0  0  0  0  0  0  0  0
    3.8241   -7.3528    0.2219 H   0  0  0  0  0  0  0  0  0  0  0  0
    6.4319   -5.9087    0.2701 H   0  0  0  0  0  0  0  0  0  0  0  0
    5.0670   -5.7615   -0.7978 H   0  0  0  0  0  0  0  0  0  0  0  0
    5.7113   -4.3629    1.7558 H   0  0  0  0  0  0  0  0  0  0  0  0
    6.7884   -2.5641   -1.2985 H   0  0  0  0  0  0  0  0  0  0  0  0
    6.3065   -4.1918   -1.5486 H   0  0  0  0  0  0  0  0  0  0  0  0
    7.2409   -3.7209   -0.1000 H   0  0  0  0  0  0  0  0  0  0  0  0
    4.3159   -1.6408    1.2720 H   0  0  0  0  0  0  0  0  0  0  0  0
    6.0234   -1.9109    1.4719 H   0  0  0  0  0  0  0  0  0  0  0  0
    5.1797    0.2350    0.3693 H   0  0  0  0  0  0  0  0  0  0  0  0
    6.4795   -0.5756   -0.4627 H   0  0  0  0  0  0  0  0  0  0  0  0
    4.2404    0.2313   -1.8952 H   0  0  0  0  0  0  0  0  0  0  0  0
    2.9236   -1.8211   -2.4405 H   0  0  0  0  0  0  0  0  0  0  0  0
    3.9208   -4.0296   -1.6729 H   0  0  0  0  0  0  0  0  0  0  0  0
    2.3475   -2.3789    0.3026 H   0  0  0  0  0  0  0  0  0  0  0  0
    1.7226   -3.3486   -0.9528 H   0  0  0  0  0  0  0  0  0  0  0  0
    1.5362   -4.3961    1.3847 H   0  0  0  0  0  0  0  0  0  0  0  0
    2.6563   -5.6001   -0.8495 H   0  0  0  0  0  0  0  0  0  0  0  0
    2.9121   -2.5807    2.3211 H   0  0  0  0  0  0  0  0  0  0  0  0
    4.2249   -3.2091    3.3236 H   0  0  0  0  0  0  0  0  0  0  0  0
    2.5554   -3.7527    3.4765 H   0  0  0  0  0  0  0  0  0  0  0  0
  1  2  1  0
  1 32  1  0
  1 33  1  0
  1 34  1  0
  2  3  1  0
  2  5  1  0
  2 35  1  1
  3  4  1  0
  3 36  1  0
  3 37  1  0
  4 38  1  0
  5 10  1  0
  5  6  1  0
  5 39  1  6
  6  7  1  0
  6 40  1  0
  6 41  1  0
  7  8  1  0
  7  9  1  0
  7 42  1  1
  8 43  1  0
  9 14  1  0
  9 10  1  0
  9 44  1  6
 10 11  1  0
 10 45  1  6
 11 12  1  0
 12 30  1  0
 12 13  1  1
 12 14  1  0
 13 46  1  0
 14 15  1  1
 14 16  1  0
 15 47  1  0
 15 48  1  0
 15 49  1  0
 16 17  1  0
 16 50  1  0
 16 51  1  0
 17 18  1  0
 17 52  1  0
 17 53  1  0
 18 30  1  0
 18 19  1  0
 18 54  1  1
 19 26  1  0
 19 20  1  6
 19 21  1  0
 20 55  1  0
 20 56  1  0
 20 57  1  0
 21 22  1  0
 21 58  1  0
 21 59  1  0
 22 23  1  0
 22 60  1  0
 22 61  1  0
 23 25  1  0
 23 24  1  0
 23 62  1  6
 24 25  1  0
 25 26  1  0
 25 63  1  6
 26 27  1  0
 26 64  1  6
 27 28  1  0
 27 65  1  0
 27 66  1  0
 28 29  1  0
 28 30  1  0
 28 67  1  1
 29 68  1  0
 30 31  1  1
 31 69  1  0
 31 70  1  0
 31 71  1  0
M  END
>  <i_m_ct_stereo_status>  (50) 
1

>  <s_m_source_file>  (50) 
/var/tmp/pbs.5076255.sched01/tmpnv36izql/0kitkh5ys.sdf

>  <i_m_source_file_index>  (50) 
20

>  <i_lp_mmshare_version>  (50) 
48012

>  <i_f3d_flags>  (50) 
0

>  <s_epik_input>  (50) 
W09IXVtDSDJdW0NAQEhdKFtDSDNdKVtDQEhdKFtDSDJdW0NASF0xW09IXSlbQ0BASF0oTzIpW0NASF0xW0NAXShbQ0gzXSkoW0NAXTIzW09IXSlbQ0gyXVtDSDJdW0NASF00W0NAQF01KFtDSDNdKVtDQEhdKFtDQEhdNltDQEhdKE82KVtDSDJdW0NIMl01KVtDSDJdW0NAQEhdKFtPSF0pW0NAQF0zNFtDSDNd

>  <s_epik_cmdline>  (50) 
J2VwaWtfcHl0aG9uJywgJy1waHQnLCAnMi4wJywgJy1waCcsICc3LjAnLCAnLXRuJywgJzgnLCAnLW1hJywgJzIwMCcsICctaW1hZScsICc8aW5maWxlLm1hZT4nLCAnLW9tYWUnLCAnPG91dGZpbGUubWFlPic=

>  <r_lp_tautomer_probability>  (50) 
1

>  <r_epik_Ionization_Penalty>  (50) 
1.17741e-06

>  <r_epik_Ionization_Penalty_Charging>  (50) 
0

>  <r_epik_Ionization_Penalty_Neutral>  (50) 
1.17741e-06

>  <r_epik_State_Penalty>  (50) 
-0

>  <r_epik_Charging_Adjusted_Penalty>  (50) 
0

>  <i_epik_Tot_Q>  (50) 
0

>  <i_epik_Tot_abs_Q>  (50) 
0

>  <s_lp_Force_Field>  (50) 
OPLS3e

>  <r_lp_Energy>  (50) 
75.755

>  <b_lp_Chiralities_Consistent>  (50) 
1

>  <s_lp_Variant>  (50) 
13:0-1

>  <s_i_glide_gridfile>  (50) 
pfpi4k_grid

>  <i_i_glide_lignum>  (50) 
20

>  <i_i_glide_rotatable_bonds>  (50) 
6

>  <r_i_docking_score>  (50) 
-3.75809

>  <r_i_glide_ligand_efficiency>  (50) 
-0.121229

>  <r_i_glide_ligand_efficiency_sa>  (50) 
-0.380825

>  <r_i_glide_ligand_efficiency_ln>  (50) 
-0.847564

>  <r_i_glide_gscore>  (50) 
-3.75809

>  <r_i_glide_lipo>  (50) 
-0.466798

>  <r_i_glide_hbond>  (50) 
0

>  <r_i_glide_metal>  (50) 
-0

>  <r_i_glide_rewards>  (50) 
-0.932399

>  <r_i_glide_evdw>  (50) 
-16.6996

>  <r_i_glide_ecoul>  (50) 
-11.5538

>  <r_i_glide_erotb>  (50) 
0.209168

>  <r_i_glide_esite>  (50) 
0

>  <r_i_glide_emodel>  (50) 
-38.6277

>  <r_i_glide_energy>  (50) 
-28.2535

>  <r_i_glide_einternal>  (50) 
2.23005

>  <r_i_glide_intrahb_reward>  (50) 
-0.5

>  <i_i_glide_confnum>  (50) 
2

>  <i_i_glide_posenum>  (50) 
24

>  <r_i_glide_eff_state_penalty>  (50) 
0

>  <ligand_id>  (50) 
13

>  <original_smiles>  (50) 
CC(CO)C1CC(O)C2C1OC1(O)C2(C)CCC2C3(C)CCC4OC4C3CC(O)C21C

>  <smiles>  (50) 
[H]OC([H])([H])C([H])(C([H])([H])[H])C1([H])C([H])([H])C([H])(O[H])C2([H])C1([H])OC1(O[H])C2(C([H])([H])[H])C([H])([H])C([H])([H])C2([H])C1(C([H])([H])[H])C([H])(O[H])C([H])([H])C1([H])C3([H])OC3([H])C([H])([H])C([H])([H])C12C([H])([H])[H]

$$$$
13:0:2
     RDKit          3D

 71 76  0  0  1  0  0  0  0  0999 V2000
    0.3337   -9.9878    5.3455 C   0  0  0  0  0  0  0  0  0  0  0  0
    0.7587   -8.9364    4.3009 C   0  0  2  0  0  0  0  0  0  0  0  0
   -0.4879   -8.2694    3.6724 C   0  0  0  0  0  0  0  0  0  0  0  0
   -1.3999   -9.2091    3.1490 O   0  0  0  0  0  0  0  0  0  0  0  0
    1.7432   -9.4803    3.2216 C   0  0  2  0  0  0  0  0  0  0  0  0
    2.8694  -10.4099    3.7267 C   0  0  0  0  0  0  0  0  0  0  0  0
    4.1732   -9.9565    3.0712 C   0  0  1  0  0  0  0  0  0  0  0  0
    4.9802  -11.0272    2.6119 O   0  0  0  0  0  0  0  0  0  0  0  0
    3.7979   -8.9526    1.9626 C   0  0  1  0  0  0  0  0  0  0  0  0
    2.4418   -8.3917    2.3688 C   0  0  2  0  0  0  0  0  0  0  0  0
    2.7378   -7.1694    3.0547 O   0  0  0  0  0  0  0  0  0  0  0  0
    4.0623   -6.7265    2.8723 C   0  0  1  0  0  0  0  0  0  0  0  0
    4.7817   -6.9902    4.0681 O   0  0  0  0  0  0  0  0  0  0  0  0
    4.6753   -7.6934    1.8015 C   0  0  1  0  0  0  0  0  0  0  0  0
    6.1930   -7.9942    1.9565 C   0  0  0  0  0  0  0  0  0  0  0  0
    4.4401   -7.0914    0.4201 C   0  0  0  0  0  0  0  0  0  0  0  0
    5.0554   -5.7044    0.2217 C   0  0  0  0  0  0  0  0  0  0  0  0
    5.1186   -4.7534    1.4562 C   0  0  1  0  0  0  0  0  0  0  0  0
    5.1609   -3.2359    0.9641 C   0  0  2  0  0  0  0  0  0  0  0  0
    6.1582   -3.1709   -0.2424 C   0  0  0  0  0  0  0  0  0  0  0  0
    5.7170   -2.2421    2.0297 C   0  0  0  0  0  0  0  0  0  0  0  0
    5.8753   -0.7736    1.5727 C   0  0  0  0  0  0  0  0  0  0  0  0
    4.6823   -0.2839    0.7711 C   0  0  1  0  0  0  0  0  0  0  0  0
    4.6368   -0.7142   -0.6003 O   0  0  0  0  0  0  0  0  0  0  0  0
    3.6499   -1.2577    0.2729 C   0  0  1  0  0  0  0  0  0  0  0  0
    3.7258   -2.7571    0.5729 C   0  0  2  0  0  0  0  0  0  0  0  0
    2.6923   -3.0901    1.6665 C   0  0  0  0  0  0  0  0  0  0  0  0
    2.6439   -4.5774    2.0970 C   0  0  1  0  0  0  0  0  0  0  0  0
    2.0328   -5.2701    1.0293 O   0  0  0  0  0  0  0  0  0  0  0  0
    4.0445   -5.1271    2.5578 C   0  0  1  0  0  0  0  0  0  0  0  0
    4.3308   -4.4294    3.9335 C   0  0  0  0  0  0  0  0  0  0  0  0
   -0.1625  -10.8319    4.8639 H   0  0  0  0  0  0  0  0  0  0  0  0
   -0.3644   -9.5687    6.0683 H   0  0  0  0  0  0  0  0  0  0  0  0
    1.1665  -10.3905    5.9156 H   0  0  0  0  0  0  0  0  0  0  0  0
    1.2812   -8.1599    4.8591 H   0  0  0  0  0  0  0  0  0  0  0  0
   -1.0180   -7.6876    4.4239 H   0  0  0  0  0  0  0  0  0  0  0  0
   -0.2088   -7.5776    2.8785 H   0  0  0  0  0  0  0  0  0  0  0  0
   -1.6561   -9.8072    3.8495 H   0  0  0  0  0  0  0  0  0  0  0  0
    1.1598  -10.0866    2.5275 H   0  0  0  0  0  0  0  0  0  0  0  0
    3.0040  -10.3602    4.8058 H   0  0  0  0  0  0  0  0  0  0  0  0
    2.6330  -11.4458    3.4764 H   0  0  0  0  0  0  0  0  0  0  0  0
    4.7290   -9.4689    3.8637 H   0  0  0  0  0  0  0  0  0  0  0  0
    4.5697  -11.4466    1.8559 H   0  0  0  0  0  0  0  0  0  0  0  0
    3.6955   -9.5053    1.0253 H   0  0  0  0  0  0  0  0  0  0  0  0
    1.8424   -8.1477    1.4909 H   0  0  0  0  0  0  0  0  0  0  0  0
    4.8197   -7.9202    4.1879 H   0  0  0  0  0  0  0  0  0  0  0  0
    6.8038   -7.0983    1.8799 H   0  0  0  0  0  0  0  0  0  0  0  0
    6.5176   -8.6728    1.1674 H   0  0  0  0  0  0  0  0  0  0  0  0
    6.4540   -8.4774    2.8951 H   0  0  0  0  0  0  0  0  0  0  0  0
    4.8406   -7.7725   -0.3250 H   0  0  0  0  0  0  0  0  0  0  0  0
    3.3905   -7.0493    0.1985 H   0  0  0  0  0  0  0  0  0  0  0  0
    6.0673   -5.8384   -0.1576 H   0  0  0  0  0  0  0  0  0  0  0  0
    4.4959   -5.2449   -0.5890 H   0  0  0  0  0  0  0  0  0  0  0  0
    6.0871   -4.9510    1.9221 H   0  0  0  0  0  0  0  0  0  0  0  0
    6.4702   -2.1712   -0.5228 H   0  0  0  0  0  0  0  0  0  0  0  0
    5.7381   -3.5846   -1.1595 H   0  0  0  0  0  0  0  0  0  0  0  0
    7.0854   -3.7013   -0.0187 H   0  0  0  0  0  0  0  0  0  0  0  0
    5.0761   -2.1789    2.8967 H   0  0  0  0  0  0  0  0  0  0  0  0
    6.6587   -2.6289    2.3879 H   0  0  0  0  0  0  0  0  0  0  0  0
    5.9942   -0.1311    2.4464 H   0  0  0  0  0  0  0  0  0  0  0  0
    6.7717   -0.6346    0.9743 H   0  0  0  0  0  0  0  0  0  0  0  0
    4.4017    0.7609    0.8908 H   0  0  0  0  0  0  0  0  0  0  0  0
    2.6551   -0.8625    0.1110 H   0  0  0  0  0  0  0  0  0  0  0  0
    3.4168   -3.2583   -0.3407 H   0  0  0  0  0  0  0  0  0  0  0  0
    2.8630   -2.4508    2.5276 H   0  0  0  0  0  0  0  0  0  0  0  0
    1.7187   -2.7715    1.3193 H   0  0  0  0  0  0  0  0  0  0  0  0
    1.9559   -4.6613    2.9403 H   0  0  0  0  0  0  0  0  0  0  0  0
    2.6403   -5.2925    0.3045 H   0  0  0  0  0  0  0  0  0  0  0  0
    3.9720   -3.4128    4.0189 H   0  0  0  0  0  0  0  0  0  0  0  0
    5.3987   -4.4369    4.1711 H   0  0  0  0  0  0  0  0  0  0  0  0
    3.8033   -4.9190    4.7553 H   0  0  0  0  0  0  0  0  0  0  0  0
  1  2  1  0
  1 32  1  0
  1 33  1  0
  1 34  1  0
  2  3  1  0
  2  5  1  0
  2 35  1  1
  3  4  1  0
  3 36  1  0
  3 37  1  0
  4 38  1  0
  5 10  1  0
  5  6  1  0
  5 39  1  6
  6  7  1  0
  6 40  1  0
  6 41  1  0
  7  8  1  0
  7  9  1  0
  7 42  1  1
  8 43  1  0
  9 14  1  0
  9 10  1  0
  9 44  1  6
 10 11  1  0
 10 45  1  6
 11 12  1  0
 12 30  1  0
 12 13  1  1
 12 14  1  0
 13 46  1  0
 14 15  1  1
 14 16  1  0
 15 47  1  0
 15 48  1  0
 15 49  1  0
 16 17  1  0
 16 50  1  0
 16 51  1  0
 17 18  1  0
 17 52  1  0
 17 53  1  0
 18 30  1  0
 18 19  1  0
 18 54  1  1
 19 26  1  0
 19 20  1  6
 19 21  1  0
 20 55  1  0
 20 56  1  0
 20 57  1  0
 21 22  1  0
 21 58  1  0
 21 59  1  0
 22 23  1  0
 22 60  1  0
 22 61  1  0
 23 25  1  0
 23 24  1  0
 23 62  1  6
 24 25  1  0
 25 26  1  0
 25 63  1  6
 26 27  1  0
 26 64  1  6
 27 28  1  0
 27 65  1  0
 27 66  1  0
 28 29  1  0
 28 30  1  0
 28 67  1  1
 29 68  1  0
 30 31  1  1
 31 69  1  0
 31 70  1  0
 31 71  1  0
M  END
>  <i_m_ct_stereo_status>  (51) 
1

>  <s_m_source_file>  (51) 
/var/tmp/pbs.5076255.sched01/tmpnv36izql/0kitkh5ys.sdf

>  <i_m_source_file_index>  (51) 
20

>  <i_lp_mmshare_version>  (51) 
48012

>  <i_f3d_flags>  (51) 
0

>  <s_epik_input>  (51) 
W09IXVtDSDJdW0NAQEhdKFtDSDNdKVtDQEhdKFtDSDJdW0NASF0xW09IXSlbQ0BASF0oTzIpW0NASF0xW0NAXShbQ0gzXSkoW0NAXTIzW09IXSlbQ0gyXVtDSDJdW0NASF00W0NAQF01KFtDSDNdKVtDQEhdKFtDQEhdNltDQEhdKE82KVtDSDJdW0NIMl01KVtDSDJdW0NAQEhdKFtPSF0pW0NAQF0zNFtDSDNd

>  <s_epik_cmdline>  (51) 
J2VwaWtfcHl0aG9uJywgJy1waHQnLCAnMi4wJywgJy1waCcsICc3LjAnLCAnLXRuJywgJzgnLCAnLW1hJywgJzIwMCcsICctaW1hZScsICc8aW5maWxlLm1hZT4nLCAnLW9tYWUnLCAnPG91dGZpbGUubWFlPic=

>  <r_lp_tautomer_probability>  (51) 
1

>  <r_epik_Ionization_Penalty>  (51) 
1.17741e-06

>  <r_epik_Ionization_Penalty_Charging>  (51) 
0

>  <r_epik_Ionization_Penalty_Neutral>  (51) 
1.17741e-06

>  <r_epik_State_Penalty>  (51) 
-0

>  <r_epik_Charging_Adjusted_Penalty>  (51) 
0

>  <i_epik_Tot_Q>  (51) 
0

>  <i_epik_Tot_abs_Q>  (51) 
0

>  <s_lp_Force_Field>  (51) 
OPLS3e

>  <r_lp_Energy>  (51) 
75.755

>  <b_lp_Chiralities_Consistent>  (51) 
1

>  <s_lp_Variant>  (51) 
13:0-1

>  <s_i_glide_gridfile>  (51) 
pfpi4k_grid

>  <i_i_glide_lignum>  (51) 
20

>  <i_i_glide_rotatable_bonds>  (51) 
6

>  <r_i_docking_score>  (51) 
-3.65544

>  <r_i_glide_ligand_efficiency>  (51) 
-0.117917

>  <r_i_glide_ligand_efficiency_sa>  (51) 
-0.370424

>  <r_i_glide_ligand_efficiency_ln>  (51) 
-0.824414

>  <r_i_glide_gscore>  (51) 
-3.65544

>  <r_i_glide_lipo>  (51) 
-0.771138

>  <r_i_glide_hbond>  (51) 
-0.304

>  <r_i_glide_metal>  (51) 
-0

>  <r_i_glide_rewards>  (51) 
-0.432399

>  <r_i_glide_evdw>  (51) 
-19.8128

>  <r_i_glide_ecoul>  (51) 
-9.10953

>  <r_i_glide_erotb>  (51) 
0.209168

>  <r_i_glide_esite>  (51) 
0

>  <r_i_glide_emodel>  (51) 
-34.8364

>  <r_i_glide_energy>  (51) 
-28.9224

>  <r_i_glide_einternal>  (51) 
2.91997

>  <r_i_glide_intrahb_reward>  (51) 
-0

>  <i_i_glide_confnum>  (51) 
4

>  <i_i_glide_posenum>  (51) 
31

>  <r_i_glide_eff_state_penalty>  (51) 
0

>  <ligand_id>  (51) 
13

>  <original_smiles>  (51) 
CC(CO)C1CC(O)C2C1OC1(O)C2(C)CCC2C3(C)CCC4OC4C3CC(O)C21C

>  <smiles>  (51) 
[H]OC([H])([H])C([H])(C([H])([H])[H])C1([H])C([H])([H])C([H])(O[H])C2([H])C1([H])OC1(O[H])C2(C([H])([H])[H])C([H])([H])C([H])([H])C2([H])C1(C([H])([H])[H])C([H])(O[H])C([H])([H])C1([H])C3([H])OC3([H])C([H])([H])C([H])([H])C12C([H])([H])[H]

$$$$
14:0:0
     RDKit          3D

 88 96  0  0  1  0  0  0  0  0999 V2000
    4.0004    0.5791    4.8752 C   0  0  0  0  0  0  0  0  0  0  0  0
    3.3152   -0.7740    4.7440 C   0  0  0  0  0  0  0  0  0  0  0  0
    3.0723   -1.2628    3.4945 C   0  0  0  0  0  0  0  0  0  0  0  0
    2.3507   -2.5135    2.9631 C   0  0  1  0  0  0  0  0  0  0  0  0
    3.2210   -3.5816    2.1644 C   0  0  0  0  0  0  0  0  0  0  0  0
    4.5069   -4.4047    2.6725 C   0  0  1  0  0  0  0  0  0  0  0  0
    4.4482   -5.5087    3.8756 C   0  0  2  0  0  0  0  0  0  0  0  0
    4.8542   -6.7001    3.2032 O   0  0  0  0  0  0  0  0  0  0  0  0
    5.2830   -6.5518    1.9594 C   0  0  0  0  0  0  0  0  0  0  0  0
    5.7512   -7.4551    1.2692 O   0  0  0  0  0  0  0  0  0  0  0  0
    5.1602   -5.1468    1.5074 C   0  0  0  0  0  0  0  0  0  0  0  0
    6.3343   -4.5481    0.7557 C   0  0  0  0  0  0  0  0  0  0  0  0
    5.0443   -4.7770    0.0312 C   0  0  0  0  0  0  0  0  0  0  0  0
    3.1365   -5.5533    4.8715 C   0  0  1  0  0  0  0  0  0  0  0  0
    2.4993   -5.8806    3.6609 O   0  0  0  0  0  0  0  0  0  0  0  0
    2.6406   -6.8904    5.7567 C   0  0  2  0  0  0  0  0  0  0  0  0
    3.3277   -8.2411    5.1983 C   0  0  1  0  0  0  0  0  0  0  0  0
    3.6089   -9.2914    6.1117 O   0  0  0  0  0  0  0  0  0  0  0  0
    2.6152   -8.9612    4.0238 C   0  0  0  0  0  0  0  0  0  0  0  0
    1.1138   -9.2297    4.2780 C   0  0  0  0  0  0  0  0  0  0  0  0
    0.5096   -9.8815    3.0161 C   0  0  0  0  0  0  0  0  0  0  0  0
    0.8728  -10.1911    5.4573 C   0  0  0  0  0  0  0  0  0  0  0  0
    0.4396   -7.8664    4.5208 C   0  0  0  0  0  0  0  0  0  0  0  0
    1.0370   -7.0585    5.7101 C   0  0  2  0  0  0  0  0  0  0  0  0
    0.3930   -5.6878    5.8319 C   0  0  0  0  0  0  0  0  0  0  0  0
    0.3397   -4.8537    4.7808 C   0  0  0  0  0  0  0  0  0  0  0  0
    1.1386   -3.5734    4.9344 C   0  0  1  0  0  0  0  0  0  0  0  0
    1.1603   -2.9153    3.6590 O   0  0  0  0  0  0  0  0  0  0  0  0
    0.1594   -2.8307    5.9157 C   0  0  2  0  0  0  0  0  0  0  0  0
   -0.7282   -1.7914    5.2474 C   0  0  0  0  0  0  0  0  0  0  0  0
    0.4692   -2.5867    7.2852 O   0  0  0  0  0  0  0  0  0  0  0  0
   -0.3986   -3.6738    7.0836 C   0  0  2  0  0  0  0  0  0  0  0  0
    0.1067   -5.1146    7.2131 C   0  0  2  0  0  0  0  0  0  0  0  0
    1.0685   -5.4170    8.4005 C   0  0  0  0  0  0  0  0  0  0  0  0
    2.5949   -5.6836    8.2079 C   0  0  1  0  0  0  0  0  0  0  0  0
    3.2622   -5.7423    9.5963 C   0  0  0  0  0  0  0  0  0  0  0  0
    3.0197   -6.8548    7.3111 C   0  0  1  0  0  0  0  0  0  0  0  0
    2.5327   -7.9732    8.0371 O   0  0  0  0  0  0  0  0  0  0  0  0
    2.6264   -4.0343    5.4147 C   0  0  2  0  0  0  0  0  0  0  0  0
    3.8038   -3.4535    4.9933 O   0  0  0  0  0  0  0  0  0  0  0  0
    3.1400   -2.9293    6.4844 C   0  0  0  0  0  0  0  0  0  0  0  0
    2.9426   -1.3726    6.1239 C   0  0  0  0  0  0  0  0  0  0  0  0
    4.9364    0.4939    5.4311 H   0  0  0  0  0  0  0  0  0  0  0  0
    3.3518    1.2738    5.4113 H   0  0  0  0  0  0  0  0  0  0  0  0
    4.2269    1.0292    3.9062 H   0  0  0  0  0  0  0  0  0  0  0  0
    3.4294   -0.6522    2.6800 H   0  0  0  0  0  0  0  0  0  0  0  0
    1.8345   -2.0513    2.1300 H   0  0  0  0  0  0  0  0  0  0  0  0
    2.5332   -4.2701    1.6759 H   0  0  0  0  0  0  0  0  0  0  0  0
    3.6400   -2.9950    1.3499 H   0  0  0  0  0  0  0  0  0  0  0  0
    5.2398   -3.6576    3.0020 H   0  0  0  0  0  0  0  0  0  0  0  0
    5.3051   -5.3269    4.5306 H   0  0  0  0  0  0  0  0  0  0  0  0
    6.6075   -3.5277    1.0119 H   0  0  0  0  0  0  0  0  0  0  0  0
    7.1642   -5.1784    0.4462 H   0  0  0  0  0  0  0  0  0  0  0  0
    5.0339   -5.6008   -0.6897 H   0  0  0  0  0  0  0  0  0  0  0  0
    4.5072   -3.8637   -0.2475 H   0  0  0  0  0  0  0  0  0  0  0  0
    2.8728   -6.6991    3.3604 H   0  0  0  0  0  0  0  0  0  0  0  0
    4.3539   -8.0232    4.9401 H   0  0  0  0  0  0  0  0  0  0  0  0
    3.9252  -10.0379    5.6196 H   0  0  0  0  0  0  0  0  0  0  0  0
    2.7073   -8.3572    3.1257 H   0  0  0  0  0  0  0  0  0  0  0  0
    3.1270   -9.8927    3.7710 H   0  0  0  0  0  0  0  0  0  0  0  0
   -0.5598  -10.0560    3.1382 H   0  0  0  0  0  0  0  0  0  0  0  0
    0.9744  -10.8463    2.8126 H   0  0  0  0  0  0  0  0  0  0  0  0
    0.6446   -9.2604    2.1287 H   0  0  0  0  0  0  0  0  0  0  0  0
   -0.1797  -10.4039    5.5782 H   0  0  0  0  0  0  0  0  0  0  0  0
    1.1901   -9.7840    6.4077 H   0  0  0  0  0  0  0  0  0  0  0  0
    1.3845  -11.1369    5.3134 H   0  0  0  0  0  0  0  0  0  0  0  0
    0.4938   -7.3084    3.5886 H   0  0  0  0  0  0  0  0  0  0  0  0
   -0.6268   -8.0147    4.6889 H   0  0  0  0  0  0  0  0  0  0  0  0
    0.6723   -7.5929    6.5836 H   0  0  0  0  0  0  0  0  0  0  0  0
    0.3729   -5.2005    3.7647 H   0  0  0  0  0  0  0  0  0  0  0  0
   -1.3358   -2.2541    4.4722 H   0  0  0  0  0  0  0  0  0  0  0  0
   -0.1283   -1.0095    4.7868 H   0  0  0  0  0  0  0  0  0  0  0  0
   -1.3979   -1.3470    5.9785 H   0  0  0  0  0  0  0  0  0  0  0  0
   -1.4211   -3.4994    7.3897 H   0  0  0  0  0  0  0  0  0  0  0  0
   -0.7956   -5.6609    7.4935 H   0  0  0  0  0  0  0  0  0  0  0  0
    0.9587   -4.5959    9.1127 H   0  0  0  0  0  0  0  0  0  0  0  0
    0.6603   -6.2792    8.9351 H   0  0  0  0  0  0  0  0  0  0  0  0
    3.1098   -4.8707    7.7761 H   0  0  0  0  0  0  0  0  0  0  0  0
    2.8471   -6.5353   10.2199 H   0  0  0  0  0  0  0  0  0  0  0  0
    3.1228   -4.8003   10.1303 H   0  0  0  0  0  0  0  0  0  0  0  0
    4.3368   -5.9078    9.5136 H   0  0  0  0  0  0  0  0  0  0  0  0
    4.1061   -6.9204    7.3614 H   0  0  0  0  0  0  0  0  0  0  0  0
    2.8372   -8.7408    7.5506 H   0  0  0  0  0  0  0  0  0  0  0  0
    3.8616   -3.5419    4.0536 H   0  0  0  0  0  0  0  0  0  0  0  0
    2.5830   -3.0219    7.4017 H   0  0  0  0  0  0  0  0  0  0  0  0
    4.1250   -3.0717    6.9838 H   0  0  0  0  0  0  0  0  0  0  0  0
    3.5501   -0.8503    6.8596 H   0  0  0  0  0  0  0  0  0  0  0  0
    1.9390   -1.0211    6.3214 H   0  0  0  0  0  0  0  0  0  0  0  0
  1  2  1  0
  1 43  1  0
  1 44  1  0
  1 45  1  0
  2 42  1  0
  2  3  2  3
  3  4  1  0
  3 46  1  0
  4 28  1  0
  4  5  1  0
  4 47  1  6
  5  6  1  0
  5 48  1  0
  5 49  1  0
  6 11  1  0
  6  7  1  0
  6 50  1  1
  7  8  1  0
  7 14  1  0
  7 51  1  1
  8  9  1  0
  9 10  2  0
  9 11  1  0
 11 13  1  0
 11 12  1  0
 12 13  1  0
 12 52  1  0
 12 53  1  0
 13 54  1  0
 13 55  1  0
 14 39  1  0
 14 15  1  6
 16 14  1  6
 15 56  1  0
 16 24  1  0
 16 37  1  0
 16 17  1  0
 17 18  1  0
 17 19  1  0
 17 57  1  6
 18 58  1  0
 19 20  1  0
 19 59  1  0
 19 60  1  0
 20 21  1  0
 20 22  1  0
 20 23  1  0
 21 61  1  0
 21 62  1  0
 21 63  1  0
 22 64  1  0
 22 65  1  0
 22 66  1  0
 23 24  1  0
 23 67  1  0
 23 68  1  0
 24 25  1  0
 24 69  1  1
 25 33  1  0
 25 26  2  0
 27 26  1  6
 26 70  1  0
 27 28  1  0
 27 29  1  0
 27 39  1  0
 29 32  1  0
 29 30  1  6
 29 31  1  0
 30 71  1  0
 30 72  1  0
 30 73  1  0
 31 32  1  0
 32 33  1  0
 32 74  1  1
 33 34  1  0
 33 75  1  1
 34 35  1  0
 34 76  1  0
 34 77  1  0
 35 36  1  0
 35 37  1  0
 35 78  1  6
 36 79  1  0
 36 80  1  0
 36 81  1  0
 37 38  1  0
 37 82  1  6
 38 83  1  0
 39 40  1  6
 39 41  1  0
 40 84  1  0
 41 42  1  0
 41 85  1  0
 41 86  1  0
 42 87  1  0
 42 88  1  0
M  END
>  <i_m_ct_stereo_status>  (52) 
1

>  <s_m_source_file>  (52) 
/var/tmp/pbs.5076255.sched01/tmpnv36izql/0kitkh5ys.sdf

>  <i_m_source_file_index>  (52) 
21

>  <i_lp_mmshare_version>  (52) 
48012

>  <i_f3d_flags>  (52) 
0

>  <s_epik_input>  (52) 
W0NIMl0xW0NAQEhdKE8yKVxbQ0hdPUMoXFtDSDNdKVtDSDJdW0NIMl1bQ0BdMyhbT0hdKVtDQEBdMihbQ0hdNClbQ0BAXShPNSkoW0NIM10pW0NASF01W0NASF0oW0NIMl1bQ0BASF0oW0NIM10pW0NASF02W09IXSlDPTRbQ0BASF0oW0NIMl1DKFtDSDNdKShbQ0gzXSlbQ0gyXVtDQEBIXTdbT0hdKVtDQEBdNjdbQ0BdMyhbT0hdKVtDQEBIXShPQzg9TylbQ0BIXTFDODlbQ0gyXVtDSDJdOQ==

>  <s_epik_cmdline>  (52) 
J2VwaWtfcHl0aG9uJywgJy1waHQnLCAnMi4wJywgJy1waCcsICc3LjAnLCAnLXRuJywgJzgnLCAnLW1hJywgJzIwMCcsICctaW1hZScsICc8aW5maWxlLm1hZT4nLCAnLW9tYWUnLCAnPG91dGZpbGUubWFlPic=

>  <r_lp_tautomer_probability>  (52) 
1

>  <r_epik_Ionization_Penalty>  (52) 
1.04914e-06

>  <r_epik_Ionization_Penalty_Charging>  (52) 
0

>  <r_epik_Ionization_Penalty_Neutral>  (52) 
1.04914e-06

>  <r_epik_State_Penalty>  (52) 
-0

>  <r_epik_Charging_Adjusted_Penalty>  (52) 
0

>  <i_epik_Tot_Q>  (52) 
0

>  <i_epik_Tot_abs_Q>  (52) 
0

>  <s_epik_Chemistry_Notes>  (52) 
This compound has an ester and may undergo hydrolysis at high or low pH.

>  <s_lp_Force_Field>  (52) 
OPLS3e

>  <r_lp_Energy>  (52) 
305.42

>  <b_lp_Chiralities_Consistent>  (52) 
1

>  <s_lp_Variant>  (52) 
14:0-1

>  <s_i_glide_gridfile>  (52) 
pfpi4k_grid

>  <i_i_glide_lignum>  (52) 
21

>  <i_i_glide_rotatable_bonds>  (52) 
4

>  <r_i_docking_score>  (52) 
-2.28213

>  <r_i_glide_ligand_efficiency>  (52) 
-0.0543365

>  <r_i_glide_ligand_efficiency_sa>  (52) 
-0.188875

>  <r_i_glide_ligand_efficiency_ln>  (52) 
-0.4817

>  <r_i_glide_gscore>  (52) 
-2.28213

>  <r_i_glide_lipo>  (52) 
-0.21646

>  <r_i_glide_hbond>  (52) 
0

>  <r_i_glide_metal>  (52) 
-0

>  <r_i_glide_rewards>  (52) 
-0.552461

>  <r_i_glide_evdw>  (52) 
-29.1278

>  <r_i_glide_ecoul>  (52) 
-0.378826

>  <r_i_glide_erotb>  (52) 
0

>  <r_i_glide_esite>  (52) 
0

>  <r_i_glide_emodel>  (52) 
-38.5711

>  <r_i_glide_energy>  (52) 
-29.5066

>  <r_i_glide_einternal>  (52) 
0.901241

>  <r_i_glide_intrahb_reward>  (52) 
-0.5

>  <i_i_glide_confnum>  (52) 
1

>  <i_i_glide_posenum>  (52) 
10

>  <r_i_glide_eff_state_penalty>  (52) 
0

>  <ligand_id>  (52) 
14

>  <original_smiles>  (52) 
CC1=CC2CC3C(OC(=O)C34CC4)C3(O)C45C(O)CC(C)(C)CC4C4=CC(O2)(C2(C)OC2C4CC(C)C5O)C3(O)CC1

>  <smiles>  (52) 
[H]OC1([H])C([H])([H])C(C([H])([H])[H])(C([H])([H])[H])C([H])([H])C2([H])C3=C([H])C45OC6([H])C([H])=C(C([H])([H])[H])C([H])([H])C([H])([H])C4(O[H])C(O[H])(C4([H])OC(=O)C7(C([H])([H])C7([H])[H])C4([H])C6([H])[H])C12C([H])(O[H])C([H])(C([H])([H])[H])C([H])([H])C3([H])C1([H])OC15C([H])([H])[H]

$$$$
14:0:1
     RDKit          3D

 88 96  0  0  1  0  0  0  0  0999 V2000
    0.3405   -8.2495    8.9571 C   0  0  0  0  0  0  0  0  0  0  0  0
    0.6323   -7.6012    7.6128 C   0  0  0  0  0  0  0  0  0  0  0  0
    0.3827   -6.2646    7.4633 C   0  0  0  0  0  0  0  0  0  0  0  0
    0.4772   -5.2970    6.2690 C   0  0  1  0  0  0  0  0  0  0  0  0
    1.5199   -4.0979    6.3596 C   0  0  0  0  0  0  0  0  0  0  0  0
    3.1140   -4.1825    6.5496 C   0  0  1  0  0  0  0  0  0  0  0  0
    4.1116   -4.8236    5.4356 C   0  0  2  0  0  0  0  0  0  0  0  0
    4.9434   -3.7063    5.1063 O   0  0  0  0  0  0  0  0  0  0  0  0
    4.7683   -2.6153    5.8431 C   0  0  0  0  0  0  0  0  0  0  0  0
    5.4325   -1.5704    5.7424 O   0  0  0  0  0  0  0  0  0  0  0  0
    3.6858   -2.8071    6.8260 C   0  0  0  0  0  0  0  0  0  0  0  0
    3.9449   -2.3184    8.2480 C   0  0  0  0  0  0  0  0  0  0  0  0
    2.9275   -1.6010    7.4116 C   0  0  0  0  0  0  0  0  0  0  0  0
    3.4868   -5.7568    4.2346 C   0  0  1  0  0  0  0  0  0  0  0  0
    2.8645   -4.5364    3.8934 O   0  0  0  0  0  0  0  0  0  0  0  0
    4.2178   -6.0353    2.7413 C   0  0  2  0  0  0  0  0  0  0  0  0
    5.3785   -4.9518    2.4667 C   0  0  1  0  0  0  0  0  0  0  0  0
    6.5465   -5.2975    1.7347 O   0  0  0  0  0  0  0  0  0  0  0  0
    4.9476   -3.6147    1.8140 C   0  0  0  0  0  0  0  0  0  0  0  0
    4.0985   -3.7824    0.5352 C   0  0  0  0  0  0  0  0  0  0  0  0
    3.6766   -2.3856    0.0315 C   0  0  0  0  0  0  0  0  0  0  0  0
    4.8689   -4.4716   -0.6157 C   0  0  0  0  0  0  0  0  0  0  0  0
    2.8439   -4.5836    0.9201 C   0  0  0  0  0  0  0  0  0  0  0  0
    3.1329   -5.9825    1.5464 C   0  0  2  0  0  0  0  0  0  0  0  0
    1.8479   -6.6679    1.9978 C   0  0  0  0  0  0  0  0  0  0  0  0
    0.9835   -6.0493    2.8172 C   0  0  0  0  0  0  0  0  0  0  0  0
    0.8323   -6.6879    4.1845 C   0  0  1  0  0  0  0  0  0  0  0  0
    0.0553   -5.8064    4.9969 O   0  0  0  0  0  0  0  0  0  0  0  0
   -0.0428   -7.9101    3.7428 C   0  0  2  0  0  0  0  0  0  0  0  0
   -1.5312   -7.7504    3.9891 C   0  0  0  0  0  0  0  0  0  0  0  0
    0.4477   -9.2645    3.7706 O   0  0  0  0  0  0  0  0  0  0  0  0
    0.4170   -8.6598    2.4781 C   0  0  2  0  0  0  0  0  0  0  0  0
    1.7031   -8.1776    1.8182 C   0  0  2  0  0  0  0  0  0  0  0  0
    2.9521   -9.1015    1.9223 C   0  0  0  0  0  0  0  0  0  0  0  0
    4.1718   -8.7745    2.8393 C   0  0  1  0  0  0  0  0  0  0  0  0
    5.1163   -9.9947    2.8737 C   0  0  0  0  0  0  0  0  0  0  0  0
    4.9378   -7.4599    2.5931 C   0  0  1  0  0  0  0  0  0  0  0  0
    5.4964   -7.7064    1.3062 O   0  0  0  0  0  0  0  0  0  0  0  0
    2.3422   -6.8883    4.7699 C   0  0  2  0  0  0  0  0  0  0  0  0
    2.7180   -6.7167    6.0900 O   0  0  0  0  0  0  0  0  0  0  0  0
    2.3627   -8.3074    5.5605 C   0  0  0  0  0  0  0  0  0  0  0  0
    1.1505   -8.6231    6.5721 C   0  0  0  0  0  0  0  0  0  0  0  0
    1.2453   -8.6961    9.3769 H   0  0  0  0  0  0  0  0  0  0  0  0
   -0.3960   -9.0427    8.8260 H   0  0  0  0  0  0  0  0  0  0  0  0
   -0.0511   -7.5451    9.6879 H   0  0  0  0  0  0  0  0  0  0  0  0
    0.0333   -5.7547    8.3456 H   0  0  0  0  0  0  0  0  0  0  0  0
   -0.4370   -4.7437    6.4626 H   0  0  0  0  0  0  0  0  0  0  0  0
    1.2890   -3.3890    5.5613 H   0  0  0  0  0  0  0  0  0  0  0  0
    1.1936   -3.6238    7.2709 H   0  0  0  0  0  0  0  0  0  0  0  0
    3.2749   -4.7696    7.4577 H   0  0  0  0  0  0  0  0  0  0  0  0
    4.8087   -5.4750    5.9679 H   0  0  0  0  0  0  0  0  0  0  0  0
    3.5996   -2.9682    9.0445 H   0  0  0  0  0  0  0  0  0  0  0  0
    4.8470   -1.7488    8.4759 H   0  0  0  0  0  0  0  0  0  0  0  0
    3.2154   -0.6116    7.0451 H   0  0  0  0  0  0  0  0  0  0  0  0
    1.9013   -1.7153    7.7446 H   0  0  0  0  0  0  0  0  0  0  0  0
    3.5418   -3.9222    3.6829 H   0  0  0  0  0  0  0  0  0  0  0  0
    5.8947   -4.7775    3.3973 H   0  0  0  0  0  0  0  0  0  0  0  0
    6.9060   -6.0923    2.0862 H   0  0  0  0  0  0  0  0  0  0  0  0
    4.3712   -3.0348    2.5327 H   0  0  0  0  0  0  0  0  0  0  0  0
    5.8202   -2.9924    1.6069 H   0  0  0  0  0  0  0  0  0  0  0  0
    3.0326   -2.4532   -0.8460 H   0  0  0  0  0  0  0  0  0  0  0  0
    4.5418   -1.7857   -0.2450 H   0  0  0  0  0  0  0  0  0  0  0  0
    3.1214   -1.8314    0.7919 H   0  0  0  0  0  0  0  0  0  0  0  0
    4.2604   -4.5177   -1.5209 H   0  0  0  0  0  0  0  0  0  0  0  0
    5.1394   -5.4997   -0.3729 H   0  0  0  0  0  0  0  0  0  0  0  0
    5.7917   -3.9398   -0.8511 H   0  0  0  0  0  0  0  0  0  0  0  0
    2.2581   -3.9566    1.5926 H   0  0  0  0  0  0  0  0  0  0  0  0
    2.2078   -4.7082    0.0429 H   0  0  0  0  0  0  0  0  0  0  0  0
    3.4670   -6.5711    0.6901 H   0  0  0  0  0  0  0  0  0  0  0  0
    0.9147   -4.9756    2.8843 H   0  0  0  0  0  0  0  0  0  0  0  0
   -1.9126   -6.8693    3.4669 H   0  0  0  0  0  0  0  0  0  0  0  0
   -1.7196   -7.6346    5.0500 H   0  0  0  0  0  0  0  0  0  0  0  0
   -2.0770   -8.6298    3.6375 H   0  0  0  0  0  0  0  0  0  0  0  0
   -0.3543   -9.0566    1.8289 H   0  0  0  0  0  0  0  0  0  0  0  0
    1.4321   -8.2415    0.7655 H   0  0  0  0  0  0  0  0  0  0  0  0
    2.5830  -10.0939    2.1971 H   0  0  0  0  0  0  0  0  0  0  0  0
    3.3365   -9.2515    0.9108 H   0  0  0  0  0  0  0  0  0  0  0  0
    3.9138   -8.6964    3.8600 H   0  0  0  0  0  0  0  0  0  0  0  0
    5.4840  -10.2696    1.8818 H   0  0  0  0  0  0  0  0  0  0  0  0
    4.5910  -10.8706    3.2635 H   0  0  0  0  0  0  0  0  0  0  0  0
    5.9737   -9.8208    3.5213 H   0  0  0  0  0  0  0  0  0  0  0  0
    5.7737   -7.4545    3.2931 H   0  0  0  0  0  0  0  0  0  0  0  0
    5.8907   -8.5588    1.3116 H   0  0  0  0  0  0  0  0  0  0  0  0
    2.1830   -7.2864    6.6123 H   0  0  0  0  0  0  0  0  0  0  0  0
    2.2871   -9.1181    4.8605 H   0  0  0  0  0  0  0  0  0  0  0  0
    3.3172   -8.6946    5.9770 H   0  0  0  0  0  0  0  0  0  0  0  0
    1.4814   -9.5022    7.1284 H   0  0  0  0  0  0  0  0  0  0  0  0
    0.2593   -8.9803    6.0657 H   0  0  0  0  0  0  0  0  0  0  0  0
  1  2  1  0
  1 43  1  0
  1 44  1  0
  1 45  1  0
  2 42  1  0
  2  3  2  3
  3  4  1  0
  3 46  1  0
  4 28  1  0
  4  5  1  0
  4 47  1  1
  5  6  1  0
  5 48  1  0
  5 49  1  0
  6 11  1  0
  6  7  1  0
  6 50  1  1
  7  8  1  0
  7 14  1  0
  7 51  1  1
  8  9  1  0
  9 10  2  0
  9 11  1  0
 11 13  1  0
 11 12  1  0
 12 13  1  0
 12 52  1  0
 12 53  1  0
 13 54  1  0
 13 55  1  0
 14 39  1  0
 14 15  1  6
 16 14  1  1
 15 56  1  0
 16 24  1  0
 16 37  1  0
 16 17  1  0
 17 18  1  0
 17 19  1  0
 17 57  1  1
 18 58  1  0
 19 20  1  0
 19 59  1  0
 19 60  1  0
 20 21  1  0
 20 22  1  0
 20 23  1  0
 21 61  1  0
 21 62  1  0
 21 63  1  0
 22 64  1  0
 22 65  1  0
 22 66  1  0
 23 24  1  0
 23 67  1  0
 23 68  1  0
 24 25  1  0
 24 69  1  6
 25 33  1  0
 25 26  2  0
 27 26  1  6
 26 70  1  0
 27 28  1  0
 27 29  1  0
 27 39  1  0
 29 32  1  0
 29 30  1  6
 29 31  1  0
 30 71  1  0
 30 72  1  0
 30 73  1  0
 31 32  1  0
 32 33  1  0
 32 74  1  6
 33 34  1  0
 33 75  1  6
 34 35  1  0
 34 76  1  0
 34 77  1  0
 35 36  1  0
 35 37  1  0
 35 78  1  1
 36 79  1  0
 36 80  1  0
 36 81  1  0
 37 38  1  0
 37 82  1  1
 38 83  1  0
 39 40  1  1
 39 41  1  0
 40 84  1  0
 41 42  1  0
 41 85  1  0
 41 86  1  0
 42 87  1  0
 42 88  1  0
M  END
>  <i_m_ct_stereo_status>  (53) 
1

>  <s_m_source_file>  (53) 
/var/tmp/pbs.5076255.sched01/tmpnv36izql/0kitkh5ys.sdf

>  <i_m_source_file_index>  (53) 
21

>  <i_lp_mmshare_version>  (53) 
48012

>  <i_f3d_flags>  (53) 
0

>  <s_epik_input>  (53) 
W0NIMl0xW0NAQEhdKE8yKVxbQ0hdPUMoXFtDSDNdKVtDSDJdW0NIMl1bQ0BdMyhbT0hdKVtDQEBdMihbQ0hdNClbQ0BAXShPNSkoW0NIM10pW0NASF01W0NASF0oW0NIMl1bQ0BASF0oW0NIM10pW0NASF02W09IXSlDPTRbQ0BASF0oW0NIMl1DKFtDSDNdKShbQ0gzXSlbQ0gyXVtDQEBIXTdbT0hdKVtDQEBdNjdbQ0BdMyhbT0hdKVtDQEBIXShPQzg9TylbQ0BIXTFDODlbQ0gyXVtDSDJdOQ==

>  <s_epik_cmdline>  (53) 
J2VwaWtfcHl0aG9uJywgJy1waHQnLCAnMi4wJywgJy1waCcsICc3LjAnLCAnLXRuJywgJzgnLCAnLW1hJywgJzIwMCcsICctaW1hZScsICc8aW5maWxlLm1hZT4nLCAnLW9tYWUnLCAnPG91dGZpbGUubWFlPic=

>  <r_lp_tautomer_probability>  (53) 
1

>  <r_epik_Ionization_Penalty>  (53) 
1.04914e-06

>  <r_epik_Ionization_Penalty_Charging>  (53) 
0

>  <r_epik_Ionization_Penalty_Neutral>  (53) 
1.04914e-06

>  <r_epik_State_Penalty>  (53) 
-0

>  <r_epik_Charging_Adjusted_Penalty>  (53) 
0

>  <i_epik_Tot_Q>  (53) 
0

>  <i_epik_Tot_abs_Q>  (53) 
0

>  <s_epik_Chemistry_Notes>  (53) 
This compound has an ester and may undergo hydrolysis at high or low pH.

>  <s_lp_Force_Field>  (53) 
OPLS3e

>  <r_lp_Energy>  (53) 
305.42

>  <b_lp_Chiralities_Consistent>  (53) 
1

>  <s_lp_Variant>  (53) 
14:0-1

>  <s_i_glide_gridfile>  (53) 
pfpi4k_grid

>  <i_i_glide_lignum>  (53) 
21

>  <i_i_glide_rotatable_bonds>  (53) 
4

>  <r_i_docking_score>  (53) 
-1.92324

>  <r_i_glide_ligand_efficiency>  (53) 
-0.0457914

>  <r_i_glide_ligand_efficiency_sa>  (53) 
-0.159172

>  <r_i_glide_ligand_efficiency_ln>  (53) 
-0.405946

>  <r_i_glide_gscore>  (53) 
-1.92324

>  <r_i_glide_lipo>  (53) 
-0.111741

>  <r_i_glide_hbond>  (53) 
0

>  <r_i_glide_metal>  (53) 
-0

>  <r_i_glide_rewards>  (53) 
-0.0130472

>  <r_i_glide_evdw>  (53) 
-34.3422

>  <r_i_glide_ecoul>  (53) 
-0.542268

>  <r_i_glide_erotb>  (53) 
0

>  <r_i_glide_esite>  (53) 
0

>  <r_i_glide_emodel>  (53) 
-38.1717

>  <r_i_glide_energy>  (53) 
-34.8845

>  <r_i_glide_einternal>  (53) 
0.8429

>  <r_i_glide_intrahb_reward>  (53) 
-0

>  <i_i_glide_confnum>  (53) 
2

>  <i_i_glide_posenum>  (53) 
11

>  <r_i_glide_eff_state_penalty>  (53) 
0

>  <ligand_id>  (53) 
14

>  <original_smiles>  (53) 
CC1=CC2CC3C(OC(=O)C34CC4)C3(O)C45C(O)CC(C)(C)CC4C4=CC(O2)(C2(C)OC2C4CC(C)C5O)C3(O)CC1

>  <smiles>  (53) 
[H]OC1([H])C([H])([H])C(C([H])([H])[H])(C([H])([H])[H])C([H])([H])C2([H])C3=C([H])C45OC6([H])C([H])=C(C([H])([H])[H])C([H])([H])C([H])([H])C4(O[H])C(O[H])(C4([H])OC(=O)C7(C([H])([H])C7([H])[H])C4([H])C6([H])[H])C12C([H])(O[H])C([H])(C([H])([H])[H])C([H])([H])C3([H])C1([H])OC15C([H])([H])[H]

$$$$
14:0:2
     RDKit          3D

 88 96  0  0  1  0  0  0  0  0999 V2000
    0.3521   -8.2333    8.9519 C   0  0  0  0  0  0  0  0  0  0  0  0
    0.6274   -7.5851    7.6034 C   0  0  0  0  0  0  0  0  0  0  0  0
    0.3465   -6.2527    7.4493 C   0  0  0  0  0  0  0  0  0  0  0  0
    0.4176   -5.2887    6.2525 C   0  0  1  0  0  0  0  0  0  0  0  0
    1.4426   -4.0698    6.3389 C   0  0  0  0  0  0  0  0  0  0  0  0
    3.0424   -4.1141    6.5281 C   0  0  1  0  0  0  0  0  0  0  0  0
    4.0583   -4.7388    5.4150 C   0  0  2  0  0  0  0  0  0  0  0  0
    4.8631   -3.6020    5.0747 O   0  0  0  0  0  0  0  0  0  0  0  0
    4.6684   -2.5119    5.8120 C   0  0  0  0  0  0  0  0  0  0  0  0
    5.3237   -1.4561    5.7093 O   0  0  0  0  0  0  0  0  0  0  0  0
    3.5834   -2.7214    6.7914 C   0  0  0  0  0  0  0  0  0  0  0  0
    3.8254   -2.2253    8.2158 C   0  0  0  0  0  0  0  0  0  0  0  0
    2.7908   -1.5350    7.3741 C   0  0  0  0  0  0  0  0  0  0  0  0
    3.4529   -5.6993    4.2185 C   0  0  1  0  0  0  0  0  0  0  0  0
    2.7970   -4.4978    3.8833 O   0  0  0  0  0  0  0  0  0  0  0  0
    4.1886   -5.9680    2.7247 C   0  0  2  0  0  0  0  0  0  0  0  0
    5.3220   -4.8603    2.4471 C   0  0  1  0  0  0  0  0  0  0  0  0
    6.4872   -5.1942    1.7082 O   0  0  0  0  0  0  0  0  0  0  0  0
    4.8615   -3.5313    1.7913 C   0  0  0  0  0  0  0  0  0  0  0  0
    4.0200   -3.7268    0.5108 C   0  0  0  0  0  0  0  0  0  0  0  0
    3.5666   -2.3437   -0.0001 C   0  0  0  0  0  0  0  0  0  0  0  0
    4.8071   -4.4047   -0.6350 C   0  0  0  0  0  0  0  0  0  0  0  0
    2.7828   -4.5521    0.9006 C   0  0  0  0  0  0  0  0  0  0  0  0
    3.1010   -5.9427    1.5315 C   0  0  2  0  0  0  0  0  0  0  0  0
    1.8324   -6.6537    1.9877 C   0  0  0  0  0  0  0  0  0  0  0  0
    0.9523   -6.0515    2.8016 C   0  0  0  0  0  0  0  0  0  0  0  0
    0.8124   -6.6867    4.1700 C   0  0  1  0  0  0  0  0  0  0  0  0
    0.0180   -5.8128    4.9772 O   0  0  0  0  0  0  0  0  0  0  0  0
   -0.0344   -7.9312    3.7382 C   0  0  2  0  0  0  0  0  0  0  0  0
   -1.5254   -7.8032    3.9811 C   0  0  0  0  0  0  0  0  0  0  0  0
    0.4883   -9.2725    3.7739 O   0  0  0  0  0  0  0  0  0  0  0  0
    0.4462   -8.6775    2.4829 C   0  0  2  0  0  0  0  0  0  0  0  0
    1.7219   -8.1688    1.8174 C   0  0  2  0  0  0  0  0  0  0  0  0
    2.9906   -9.0644    1.9270 C   0  0  0  0  0  0  0  0  0  0  0  0
    4.2020   -8.7047    2.8434 C   0  0  1  0  0  0  0  0  0  0  0  0
    5.1704   -9.9043    2.8861 C   0  0  0  0  0  0  0  0  0  0  0  0
    4.9420   -7.3791    2.5795 C   0  0  1  0  0  0  0  0  0  0  0  0
    5.4895   -7.6368    1.2860 O   0  0  0  0  0  0  0  0  0  0  0  0
    2.3265   -6.8562    4.7459 C   0  0  2  0  0  0  0  0  0  0  0  0
    2.6968   -6.6398    6.0589 O   0  0  0  0  0  0  0  0  0  0  0  0
    2.3768   -8.2635    5.5550 C   0  0  0  0  0  0  0  0  0  0  0  0
    1.1682   -8.6004    6.5681 C   0  0  0  0  0  0  0  0  0  0  0  0
    1.2675   -8.6564    9.3742 H   0  0  0  0  0  0  0  0  0  0  0  0
   -0.3647   -9.0437    8.8250 H   0  0  0  0  0  0  0  0  0  0  0  0
   -0.0551   -7.5344    9.6799 H   0  0  0  0  0  0  0  0  0  0  0  0
   -0.0139   -5.7524    8.3312 H   0  0  0  0  0  0  0  0  0  0  0  0
   -0.5111   -4.7544    6.4412 H   0  0  0  0  0  0  0  0  0  0  0  0
    1.1959   -3.3712    5.5362 H   0  0  0  0  0  0  0  0  0  0  0  0
    1.1072   -3.5927    7.2466 H   0  0  0  0  0  0  0  0  0  0  0  0
    3.2229   -4.6844    7.4438 H   0  0  0  0  0  0  0  0  0  0  0  0
    4.7754   -5.3684    5.9498 H   0  0  0  0  0  0  0  0  0  0  0  0
    3.4924   -2.8791    9.0145 H   0  0  0  0  0  0  0  0  0  0  0  0
    4.7133   -1.6343    8.4439 H   0  0  0  0  0  0  0  0  0  0  0  0
    3.0565   -0.5414    7.0045 H   0  0  0  0  0  0  0  0  0  0  0  0
    1.7663   -1.6801    7.7052 H   0  0  0  0  0  0  0  0  0  0  0  0
    3.4542   -3.8681    3.6624 H   0  0  0  0  0  0  0  0  0  0  0  0
    5.8392   -4.6709    3.3758 H   0  0  0  0  0  0  0  0  0  0  0  0
    7.1044   -4.4956    1.7872 H   0  0  0  0  0  0  0  0  0  0  0  0
    4.2670   -2.9627    2.5068 H   0  0  0  0  0  0  0  0  0  0  0  0
    5.7144   -2.8824    1.5814 H   0  0  0  0  0  0  0  0  0  0  0  0
    2.9273   -2.4322   -0.8792 H   0  0  0  0  0  0  0  0  0  0  0  0
    4.4187   -1.7260   -0.2786 H   0  0  0  0  0  0  0  0  0  0  0  0
    2.9969   -1.7984    0.7559 H   0  0  0  0  0  0  0  0  0  0  0  0
    4.2026   -4.4673   -1.5405 H   0  0  0  0  0  0  0  0  0  0  0  0
    5.0987   -5.4261   -0.3905 H   0  0  0  0  0  0  0  0  0  0  0  0
    5.7168   -3.8537   -0.8742 H   0  0  0  0  0  0  0  0  0  0  0  0
    2.1884   -3.9361    1.5749 H   0  0  0  0  0  0  0  0  0  0  0  0
    2.1486   -4.6968    0.0245 H   0  0  0  0  0  0  0  0  0  0  0  0
    3.4442   -6.5242    0.6754 H   0  0  0  0  0  0  0  0  0  0  0  0
    0.8645   -4.9775    2.8661 H   0  0  0  0  0  0  0  0  0  0  0  0
   -1.9251   -6.9347    3.4523 H   0  0  0  0  0  0  0  0  0  0  0  0
   -1.7178   -7.6856    5.0415 H   0  0  0  0  0  0  0  0  0  0  0  0
   -2.0492   -8.6971    3.6341 H   0  0  0  0  0  0  0  0  0  0  0  0
   -0.3169   -9.0941    1.8326 H   0  0  0  0  0  0  0  0  0  0  0  0
    1.4503   -8.2468    0.7672 H   0  0  0  0  0  0  0  0  0  0  0  0
    2.6432  -10.0621    2.2094 H   0  0  0  0  0  0  0  0  0  0  0  0
    3.3753   -9.2191    0.9164 H   0  0  0  0  0  0  0  0  0  0  0  0
    3.9440   -8.6241    3.8648 H   0  0  0  0  0  0  0  0  0  0  0  0
    5.5501  -10.1653    1.8952 H   0  0  0  0  0  0  0  0  0  0  0  0
    4.6670  -10.7905    3.2778 H   0  0  0  0  0  0  0  0  0  0  0  0
    6.0241   -9.7042    3.5306 H   0  0  0  0  0  0  0  0  0  0  0  0
    5.7823   -7.3411    3.2724 H   0  0  0  0  0  0  0  0  0  0  0  0
    4.7880   -7.7159    0.6735 H   0  0  0  0  0  0  0  0  0  0  0  0
    2.5100   -5.7553    6.2851 H   0  0  0  0  0  0  0  0  0  0  0  0
    2.3307   -9.0875    4.8674 H   0  0  0  0  0  0  0  0  0  0  0  0
    3.3389   -8.6053    5.9955 H   0  0  0  0  0  0  0  0  0  0  0  0
    1.5251   -9.4653    7.1303 H   0  0  0  0  0  0  0  0  0  0  0  0
    0.2872   -8.9832    6.0654 H   0  0  0  0  0  0  0  0  0  0  0  0
  1  2  1  0
  1 43  1  0
  1 44  1  0
  1 45  1  0
  2 42  1  0
  2  3  2  3
  3  4  1  0
  3 46  1  0
  4 28  1  0
  4  5  1  0
  4 47  1  1
  5  6  1  0
  5 48  1  0
  5 49  1  0
  6 11  1  0
  6  7  1  0
  6 50  1  1
  7  8  1  0
  7 14  1  0
  7 51  1  1
  8  9  1  0
  9 10  2  0
  9 11  1  0
 11 13  1  0
 11 12  1  0
 12 13  1  0
 12 52  1  0
 12 53  1  0
 13 54  1  0
 13 55  1  0
 14 39  1  0
 14 15  1  6
 16 14  1  1
 15 56  1  0
 16 24  1  0
 16 37  1  0
 16 17  1  0
 17 18  1  0
 17 19  1  0
 17 57  1  1
 18 58  1  0
 19 20  1  0
 19 59  1  0
 19 60  1  0
 20 21  1  0
 20 22  1  0
 20 23  1  0
 21 61  1  0
 21 62  1  0
 21 63  1  0
 22 64  1  0
 22 65  1  0
 22 66  1  0
 23 24  1  0
 23 67  1  0
 23 68  1  0
 24 25  1  0
 24 69  1  6
 25 33  1  0
 25 26  2  0
 27 26  1  6
 26 70  1  0
 27 28  1  0
 27 29  1  0
 27 39  1  0
 29 32  1  0
 29 30  1  6
 29 31  1  0
 30 71  1  0
 30 72  1  0
 30 73  1  0
 31 32  1  0
 32 33  1  0
 32 74  1  6
 33 34  1  0
 33 75  1  6
 34 35  1  0
 34 76  1  0
 34 77  1  0
 35 36  1  0
 35 37  1  0
 35 78  1  1
 36 79  1  0
 36 80  1  0
 36 81  1  0
 37 38  1  0
 37 82  1  1
 38 83  1  0
 39 40  1  1
 39 41  1  0
 40 84  1  0
 41 42  1  0
 41 85  1  0
 41 86  1  0
 42 87  1  0
 42 88  1  0
M  END
>  <i_m_ct_stereo_status>  (54) 
1

>  <s_m_source_file>  (54) 
/var/tmp/pbs.5076255.sched01/tmpnv36izql/0kitkh5ys.sdf

>  <i_m_source_file_index>  (54) 
21

>  <i_lp_mmshare_version>  (54) 
48012

>  <i_f3d_flags>  (54) 
0

>  <s_epik_input>  (54) 
W0NIMl0xW0NAQEhdKE8yKVxbQ0hdPUMoXFtDSDNdKVtDSDJdW0NIMl1bQ0BdMyhbT0hdKVtDQEBdMihbQ0hdNClbQ0BAXShPNSkoW0NIM10pW0NASF01W0NASF0oW0NIMl1bQ0BASF0oW0NIM10pW0NASF02W09IXSlDPTRbQ0BASF0oW0NIMl1DKFtDSDNdKShbQ0gzXSlbQ0gyXVtDQEBIXTdbT0hdKVtDQEBdNjdbQ0BdMyhbT0hdKVtDQEBIXShPQzg9TylbQ0BIXTFDODlbQ0gyXVtDSDJdOQ==

>  <s_epik_cmdline>  (54) 
J2VwaWtfcHl0aG9uJywgJy1waHQnLCAnMi4wJywgJy1waCcsICc3LjAnLCAnLXRuJywgJzgnLCAnLW1hJywgJzIwMCcsICctaW1hZScsICc8aW5maWxlLm1hZT4nLCAnLW9tYWUnLCAnPG91dGZpbGUubWFlPic=

>  <r_lp_tautomer_probability>  (54) 
1

>  <r_epik_Ionization_Penalty>  (54) 
1.04914e-06

>  <r_epik_Ionization_Penalty_Charging>  (54) 
0

>  <r_epik_Ionization_Penalty_Neutral>  (54) 
1.04914e-06

>  <r_epik_State_Penalty>  (54) 
-0

>  <r_epik_Charging_Adjusted_Penalty>  (54) 
0

>  <i_epik_Tot_Q>  (54) 
0

>  <i_epik_Tot_abs_Q>  (54) 
0

>  <s_epik_Chemistry_Notes>  (54) 
This compound has an ester and may undergo hydrolysis at high or low pH.

>  <s_lp_Force_Field>  (54) 
OPLS3e

>  <r_lp_Energy>  (54) 
305.42

>  <b_lp_Chiralities_Consistent>  (54) 
1

>  <s_lp_Variant>  (54) 
14:0-1

>  <s_i_glide_gridfile>  (54) 
pfpi4k_grid

>  <i_i_glide_lignum>  (54) 
21

>  <i_i_glide_rotatable_bonds>  (54) 
4

>  <r_i_docking_score>  (54) 
-1.903

>  <r_i_glide_ligand_efficiency>  (54) 
-0.0453096

>  <r_i_glide_ligand_efficiency_sa>  (54) 
-0.157498

>  <r_i_glide_ligand_efficiency_ln>  (54) 
-0.401675

>  <r_i_glide_gscore>  (54) 
-1.903

>  <r_i_glide_lipo>  (54) 
-0.0997138

>  <r_i_glide_hbond>  (54) 
0

>  <r_i_glide_metal>  (54) 
-0

>  <r_i_glide_rewards>  (54) 
-0.012431

>  <r_i_glide_evdw>  (54) 
-34.2067

>  <r_i_glide_ecoul>  (54) 
-0.536848

>  <r_i_glide_erotb>  (54) 
0

>  <r_i_glide_esite>  (54) 
0

>  <r_i_glide_emodel>  (54) 
-38.2526

>  <r_i_glide_energy>  (54) 
-34.7435

>  <r_i_glide_einternal>  (54) 
0.357227

>  <r_i_glide_intrahb_reward>  (54) 
-0

>  <i_i_glide_confnum>  (54) 
2

>  <i_i_glide_posenum>  (54) 
1

>  <r_i_glide_eff_state_penalty>  (54) 
0

>  <ligand_id>  (54) 
14

>  <original_smiles>  (54) 
CC1=CC2CC3C(OC(=O)C34CC4)C3(O)C45C(O)CC(C)(C)CC4C4=CC(O2)(C2(C)OC2C4CC(C)C5O)C3(O)CC1

>  <smiles>  (54) 
[H]OC1([H])C([H])([H])C(C([H])([H])[H])(C([H])([H])[H])C([H])([H])C2([H])C3=C([H])C45OC6([H])C([H])=C(C([H])([H])[H])C([H])([H])C([H])([H])C4(O[H])C(O[H])(C4([H])OC(=O)C7(C([H])([H])C7([H])[H])C4([H])C6([H])[H])C12C([H])(O[H])C([H])(C([H])([H])[H])C([H])([H])C3([H])C1([H])OC15C([H])([H])[H]

$$$$
15:0:0
     RDKit          3D

 98104  0  0  1  0  0  0  0  0999 V2000
   -0.1638    0.4659   10.8479 C   0  0  0  0  0  0  0  0  0  0  0  0
   -0.1430   -0.1600    9.5611 O   0  0  0  0  0  0  0  0  0  0  0  0
    1.0962   -0.0173    8.8607 C   0  0  2  0  0  0  0  0  0  0  0  0
    1.1889    1.2014    7.8183 C   0  0  1  0  0  0  0  0  0  0  0  0
    0.4020    0.9345    6.5096 C   0  0  2  0  0  0  0  0  0  0  0  0
    1.2464    0.4675    5.2364 C   0  0  0  0  0  0  0  0  0  0  0  0
    2.4606   -0.5351    5.2607 C   0  0  0  0  0  0  0  0  0  0  0  0
    2.3824   -2.1069    5.5284 C   0  0  1  0  0  0  0  0  0  0  0  0
    3.6797   -2.5955    6.2751 C   0  0  0  0  0  0  0  0  0  0  0  0
    3.8985   -2.3713    7.8296 C   0  0  1  0  0  0  0  0  0  0  0  0
    4.8458   -1.1840    8.1012 C   0  0  0  0  0  0  0  0  0  0  0  0
    2.6293   -2.2911    8.7275 C   0  0  1  0  0  0  0  0  0  0  0  0
    1.5299   -1.3686    8.2185 C   0  0  1  0  0  0  0  0  0  0  0  0
    0.7962   -2.6287    7.6011 C   0  0  1  0  0  0  0  0  0  0  0  0
   -0.6051   -2.8814    7.9094 O   0  0  0  0  0  0  0  0  0  0  0  0
   -1.1494   -4.1903    7.7242 C   0  0  0  0  0  0  0  0  0  0  0  0
    1.0453   -2.8242    6.0325 C   0  0  0  0  0  0  0  0  0  0  0  0
   -0.1634   -2.3192    5.1962 C   0  0  0  0  0  0  0  0  0  0  0  0
    1.1265   -4.3297    5.5876 C   0  0  0  0  0  0  0  0  0  0  0  0
    1.5964   -3.4298    8.7235 C   0  0  0  0  0  0  0  0  0  0  0  0
    2.1785   -4.8478    8.4686 C   0  0  0  0  0  0  0  0  0  0  0  0
    0.8671   -3.5531   10.0808 C   0  0  0  0  0  0  0  0  0  0  0  0
   -0.5578    2.1270    6.1829 C   0  0  2  0  0  0  0  0  0  0  0  0
   -1.4000    1.7083    4.9455 C   0  0  0  0  0  0  0  0  0  0  0  0
    0.1119    3.5425    6.1442 C   0  0  1  0  0  0  0  0  0  0  0  0
   -1.3052    4.0464    6.5077 C   0  0  0  0  0  0  0  0  0  0  0  0
   -1.3468    2.7813    7.3906 C   0  0  1  0  0  0  0  0  0  0  0  0
   -2.7199    2.1398    7.6623 C   0  0  0  0  0  0  0  0  0  0  0  0
   -0.5301    2.8892    8.7625 C   0  0  2  0  0  0  0  0  0  0  0  0
   -0.7207    4.2542    9.5936 C   0  0  0  0  0  0  0  0  0  0  0  0
   -2.2168    4.6550    9.6859 C   0  0  0  0  0  0  0  0  0  0  0  0
   -0.3246    4.0794   11.0955 C   0  0  0  0  0  0  0  0  0  0  0  0
    0.0823    5.4598    8.9997 C   0  0  0  0  0  0  0  0  0  0  0  0
    1.1269    5.2031    7.8631 C   0  0  0  0  0  0  0  0  0  0  0  0
    1.2254    3.7588    7.2349 C   0  0  2  0  0  0  0  0  0  0  0  0
    2.6407    3.6896    6.5817 C   0  0  0  0  0  0  0  0  0  0  0  0
    1.0071    2.6746    8.3669 C   0  0  2  0  0  0  0  0  0  0  0  0
    2.0750    2.8540    9.4910 C   0  0  0  0  0  0  0  0  0  0  0  0
   -1.1333    0.2902   11.3192 H   0  0  0  0  0  0  0  0  0  0  0  0
   -0.0252    1.4934   10.8026 H   0  0  0  0  0  0  0  0  0  0  0  0
    0.6200    0.0951   11.5225 H   0  0  0  0  0  0  0  0  0  0  0  0
    1.8625    0.1955    9.6072 H   0  0  0  0  0  0  0  0  0  0  0  0
    2.2354    1.1985    7.5096 H   0  0  0  0  0  0  0  0  0  0  0  0
   -0.2548    0.1172    6.7955 H   0  0  0  0  0  0  0  0  0  0  0  0
    0.5795    0.1064    4.4562 H   0  0  0  0  0  0  0  0  0  0  0  0
    1.6457    1.3806    4.7891 H   0  0  0  0  0  0  0  0  0  0  0  0
    2.9092   -0.4517    4.2651 H   0  0  0  0  0  0  0  0  0  0  0  0
    3.2486   -0.0919    5.8736 H   0  0  0  0  0  0  0  0  0  0  0  0
    2.5036   -2.5095    4.5254 H   0  0  0  0  0  0  0  0  0  0  0  0
    3.8093   -3.6550    6.0926 H   0  0  0  0  0  0  0  0  0  0  0  0
    4.5415   -2.1771    5.7568 H   0  0  0  0  0  0  0  0  0  0  0  0
    4.4744   -3.2331    8.1760 H   0  0  0  0  0  0  0  0  0  0  0  0
    4.3939   -0.2309    7.8330 H   0  0  0  0  0  0  0  0  0  0  0  0
    5.7787   -1.2858    7.5510 H   0  0  0  0  0  0  0  0  0  0  0  0
    5.1046   -1.1313    9.1603 H   0  0  0  0  0  0  0  0  0  0  0  0
    2.9078   -2.0421    9.7470 H   0  0  0  0  0  0  0  0  0  0  0  0
    2.1227   -0.9079    7.4906 H   0  0  0  0  0  0  0  0  0  0  0  0
   -2.0483   -4.3423    8.3323 H   0  0  0  0  0  0  0  0  0  0  0  0
   -0.4810   -5.0042    7.9986 H   0  0  0  0  0  0  0  0  0  0  0  0
   -1.4526   -4.3904    6.6948 H   0  0  0  0  0  0  0  0  0  0  0  0
   -0.9853   -3.0289    5.2142 H   0  0  0  0  0  0  0  0  0  0  0  0
    0.0860   -2.1939    4.1468 H   0  0  0  0  0  0  0  0  0  0  0  0
   -0.6207   -1.4010    5.5424 H   0  0  0  0  0  0  0  0  0  0  0  0
    0.3772   -4.9584    6.0668 H   0  0  0  0  0  0  0  0  0  0  0  0
    2.0962   -4.7885    5.7562 H   0  0  0  0  0  0  0  0  0  0  0  0
    0.9687   -4.4170    4.5086 H   0  0  0  0  0  0  0  0  0  0  0  0
    1.4129   -5.5598    8.1627 H   0  0  0  0  0  0  0  0  0  0  0  0
    2.6531   -5.2417    9.3704 H   0  0  0  0  0  0  0  0  0  0  0  0
    2.9508   -4.8530    7.7189 H   0  0  0  0  0  0  0  0  0  0  0  0
    0.1176   -4.3436   10.0715 H   0  0  0  0  0  0  0  0  0  0  0  0
    0.3403   -2.6347   10.3561 H   0  0  0  0  0  0  0  0  0  0  0  0
    1.5479   -3.7824   10.8988 H   0  0  0  0  0  0  0  0  0  0  0  0
   -2.2940    2.3060    4.7714 H   0  0  0  0  0  0  0  0  0  0  0  0
   -1.7770    0.6890    5.0496 H   0  0  0  0  0  0  0  0  0  0  0  0
   -0.8317    1.7669    4.0168 H   0  0  0  0  0  0  0  0  0  0  0  0
    0.4096    3.8654    5.1495 H   0  0  0  0  0  0  0  0  0  0  0  0
   -1.3443    4.9965    7.0126 H   0  0  0  0  0  0  0  0  0  0  0  0
   -2.0226    4.0994    5.6955 H   0  0  0  0  0  0  0  0  0  0  0  0
   -3.2971    2.6449    8.4312 H   0  0  0  0  0  0  0  0  0  0  0  0
   -2.5754    1.1142    8.0002 H   0  0  0  0  0  0  0  0  0  0  0  0
   -3.3520    2.1083    6.7867 H   0  0  0  0  0  0  0  0  0  0  0  0
   -0.9248    2.1535    9.3199 H   0  0  0  0  0  0  0  0  0  0  0  0
   -2.3380    5.5741   10.2579 H   0  0  0  0  0  0  0  0  0  0  0  0
   -2.7945    3.8880   10.2024 H   0  0  0  0  0  0  0  0  0  0  0  0
   -2.6821    4.8344    8.7226 H   0  0  0  0  0  0  0  0  0  0  0  0
   -0.7093    4.9020   11.7080 H   0  0  0  0  0  0  0  0  0  0  0  0
    0.7462    4.1011   11.2866 H   0  0  0  0  0  0  0  0  0  0  0  0
   -0.7279    3.1629   11.5323 H   0  0  0  0  0  0  0  0  0  0  0  0
   -0.6130    6.2268    8.6411 H   0  0  0  0  0  0  0  0  0  0  0  0
    0.6008    5.9786    9.7994 H   0  0  0  0  0  0  0  0  0  0  0  0
    0.9492    5.9148    7.0628 H   0  0  0  0  0  0  0  0  0  0  0  0
    2.1074    5.4957    8.2548 H   0  0  0  0  0  0  0  0  0  0  0  0
    3.4278    3.8150    7.3143 H   0  0  0  0  0  0  0  0  0  0  0  0
    2.7640    4.4824    5.8451 H   0  0  0  0  0  0  0  0  0  0  0  0
    2.8227    2.7518    6.0653 H   0  0  0  0  0  0  0  0  0  0  0  0
    2.2606    3.8906    9.7741 H   0  0  0  0  0  0  0  0  0  0  0  0
    3.0477    2.4696    9.1884 H   0  0  0  0  0  0  0  0  0  0  0  0
    1.8365    2.3260   10.4068 H   0  0  0  0  0  0  0  0  0  0  0  0
  1  2  1  0
  1 39  1  0
  1 40  1  0
  1 41  1  0
  2  3  1  0
  3 13  1  0
  3  4  1  0
  3 42  1  1
  4 37  1  0
  4  5  1  0
  4 43  1  6
  5  6  1  0
  5 23  1  0
  5 44  1  1
  6  7  1  0
  6 45  1  0
  6 46  1  0
  7  8  1  0
  7 47  1  0
  7 48  1  0
  8 17  1  0
  8  9  1  0
  8 49  1  6
  9 10  1  0
  9 50  1  0
  9 51  1  0
 10 11  1  0
 10 12  1  0
 10 52  1  1
 11 53  1  0
 11 54  1  0
 11 55  1  0
 12 20  1  0
 12 13  1  0
 12 56  1  1
 13 14  1  0
 13 57  1  6
 14 15  1  6
 14 17  1  0
 14 20  1  0
 15 16  1  0
 16 58  1  0
 16 59  1  0
 16 60  1  0
 17 18  1  0
 17 19  1  0
 18 61  1  0
 18 62  1  0
 18 63  1  0
 19 64  1  0
 19 65  1  0
 19 66  1  0
 20 21  1  0
 20 22  1  0
 21 67  1  0
 21 68  1  0
 21 69  1  0
 22 70  1  0
 22 71  1  0
 22 72  1  0
 23 27  1  0
 23 24  1  6
 23 25  1  0
 24 73  1  0
 24 74  1  0
 24 75  1  0
 25 35  1  0
 25 26  1  0
 25 76  1  6
 26 27  1  0
 26 77  1  0
 26 78  1  0
 27 28  1  1
 27 29  1  0
 28 79  1  0
 28 80  1  0
 28 81  1  0
 29 37  1  0
 29 30  1  0
 29 82  1  1
 30 31  1  0
 30 32  1  0
 30 33  1  0
 31 83  1  0
 31 84  1  0
 31 85  1  0
 32 86  1  0
 32 87  1  0
 32 88  1  0
 33 34  1  0
 33 89  1  0
 33 90  1  0
 34 35  1  0
 34 91  1  0
 34 92  1  0
 35 36  1  6
 35 37  1  0
 36 93  1  0
 36 94  1  0
 36 95  1  0
 37 38  1  1
 38 96  1  0
 38 97  1  0
 38 98  1  0
M  END
>  <i_m_ct_stereo_status>  (55) 
1

>  <s_m_source_file>  (55) 
/var/tmp/pbs.5076255.sched01/tmpnv36izql/0kitkh5ys.sdf

>  <i_m_source_file_index>  (55) 
23

>  <i_lp_mmshare_version>  (55) 
48012

>  <i_f3d_flags>  (55) 
0

>  <s_epik_input>  (55) 
W0NIM11DMShbQ0gzXSlbQ0gyXVtDSDJdW0NAXTIoW0NIM10pW0NASF0oW0NIMl0zKVtDQF00KFtDSDNdKVtDQEBdMyhbQ0gzXSlbQ0BIXTFbQ0BAXTIoW0NIM10pW0NAQEhdKFtDQEhdNU9bQ0gzXSlbQ0BASF00W0NIMl1bQ0gyXVtDQEhdKEM2KFtDSDNdKVtDSDNdKVtDSDJdW0NAQEhdKFtDSDNdKVtDQEhdKEM3KFtDSDNdKVtDSDNdKVtDQEhdNVtDQEBdNjdPW0NIM10=

>  <s_epik_cmdline>  (55) 
J2VwaWtfcHl0aG9uJywgJy1waHQnLCAnMi4wJywgJy1waCcsICc3LjAnLCAnLXRuJywgJzgnLCAnLW1hJywgJzIwMCcsICctaW1hZScsICc8aW5maWxlLm1hZT4nLCAnLW9tYWUnLCAnPG91dGZpbGUubWFlPic=

>  <r_lp_tautomer_probability>  (55) 
1

>  <r_epik_Ionization_Penalty>  (55) 
1.166e-10

>  <r_epik_Ionization_Penalty_Charging>  (55) 
0

>  <r_epik_Ionization_Penalty_Neutral>  (55) 
1.166e-10

>  <r_epik_State_Penalty>  (55) 
-0

>  <r_epik_Charging_Adjusted_Penalty>  (55) 
0

>  <i_epik_Tot_Q>  (55) 
0

>  <i_epik_Tot_abs_Q>  (55) 
0

>  <s_lp_Force_Field>  (55) 
OPLS3e

>  <r_lp_Energy>  (55) 
221.766

>  <b_lp_Chiralities_Consistent>  (55) 
1

>  <s_lp_Variant>  (55) 
15:0-1

>  <s_i_glide_gridfile>  (55) 
pfpi4k_grid

>  <i_i_glide_lignum>  (55) 
23

>  <i_i_glide_rotatable_bonds>  (55) 
2

>  <r_i_docking_score>  (55) 
-0.487114

>  <r_i_glide_ligand_efficiency>  (55) 
-0.0128188

>  <r_i_glide_ligand_efficiency_sa>  (55) 
-0.0430965

>  <r_i_glide_ligand_efficiency_ln>  (55) 
-0.105036

>  <r_i_glide_gscore>  (55) 
-0.487114

>  <r_i_glide_lipo>  (55) 
-0.0223201

>  <r_i_glide_hbond>  (55) 
-0.100248

>  <r_i_glide_metal>  (55) 
-0

>  <r_i_glide_rewards>  (55) 
0

>  <r_i_glide_evdw>  (55) 
-14.5956

>  <r_i_glide_ecoul>  (55) 
-4.06799

>  <r_i_glide_erotb>  (55) 
0

>  <r_i_glide_esite>  (55) 
0

>  <r_i_glide_emodel>  (55) 
-11.3815

>  <r_i_glide_energy>  (55) 
-18.6636

>  <r_i_glide_einternal>  (55) 
2.78105

>  <r_i_glide_intrahb_reward>  (55) 
-0

>  <i_i_glide_confnum>  (55) 
1

>  <i_i_glide_posenum>  (55) 
31

>  <r_i_glide_eff_state_penalty>  (55) 
0

>  <ligand_id>  (55) 
15

>  <original_smiles>  (55) 
COC1C2C(CCC3CC(C)C4C1C(OC)(C3(C)C)C4(C)C)C1(C)C3CC1(C)C1C(C)(C)CCC3(C)C21C

>  <smiles>  (55) 
[H]C([H])([H])OC1([H])C2([H])C3([H])C([H])(C([H])([H])[H])C([H])([H])C([H])(C([H])([H])C([H])([H])C4([H])C1([H])C1(C([H])([H])[H])C5([H])C(C([H])([H])[H])(C([H])([H])[H])C([H])([H])C([H])([H])C1(C([H])([H])[H])C1([H])C([H])([H])C5(C([H])([H])[H])C41C([H])([H])[H])C(C([H])([H])[H])(C([H])([H])[H])C2(OC([H])([H])[H])C3(C([H])([H])[H])C([H])([H])[H]

$$$$
16:0:0
     RDKit          3D

 45 50  0  0  1  0  0  0  0  0999 V2000
    2.3507    0.7939   -5.4335 C   0  0  0  0  0  0  0  0  0  0  0  0
    3.7092    0.1143   -5.4761 C   0  0  0  0  0  0  0  0  0  0  0  0
    3.9898   -0.8807   -4.3522 C   0  0  2  0  0  0  0  0  0  0  0  0
    2.9534   -1.8726   -3.8683 C   0  0  2  0  0  0  0  0  0  0  0  0
    3.4024   -0.7431   -2.9723 C   0  0  1  0  0  0  0  0  0  0  0  0
    3.8484   -1.4056   -1.6910 C   0  0  2  0  0  0  0  0  0  0  0  0
    5.3434   -1.8090   -1.6702 C   0  0  1  0  0  0  0  0  0  0  0  0
    5.8428   -2.4956   -0.3731 C   0  0  1  0  0  0  0  0  0  0  0  0
    4.9493   -2.3785    0.8505 C   0  0  0  0  0  0  0  0  0  0  0  0
    3.8006   -3.0490    0.7013 C   0  0  0  0  0  0  0  0  0  0  0  0
    2.6832   -3.2386    1.7331 C   0  0  0  0  0  0  0  0  0  0  0  0
    2.9629   -2.5547    3.0882 C   0  0  0  0  0  0  0  0  0  0  0  0
    2.3362   -4.7262    1.9665 C   0  0  0  0  0  0  0  0  0  0  0  0
    3.7048   -3.6681   -0.6844 C   0  0  2  0  0  0  0  0  0  0  0  0
    5.2096   -3.7258   -1.0115 C   0  0  1  0  0  0  0  0  0  0  0  0
    5.6035   -3.1788   -2.3703 C   0  0  1  0  0  0  0  0  0  0  0  0
    4.6181   -3.6902   -3.4237 C   0  0  0  0  0  0  0  0  0  0  0  0
    3.1935   -3.1400   -3.0828 C   0  0  1  0  0  0  0  0  0  0  0  0
    3.1080   -2.6983   -1.6550 N   0  0  2  0  0  0  0  0  0  0  0  0
    2.2799    1.5344   -6.2231 H   0  0  0  0  0  0  0  0  0  0  0  0
    2.2471    1.3331   -4.5141 H   0  0  0  0  0  0  0  0  0  0  0  0
    1.5242    0.0935   -5.4934 H   0  0  0  0  0  0  0  0  0  0  0  0
    3.8090   -0.3953   -6.4309 H   0  0  0  0  0  0  0  0  0  0  0  0
    4.4710    0.8910   -5.4374 H   0  0  0  0  0  0  0  0  0  0  0  0
    5.0136   -1.2277   -4.3819 H   0  0  0  0  0  0  0  0  0  0  0  0
    1.9477   -1.8017   -4.2613 H   0  0  0  0  0  0  0  0  0  0  0  0
    2.6619    0.0263   -2.8054 H   0  0  0  0  0  0  0  0  0  0  0  0
    3.5961   -0.7530   -0.8562 H   0  0  0  0  0  0  0  0  0  0  0  0
    6.0264   -1.0417   -2.0115 H   0  0  0  0  0  0  0  0  0  0  0  0
    6.9317   -2.5792   -0.2323 H   0  0  0  0  0  0  0  0  0  0  0  0
    5.2502   -1.8276    1.7370 H   0  0  0  0  0  0  0  0  0  0  0  0
    1.8133   -2.7466    1.3084 H   0  0  0  0  0  0  0  0  0  0  0  0
    3.0657   -1.4757    2.9778 H   0  0  0  0  0  0  0  0  0  0  0  0
    3.8643   -2.9413    3.5673 H   0  0  0  0  0  0  0  0  0  0  0  0
    2.1386   -2.7267    3.7852 H   0  0  0  0  0  0  0  0  0  0  0  0
    2.0207   -5.2356    1.0556 H   0  0  0  0  0  0  0  0  0  0  0  0
    1.5072   -4.8249    2.6706 H   0  0  0  0  0  0  0  0  0  0  0  0
    3.1732   -5.2898    2.3876 H   0  0  0  0  0  0  0  0  0  0  0  0
    3.2464   -4.6506   -0.7000 H   0  0  0  0  0  0  0  0  0  0  0  0
    5.7216   -4.6414   -0.7290 H   0  0  0  0  0  0  0  0  0  0  0  0
    6.6663   -3.3674   -2.5834 H   0  0  0  0  0  0  0  0  0  0  0  0
    4.9317   -3.4547   -4.4428 H   0  0  0  0  0  0  0  0  0  0  0  0
    4.6195   -4.7786   -3.3937 H   0  0  0  0  0  0  0  0  0  0  0  0
    2.4145   -3.8571   -3.3335 H   0  0  0  0  0  0  0  0  0  0  0  0
    2.1519   -2.4663   -1.4260 H   0  0  0  0  0  0  0  0  0  0  0  0
  1  2  1  0
  1 20  1  0
  1 21  1  0
  1 22  1  0
  2  3  1  0
  2 23  1  0
  2 24  1  0
  3  5  1  0
  3  4  1  0
  3 25  1  1
  4 18  1  0
  4  5  1  0
  4 26  1  6
  5  6  1  0
  5 27  1  1
  6 19  1  0
  6  7  1  0
  6 28  1  1
  7 16  1  0
  7  8  1  0
  7 29  1  6
  8 15  1  0
  8  9  1  0
  8 30  1  1
  9 10  2  0
  9 31  1  0
 10 11  1  0
 10 14  1  0
 11 12  1  0
 11 13  1  0
 11 32  1  0
 12 33  1  0
 12 34  1  0
 12 35  1  0
 13 36  1  0
 13 37  1  0
 13 38  1  0
 14 19  1  0
 14 15  1  0
 14 39  1  1
 15 16  1  0
 15 40  1  1
 16 17  1  0
 16 41  1  6
 17 18  1  0
 17 42  1  0
 17 43  1  0
 18 19  1  0
 18 44  1  6
 19 45  1  1
M  CHG  1  19   1
M  END
>  <i_m_ct_stereo_status>  (56) 
1

>  <s_m_source_file>  (56) 
/var/tmp/pbs.5076255.sched01/tmpnv36izql/0kitkh5ys.sdf

>  <i_m_source_file_index>  (56) 
25

>  <i_lp_mmshare_version>  (56) 
48012

>  <i_f3d_flags>  (56) 
0

>  <s_epik_input>  (56) 
W0NIM11bQ0gyXVtDQEhdMVtDQEBIXShbQ0BASF0xMilbQ0hdM1tDQEhdNFtDQEBIXTVbQ0BIXTZbQ0BASF0oQyg9W0NIXTUpW0NIXShbQ0gzXSlbQ0gzXSlOM1tDSF0yW0NIMl1bQ0BASF00Ng==

>  <s_epik_cmdline>  (56) 
J2VwaWtfcHl0aG9uJywgJy1waHQnLCAnMi4wJywgJy1waCcsICc3LjAnLCAnLXRuJywgJzgnLCAnLW1hJywgJzIwMCcsICctaW1hZScsICc8aW5maWxlLm1hZT4nLCAnLW9tYWUnLCAnPG91dGZpbGUubWFlPic=

>  <r_lp_tautomer_probability>  (56) 
1

>  <r_epik_Ionization_Penalty>  (56) 
7.31894e-05

>  <r_epik_Ionization_Penalty_Charging>  (56) 
7.31894e-05

>  <r_epik_Ionization_Penalty_Neutral>  (56) 
0

>  <r_epik_State_Penalty>  (56) 
-0

>  <r_epik_Charging_Adjusted_Penalty>  (56) 
7.31894e-05

>  <i_epik_Tot_Q>  (56) 
1

>  <i_epik_Tot_abs_Q>  (56) 
1

>  <s_lp_Force_Field>  (56) 
OPLS3e

>  <r_lp_Energy>  (56) 
49.3759

>  <b_lp_Chiralities_Consistent>  (56) 
1

>  <s_lp_Variant>  (56) 
16:0-1

>  <s_i_glide_gridfile>  (56) 
pfpi4k_grid

>  <i_i_glide_lignum>  (56) 
25

>  <i_i_glide_rotatable_bonds>  (56) 
2

>  <r_i_docking_score>  (56) 
-4.13391

>  <r_i_glide_ligand_efficiency>  (56) 
-0.217574

>  <r_i_glide_ligand_efficiency_sa>  (56) 
-0.580575

>  <r_i_glide_ligand_efficiency_ln>  (56) 
-1.04803

>  <r_i_glide_gscore>  (56) 
-4.13391

>  <r_i_glide_lipo>  (56) 
-0.661966

>  <r_i_glide_hbond>  (56) 
-0.153775

>  <r_i_glide_metal>  (56) 
-0

>  <r_i_glide_rewards>  (56) 
-1.66087

>  <r_i_glide_evdw>  (56) 
-20.1279

>  <r_i_glide_ecoul>  (56) 
-4.12984

>  <r_i_glide_erotb>  (56) 
0

>  <r_i_glide_esite>  (56) 
-0.0314286

>  <r_i_glide_emodel>  (56) 
-29.6308

>  <r_i_glide_energy>  (56) 
-24.2577

>  <r_i_glide_einternal>  (56) 
2.5103

>  <r_i_glide_intrahb_reward>  (56) 
-0

>  <i_i_glide_confnum>  (56) 
2

>  <i_i_glide_posenum>  (56) 
4

>  <r_i_glide_eff_state_penalty>  (56) 
0

>  <ligand_id>  (56) 
16

>  <original_smiles>  (56) 
CCC1C2C1C1C3C4C=C(C(C)C)C5C4C3CC2N51

>  <smiles>  (56) 
[H]C1=C(C([H])(C([H])([H])[H])C([H])([H])[H])C2([H])C3([H])C1([H])C1([H])C3([H])C([H])([H])C3([H])C4([H])C([H])(C([H])([H])C([H])([H])[H])C4([H])C1([H])[N+]23[H]

$$$$
16:0:1
     RDKit          3D

 45 50  0  0  1  0  0  0  0  0999 V2000
    3.6132    0.1818   -5.2772 C   0  0  0  0  0  0  0  0  0  0  0  0
    2.6196   -0.3261   -4.2397 C   0  0  0  0  0  0  0  0  0  0  0  0
    3.2951   -1.0489   -3.0788 C   0  0  2  0  0  0  0  0  0  0  0  0
    3.9349   -2.4161   -3.2763 C   0  0  2  0  0  0  0  0  0  0  0  0
    2.6738   -2.2795   -2.4565 C   0  0  1  0  0  0  0  0  0  0  0  0
    3.0159   -2.8823   -1.0998 C   0  0  2  0  0  0  0  0  0  0  0  0
    3.5982   -1.8822   -0.0661 C   0  0  1  0  0  0  0  0  0  0  0  0
    3.9511   -2.4831    1.3272 C   0  0  1  0  0  0  0  0  0  0  0  0
    3.3666   -3.8477    1.6614 C   0  0  0  0  0  0  0  0  0  0  0  0
    3.8995   -4.8277    0.9088 C   0  0  0  0  0  0  0  0  0  0  0  0
    3.6436   -6.3331    0.9881 C   0  0  0  0  0  0  0  0  0  0  0  0
    2.4537   -6.7059    1.8923 C   0  0  0  0  0  0  0  0  0  0  0  0
    4.8979   -7.1225    1.4140 C   0  0  0  0  0  0  0  0  0  0  0  0
    4.8636   -4.2445   -0.1117 C   0  0  2  0  0  0  0  0  0  0  0  0
    5.2162   -2.9340    0.6116 C   0  0  1  0  0  0  0  0  0  0  0  0
    5.1395   -1.6770   -0.2379 C   0  0  1  0  0  0  0  0  0  0  0  0
    5.7757   -1.9474   -1.6070 C   0  0  0  0  0  0  0  0  0  0  0  0
    4.9612   -3.0546   -2.3475 C   0  0  1  0  0  0  0  0  0  0  0  0
    4.1306   -3.8443   -1.3774 N   0  0  2  0  0  0  0  0  0  0  0  0
    3.1069    0.7216   -6.0789 H   0  0  0  0  0  0  0  0  0  0  0  0
    4.1345   -0.6602   -5.7158 H   0  0  0  0  0  0  0  0  0  0  0  0
    4.3452    0.8541   -4.8345 H   0  0  0  0  0  0  0  0  0  0  0  0
    2.0842    0.5413   -3.8556 H   0  0  0  0  0  0  0  0  0  0  0  0
    1.8881   -0.9794   -4.7227 H   0  0  0  0  0  0  0  0  0  0  0  0
    3.7744   -0.3541   -2.3940 H   0  0  0  0  0  0  0  0  0  0  0  0
    3.8274   -2.8986   -4.2461 H   0  0  0  0  0  0  0  0  0  0  0  0
    1.7691   -2.6746   -2.9125 H   0  0  0  0  0  0  0  0  0  0  0  0
    2.1287   -3.3854   -0.7115 H   0  0  0  0  0  0  0  0  0  0  0  0
    3.0525   -0.9405    0.0192 H   0  0  0  0  0  0  0  0  0  0  0  0
    4.1336   -1.7766    2.1412 H   0  0  0  0  0  0  0  0  0  0  0  0
    2.6425   -3.9785    2.4520 H   0  0  0  0  0  0  0  0  0  0  0  0
    3.4029   -6.6485   -0.0239 H   0  0  0  0  0  0  0  0  0  0  0  0
    1.5238   -6.2711    1.5277 H   0  0  0  0  0  0  0  0  0  0  0  0
    2.6032   -6.3866    2.9250 H   0  0  0  0  0  0  0  0  0  0  0  0
    2.3139   -7.7878    1.9155 H   0  0  0  0  0  0  0  0  0  0  0  0
    5.7383   -6.9665    0.7392 H   0  0  0  0  0  0  0  0  0  0  0  0
    4.6937   -8.1941    1.4068 H   0  0  0  0  0  0  0  0  0  0  0  0
    5.2273   -6.8733    2.4235 H   0  0  0  0  0  0  0  0  0  0  0  0
    5.7298   -4.8728   -0.3009 H   0  0  0  0  0  0  0  0  0  0  0  0
    6.0819   -2.9816    1.2757 H   0  0  0  0  0  0  0  0  0  0  0  0
    5.5249   -0.8034    0.2939 H   0  0  0  0  0  0  0  0  0  0  0  0
    5.8566   -1.0385   -2.2045 H   0  0  0  0  0  0  0  0  0  0  0  0
    6.7979   -2.3060   -1.4620 H   0  0  0  0  0  0  0  0  0  0  0  0
    5.6208   -3.7092   -2.9182 H   0  0  0  0  0  0  0  0  0  0  0  0
    3.7452   -4.6581   -1.8443 H   0  0  0  0  0  0  0  0  0  0  0  0
  1  2  1  0
  1 20  1  0
  1 21  1  0
  1 22  1  0
  2  3  1  0
  2 23  1  0
  2 24  1  0
  3  5  1  0
  3  4  1  0
  3 25  1  1
  4 18  1  0
  4  5  1  0
  4 26  1  6
  5  6  1  0
  5 27  1  6
  6 19  1  0
  6  7  1  0
  6 28  1  1
  7 16  1  0
  7  8  1  0
  7 29  1  1
  8 15  1  0
  8  9  1  0
  8 30  1  1
  9 10  2  0
  9 31  1  0
 10 11  1  0
 10 14  1  0
 11 12  1  0
 11 13  1  0
 11 32  1  0
 12 33  1  0
 12 34  1  0
 12 35  1  0
 13 36  1  0
 13 37  1  0
 13 38  1  0
 14 19  1  0
 14 15  1  0
 14 39  1  6
 15 16  1  0
 15 40  1  1
 16 17  1  0
 16 41  1  1
 17 18  1  0
 17 42  1  0
 17 43  1  0
 18 19  1  0
 18 44  1  6
 19 45  1  6
M  CHG  1  19   1
M  END
>  <i_m_ct_stereo_status>  (57) 
1

>  <s_m_source_file>  (57) 
/var/tmp/pbs.5076255.sched01/tmpnv36izql/0kitkh5ys.sdf

>  <i_m_source_file_index>  (57) 
25

>  <i_lp_mmshare_version>  (57) 
48012

>  <i_f3d_flags>  (57) 
0

>  <s_epik_input>  (57) 
W0NIM11bQ0gyXVtDQEhdMVtDQEBIXShbQ0BASF0xMilbQ0hdM1tDQEhdNFtDQEBIXTVbQ0BIXTZbQ0BASF0oQyg9W0NIXTUpW0NIXShbQ0gzXSlbQ0gzXSlOM1tDSF0yW0NIMl1bQ0BASF00Ng==

>  <s_epik_cmdline>  (57) 
J2VwaWtfcHl0aG9uJywgJy1waHQnLCAnMi4wJywgJy1waCcsICc3LjAnLCAnLXRuJywgJzgnLCAnLW1hJywgJzIwMCcsICctaW1hZScsICc8aW5maWxlLm1hZT4nLCAnLW9tYWUnLCAnPG91dGZpbGUubWFlPic=

>  <r_lp_tautomer_probability>  (57) 
1

>  <r_epik_Ionization_Penalty>  (57) 
7.31894e-05

>  <r_epik_Ionization_Penalty_Charging>  (57) 
7.31894e-05

>  <r_epik_Ionization_Penalty_Neutral>  (57) 
0

>  <r_epik_State_Penalty>  (57) 
-0

>  <r_epik_Charging_Adjusted_Penalty>  (57) 
7.31894e-05

>  <i_epik_Tot_Q>  (57) 
1

>  <i_epik_Tot_abs_Q>  (57) 
1

>  <s_lp_Force_Field>  (57) 
OPLS3e

>  <r_lp_Energy>  (57) 
49.3759

>  <b_lp_Chiralities_Consistent>  (57) 
1

>  <s_lp_Variant>  (57) 
16:0-1

>  <s_i_glide_gridfile>  (57) 
pfpi4k_grid

>  <i_i_glide_lignum>  (57) 
25

>  <i_i_glide_rotatable_bonds>  (57) 
2

>  <r_i_docking_score>  (57) 
-4.11132

>  <r_i_glide_ligand_efficiency>  (57) 
-0.216385

>  <r_i_glide_ligand_efficiency_sa>  (57) 
-0.577402

>  <r_i_glide_ligand_efficiency_ln>  (57) 
-1.04231

>  <r_i_glide_gscore>  (57) 
-4.11132

>  <r_i_glide_lipo>  (57) 
-0.802109

>  <r_i_glide_hbond>  (57) 
0

>  <r_i_glide_metal>  (57) 
-0

>  <r_i_glide_rewards>  (57) 
-1.66087

>  <r_i_glide_evdw>  (57) 
-19.6583

>  <r_i_glide_ecoul>  (57) 
-4.20455

>  <r_i_glide_erotb>  (57) 
0

>  <r_i_glide_esite>  (57) 
-0.0347369

>  <r_i_glide_emodel>  (57) 
-30.2448

>  <r_i_glide_energy>  (57) 
-23.8629

>  <r_i_glide_einternal>  (57) 
0.60261

>  <r_i_glide_intrahb_reward>  (57) 
-0

>  <i_i_glide_confnum>  (57) 
1

>  <i_i_glide_posenum>  (57) 
23

>  <r_i_glide_eff_state_penalty>  (57) 
0

>  <ligand_id>  (57) 
16

>  <original_smiles>  (57) 
CCC1C2C1C1C3C4C=C(C(C)C)C5C4C3CC2N51

>  <smiles>  (57) 
[H]C1=C(C([H])(C([H])([H])[H])C([H])([H])[H])C2([H])C3([H])C1([H])C1([H])C3([H])C([H])([H])C3([H])C4([H])C([H])(C([H])([H])C([H])([H])[H])C4([H])C1([H])[N+]23[H]

$$$$
16:0:2
     RDKit          3D

 45 50  0  0  1  0  0  0  0  0999 V2000
    3.7334   -0.2380   -5.0292 C   0  0  0  0  0  0  0  0  0  0  0  0
    2.8628   -0.7840   -3.8979 C   0  0  0  0  0  0  0  0  0  0  0  0
    3.6621   -1.5479   -2.8563 C   0  0  2  0  0  0  0  0  0  0  0  0
    3.8211   -3.0562   -2.9581 C   0  0  2  0  0  0  0  0  0  0  0  0
    2.9777   -2.4550   -1.8616 C   0  0  1  0  0  0  0  0  0  0  0  0
    3.5677   -2.9796   -0.5611 C   0  0  2  0  0  0  0  0  0  0  0  0
    4.7041   -2.1084    0.0436 C   0  0  1  0  0  0  0  0  0  0  0  0
    5.3259   -2.6365    1.3707 C   0  0  1  0  0  0  0  0  0  0  0  0
    4.5499   -3.7046    2.1243 C   0  0  0  0  0  0  0  0  0  0  0  0
    4.5166   -4.8760    1.4616 C   0  0  0  0  0  0  0  0  0  0  0  0
    3.9072   -6.2058    1.9140 C   0  0  0  0  0  0  0  0  0  0  0  0
    3.1542   -6.1062    3.2540 C   0  0  0  0  0  0  0  0  0  0  0  0
    4.9581   -7.3335    1.9859 C   0  0  0  0  0  0  0  0  0  0  0  0
    5.2071   -4.7376    0.1131 C   0  0  2  0  0  0  0  0  0  0  0  0
    6.1157   -3.5382    0.4345 C   0  0  1  0  0  0  0  0  0  0  0  0
    6.0993   -2.4196   -0.5922 C   0  0  1  0  0  0  0  0  0  0  0  0
    6.1582   -3.0247   -1.9973 C   0  0  0  0  0  0  0  0  0  0  0  0
    4.8793   -3.8817   -2.2453 C   0  0  1  0  0  0  0  0  0  0  0  0
    4.2352   -4.2592   -0.9450 N   0  0  2  0  0  0  0  0  0  0  0  0
    3.1449    0.3276   -5.7548 H   0  0  0  0  0  0  0  0  0  0  0  0
    4.2106   -1.0552   -5.5456 H   0  0  0  0  0  0  0  0  0  0  0  0
    4.5109    0.4228   -4.6508 H   0  0  0  0  0  0  0  0  0  0  0  0
    2.3785    0.0585   -3.4010 H   0  0  0  0  0  0  0  0  0  0  0  0
    2.0865   -1.4269   -4.3167 H   0  0  0  0  0  0  0  0  0  0  0  0
    4.4942   -0.9622   -2.4712 H   0  0  0  0  0  0  0  0  0  0  0  0
    3.2717   -3.5868   -3.7345 H   0  0  0  0  0  0  0  0  0  0  0  0
    1.9069   -2.6314   -1.9715 H   0  0  0  0  0  0  0  0  0  0  0  0
    2.7575   -3.1304    0.1541 H   0  0  0  0  0  0  0  0  0  0  0  0
    4.4917   -1.0366    0.0847 H   0  0  0  0  0  0  0  0  0  0  0  0
    5.9543   -1.9389    1.9365 H   0  0  0  0  0  0  0  0  0  0  0  0
    4.1204   -3.5161    3.0977 H   0  0  0  0  0  0  0  0  0  0  0  0
    3.1813   -6.4866    1.1529 H   0  0  0  0  0  0  0  0  0  0  0  0
    2.3162   -5.4124    3.1936 H   0  0  0  0  0  0  0  0  0  0  0  0
    3.8030   -5.7892    4.0726 H   0  0  0  0  0  0  0  0  0  0  0  0
    2.7464   -7.0780    3.5374 H   0  0  0  0  0  0  0  0  0  0  0  0
    5.4464   -7.5150    1.0294 H   0  0  0  0  0  0  0  0  0  0  0  0
    4.4861   -8.2754    2.2672 H   0  0  0  0  0  0  0  0  0  0  0  0
    5.7343   -7.1388    2.7280 H   0  0  0  0  0  0  0  0  0  0  0  0
    5.7684   -5.6193   -0.1839 H   0  0  0  0  0  0  0  0  0  0  0  0
    7.1079   -3.7811    0.8155 H   0  0  0  0  0  0  0  0  0  0  0  0
    6.8566   -1.6632   -0.3715 H   0  0  0  0  0  0  0  0  0  0  0  0
    6.2835   -2.2622   -2.7557 H   0  0  0  0  0  0  0  0  0  0  0  0
    7.0407   -3.6596   -2.0882 H   0  0  0  0  0  0  0  0  0  0  0  0
    5.0915   -4.7689   -2.8407 H   0  0  0  0  0  0  0  0  0  0  0  0
    3.5369   -4.9663   -1.1484 H   0  0  0  0  0  0  0  0  0  0  0  0
  1  2  1  0
  1 20  1  0
  1 21  1  0
  1 22  1  0
  2  3  1  0
  2 23  1  0
  2 24  1  0
  3  5  1  0
  3  4  1  0
  3 25  1  1
  4 18  1  0
  4  5  1  0
  4 26  1  6
  5  6  1  0
  5 27  1  6
  6 19  1  0
  6  7  1  0
  6 28  1  1
  7 16  1  0
  7  8  1  0
  7 29  1  1
  8 15  1  0
  8  9  1  0
  8 30  1  1
  9 10  2  0
  9 31  1  0
 10 11  1  0
 10 14  1  0
 11 12  1  0
 11 13  1  0
 11 32  1  0
 12 33  1  0
 12 34  1  0
 12 35  1  0
 13 36  1  0
 13 37  1  0
 13 38  1  0
 14 19  1  0
 14 15  1  0
 14 39  1  6
 15 16  1  0
 15 40  1  1
 16 17  1  0
 16 41  1  1
 17 18  1  0
 17 42  1  0
 17 43  1  0
 18 19  1  0
 18 44  1  6
 19 45  1  6
M  CHG  1  19   1
M  END
>  <i_m_ct_stereo_status>  (58) 
1

>  <s_m_source_file>  (58) 
/var/tmp/pbs.5076255.sched01/tmpnv36izql/0kitkh5ys.sdf

>  <i_m_source_file_index>  (58) 
25

>  <i_lp_mmshare_version>  (58) 
48012

>  <i_f3d_flags>  (58) 
0

>  <s_epik_input>  (58) 
W0NIM11bQ0gyXVtDQEhdMVtDQEBIXShbQ0BASF0xMilbQ0hdM1tDQEhdNFtDQEBIXTVbQ0BIXTZbQ0BASF0oQyg9W0NIXTUpW0NIXShbQ0gzXSlbQ0gzXSlOM1tDSF0yW0NIMl1bQ0BASF00Ng==

>  <s_epik_cmdline>  (58) 
J2VwaWtfcHl0aG9uJywgJy1waHQnLCAnMi4wJywgJy1waCcsICc3LjAnLCAnLXRuJywgJzgnLCAnLW1hJywgJzIwMCcsICctaW1hZScsICc8aW5maWxlLm1hZT4nLCAnLW9tYWUnLCAnPG91dGZpbGUubWFlPic=

>  <r_lp_tautomer_probability>  (58) 
1

>  <r_epik_Ionization_Penalty>  (58) 
7.31894e-05

>  <r_epik_Ionization_Penalty_Charging>  (58) 
7.31894e-05

>  <r_epik_Ionization_Penalty_Neutral>  (58) 
0

>  <r_epik_State_Penalty>  (58) 
-0

>  <r_epik_Charging_Adjusted_Penalty>  (58) 
7.31894e-05

>  <i_epik_Tot_Q>  (58) 
1

>  <i_epik_Tot_abs_Q>  (58) 
1

>  <s_lp_Force_Field>  (58) 
OPLS3e

>  <r_lp_Energy>  (58) 
49.3759

>  <b_lp_Chiralities_Consistent>  (58) 
1

>  <s_lp_Variant>  (58) 
16:0-1

>  <s_i_glide_gridfile>  (58) 
pfpi4k_grid

>  <i_i_glide_lignum>  (58) 
25

>  <i_i_glide_rotatable_bonds>  (58) 
2

>  <r_i_docking_score>  (58) 
-3.92851

>  <r_i_glide_ligand_efficiency>  (58) 
-0.206764

>  <r_i_glide_ligand_efficiency_sa>  (58) 
-0.551729

>  <r_i_glide_ligand_efficiency_ln>  (58) 
-0.995963

>  <r_i_glide_gscore>  (58) 
-3.92851

>  <r_i_glide_lipo>  (58) 
-0.759768

>  <r_i_glide_hbond>  (58) 
0

>  <r_i_glide_metal>  (58) 
-0

>  <r_i_glide_rewards>  (58) 
-1.66087

>  <r_i_glide_evdw>  (58) 
-17.8028

>  <r_i_glide_ecoul>  (58) 
-3.89166

>  <r_i_glide_erotb>  (58) 
0

>  <r_i_glide_esite>  (58) 
-0.03399

>  <r_i_glide_emodel>  (58) 
-27.9945

>  <r_i_glide_energy>  (58) 
-21.6944

>  <r_i_glide_einternal>  (58) 
0.184494

>  <r_i_glide_intrahb_reward>  (58) 
-0

>  <i_i_glide_confnum>  (58) 
2

>  <i_i_glide_posenum>  (58) 
16

>  <r_i_glide_eff_state_penalty>  (58) 
0

>  <ligand_id>  (58) 
16

>  <original_smiles>  (58) 
CCC1C2C1C1C3C4C=C(C(C)C)C5C4C3CC2N51

>  <smiles>  (58) 
[H]C1=C(C([H])(C([H])([H])[H])C([H])([H])[H])C2([H])C3([H])C1([H])C1([H])C3([H])C([H])([H])C3([H])C4([H])C([H])(C([H])([H])C([H])([H])[H])C4([H])C1([H])[N+]23[H]

$$$$
17:0:0
     RDKit          3D

 64 70  0  0  1  0  0  0  0  0999 V2000
    0.9192   -4.8870    5.6639 C   0  0  0  0  0  0  0  0  0  0  0  0
    0.7605   -5.6630    4.4841 O   0  0  0  0  0  0  0  0  0  0  0  0
    1.8931   -5.8324    3.6051 C   0  0  1  0  0  0  0  0  0  0  0  0
    2.2647   -4.5949    2.9970 O   0  0  0  0  0  0  0  0  0  0  0  0
    3.1825   -5.0639    3.9795 C   0  0  2  0  0  0  0  0  0  0  0  0
    4.6584   -5.2247    3.5753 C   0  0  0  0  0  0  0  0  0  0  0  0
    5.1022   -5.5380    2.1368 C   0  0  2  0  0  0  0  0  0  0  0  0
    4.3073   -4.9987    0.9455 C   0  0  1  0  0  0  0  0  0  0  0  0
    5.1159   -4.4244   -0.2087 C   0  0  0  0  0  0  0  0  0  0  0  0
    3.7413   -6.4129    0.7620 C   0  0  1  0  0  0  0  0  0  0  0  0
    4.9524   -6.9535    1.5329 C   0  0  2  0  0  0  0  0  0  0  0  0
    4.1146   -8.0239    2.2567 C   0  0  2  0  0  0  0  0  0  0  0  0
    4.2708   -9.5815    2.1154 C   0  0  1  0  0  0  0  0  0  0  0  0
    5.7626   -9.9548    2.0545 C   0  0  0  0  0  0  0  0  0  0  0  0
    3.5450  -10.5000    3.2093 C   0  0  1  0  0  0  0  0  0  0  0  0
    3.9794  -10.2699    4.6723 C   0  0  0  0  0  0  0  0  0  0  0  0
    2.7752  -10.6632    5.5394 C   0  0  0  0  0  0  0  0  0  0  0  0
    1.4963  -10.3344    4.7343 C   0  0  2  0  0  0  0  0  0  0  0  0
    1.9731  -10.6335    3.2815 C   0  0  1  0  0  0  0  0  0  0  0  0
    1.2319   -9.6095    2.4747 C   0  0  0  0  0  0  0  0  0  0  0  0
    1.4374   -8.3703    3.3724 C   0  0  2  0  0  0  0  0  0  0  0  0
    0.9170   -8.8488    4.7646 C   0  0  0  0  0  0  0  0  0  0  0  0
   -0.6212   -8.8278    4.8333 C   0  0  0  0  0  0  0  0  0  0  0  0
    1.4187   -8.1164    6.0314 C   0  0  0  0  0  0  0  0  0  0  0  0
    1.6342   -6.9978    2.6216 C   0  0  1  0  0  0  0  0  0  0  0  0
    0.4028   -6.6528    1.7287 C   0  0  0  0  0  0  0  0  0  0  0  0
   -0.7408   -6.6536    2.2442 O   0  0  0  0  0  0  0  0  0  0  0  0
    0.5972   -6.2589    0.5538 O   0  0  0  0  0  0  0  0  0  0  0  0
    2.8587   -7.3163    1.6725 C   0  0  1  0  0  0  0  0  0  0  0  0
    0.0234   -4.9775    6.2705 H   0  0  0  0  0  0  0  0  0  0  0  0
    1.0849   -3.8334    5.4446 H   0  0  0  0  0  0  0  0  0  0  0  0
    1.7516   -5.2620    6.2643 H   0  0  0  0  0  0  0  0  0  0  0  0
    3.1725   -4.4588    4.8865 H   0  0  0  0  0  0  0  0  0  0  0  0
    5.1417   -4.2882    3.8509 H   0  0  0  0  0  0  0  0  0  0  0  0
    5.0867   -5.9589    4.2517 H   0  0  0  0  0  0  0  0  0  0  0  0
    6.1557   -5.2560    2.0201 H   0  0  0  0  0  0  0  0  0  0  0  0
    3.5257   -4.2919    1.2090 H   0  0  0  0  0  0  0  0  0  0  0  0
    5.8976   -5.1045   -0.5418 H   0  0  0  0  0  0  0  0  0  0  0  0
    5.6029   -3.4914    0.0688 H   0  0  0  0  0  0  0  0  0  0  0  0
    4.4900   -4.2160   -1.0746 H   0  0  0  0  0  0  0  0  0  0  0  0
    3.7508   -6.7090   -0.2948 H   0  0  0  0  0  0  0  0  0  0  0  0
    5.7710   -7.2790    0.8904 H   0  0  0  0  0  0  0  0  0  0  0  0
    4.2803   -7.7693    3.3006 H   0  0  0  0  0  0  0  0  0  0  0  0
    3.8640   -9.8837    1.1491 H   0  0  0  0  0  0  0  0  0  0  0  0
    6.2970   -9.6242    2.9439 H   0  0  0  0  0  0  0  0  0  0  0  0
    6.2497   -9.5065    1.1898 H   0  0  0  0  0  0  0  0  0  0  0  0
    5.8961  -11.0336    1.9657 H   0  0  0  0  0  0  0  0  0  0  0  0
    3.8558  -11.5181    2.9692 H   0  0  0  0  0  0  0  0  0  0  0  0
    4.8571  -10.8640    4.9280 H   0  0  0  0  0  0  0  0  0  0  0  0
    4.2342   -9.2300    4.8701 H   0  0  0  0  0  0  0  0  0  0  0  0
    2.7971  -11.7442    5.6808 H   0  0  0  0  0  0  0  0  0  0  0  0
    2.8224  -10.2459    6.5439 H   0  0  0  0  0  0  0  0  0  0  0  0
    0.6999  -11.0195    5.0342 H   0  0  0  0  0  0  0  0  0  0  0  0
    1.6792  -11.6420    2.9845 H   0  0  0  0  0  0  0  0  0  0  0  0
    1.5884   -9.6112    1.4527 H   0  0  0  0  0  0  0  0  0  0  0  0
    0.1765   -9.8666    2.3899 H   0  0  0  0  0  0  0  0  0  0  0  0
    2.4198   -8.3703    3.7883 H   0  0  0  0  0  0  0  0  0  0  0  0
   -1.0174   -7.8174    4.7241 H   0  0  0  0  0  0  0  0  0  0  0  0
   -0.9648   -9.2050    5.7972 H   0  0  0  0  0  0  0  0  0  0  0  0
   -1.0867   -9.4450    4.0684 H   0  0  0  0  0  0  0  0  0  0  0  0
    0.7670   -7.2891    6.2826 H   0  0  0  0  0  0  0  0  0  0  0  0
    2.4490   -7.7660    5.9482 H   0  0  0  0  0  0  0  0  0  0  0  0
    1.3508   -8.7633    6.9068 H   0  0  0  0  0  0  0  0  0  0  0  0
    2.5054   -7.9745    0.8886 H   0  0  0  0  0  0  0  0  0  0  0  0
  1  2  1  0
  1 30  1  0
  1 31  1  0
  1 32  1  0
  3  2  1  1
  3  5  1  0
  3 25  1  0
  3  4  1  0
  4  5  1  0
  5  6  1  0
  5 33  1  1
  6  7  1  0
  6 34  1  0
  6 35  1  0
  7 11  1  0
  7  8  1  0
  7 36  1  6
  8  9  1  0
  8 10  1  0
  8 37  1  1
  9 38  1  0
  9 39  1  0
  9 40  1  0
 10 29  1  0
 10 11  1  0
 10 41  1  6
 11 12  1  0
 11 42  1  6
 12 29  1  0
 12 13  1  0
 12 43  1  1
 13 14  1  0
 13 15  1  0
 13 44  1  6
 14 45  1  0
 14 46  1  0
 14 47  1  0
 15 19  1  0
 15 16  1  0
 15 48  1  6
 16 17  1  0
 16 49  1  0
 16 50  1  0
 17 18  1  0
 17 51  1  0
 17 52  1  0
 18 22  1  0
 18 19  1  0
 18 53  1  1
 19 20  1  0
 19 54  1  6
 20 21  1  0
 20 55  1  0
 20 56  1  0
 21 22  1  0
 21 25  1  0
 21 57  1  1
 22 23  1  0
 22 24  1  0
 23 58  1  0
 23 59  1  0
 23 60  1  0
 24 61  1  0
 24 62  1  0
 24 63  1  0
 25 26  1  6
 25 29  1  0
 26 27  2  0
 26 28  1  0
 29 64  1  6
M  CHG  1  28  -1
M  END
>  <i_m_ct_stereo_status>  (59) 
1

>  <s_m_source_file>  (59) 
/var/tmp/pbs.5076255.sched01/tmpnv36izql/0kitkh5ys.sdf

>  <i_m_source_file_index>  (59) 
26

>  <i_lp_mmshare_version>  (59) 
48012

>  <i_f3d_flags>  (59) 
0

>  <s_epik_input>  (59) 
W0NIM11PW0NAXTEyW0NASF0oTzEpW0NIMl1bQ0BIXTNbQ0BASF00W0NASF0oW0NAQEhdM1tDSDNdKVtDQEhdNVtDQEhdNFtDQEBIXShbQ0gzXSlbQ0BASF02W0NASF03W0NAQEhdKFtDSDJdW0NIMl02KUMoW0NIM10pKFtDSDNdKVtDQEBIXShbQ0gyXTcpW0NAQF0yNUMoPU8pW09IXQ==

>  <s_epik_cmdline>  (59) 
J2VwaWtfcHl0aG9uJywgJy1waHQnLCAnMi4wJywgJy1waCcsICc3LjAnLCAnLXRuJywgJzgnLCAnLW1hJywgJzIwMCcsICctaW1hZScsICc8aW5maWxlLm1hZT4nLCAnLW9tYWUnLCAnPG91dGZpbGUubWFlPic=

>  <r_epik_Ionization_Penalty>  (59) 
0.00140652

>  <r_epik_Ionization_Penalty_Charging>  (59) 
0.00140652

>  <r_epik_Ionization_Penalty_Neutral>  (59) 
3.20542e-12

>  <r_epik_State_Penalty>  (59) 
0.000938208

>  <r_epik_Charging_Adjusted_Penalty>  (59) 
0.00234473

>  <i_epik_Tot_Q>  (59) 
-1

>  <i_epik_Tot_abs_Q>  (59) 
1

>  <s_lp_Force_Field>  (59) 
OPLS3e

>  <r_lp_Energy>  (59) 
130.232

>  <b_lp_Chiralities_Consistent>  (59) 
1

>  <s_lp_Variant>  (59) 
17:0-1

>  <s_i_glide_gridfile>  (59) 
pfpi4k_grid

>  <i_i_glide_lignum>  (59) 
26

>  <i_i_glide_rotatable_bonds>  (59) 
2

>  <r_i_docking_score>  (59) 
-3.51935

>  <r_i_glide_ligand_efficiency>  (59) 
-0.121357

>  <r_i_glide_ligand_efficiency_sa>  (59) 
-0.372846

>  <r_i_glide_ligand_efficiency_ln>  (59) 
-0.805841

>  <r_i_glide_gscore>  (59) 
-3.51935

>  <r_i_glide_lipo>  (59) 
-0.46194

>  <r_i_glide_hbond>  (59) 
-0.420157

>  <r_i_glide_metal>  (59) 
-0

>  <r_i_glide_rewards>  (59) 
-0.684934

>  <r_i_glide_evdw>  (59) 
-19.1234

>  <r_i_glide_ecoul>  (59) 
-5.94262

>  <r_i_glide_erotb>  (59) 
0

>  <r_i_glide_esite>  (59) 
-0.104752

>  <r_i_glide_emodel>  (59) 
-31.6835

>  <r_i_glide_energy>  (59) 
-25.066

>  <r_i_glide_einternal>  (59) 
3.64454

>  <r_i_glide_intrahb_reward>  (59) 
-0

>  <i_i_glide_confnum>  (59) 
1

>  <i_i_glide_posenum>  (59) 
5

>  <r_i_glide_eff_state_penalty>  (59) 
0

>  <ligand_id>  (59) 
17

>  <original_smiles>  (59) 
COC12OC1CC1C(C)C3C1C1C(C)C4CCC5C4CC(C5(C)C)C2(C(=O)O)C13

>  <smiles>  (59) 
[H]C([H])([H])OC12OC1([H])C([H])([H])C1([H])C([H])(C([H])([H])[H])C3([H])C1([H])C1([H])C([H])(C([H])([H])[H])C4([H])C([H])([H])C([H])([H])C5([H])C4([H])C([H])([H])C([H])(C2(C(=O)[O-])C13[H])C5(C([H])([H])[H])C([H])([H])[H]

$$$$
17:0:1
     RDKit          3D

 64 70  0  0  1  0  0  0  0  0999 V2000
    1.6010   -4.1116   -0.8341 C   0  0  0  0  0  0  0  0  0  0  0  0
    2.3592   -3.7640    0.2887 O   0  0  0  0  0  0  0  0  0  0  0  0
    3.3044   -4.7201    0.8241 C   0  0  1  0  0  0  0  0  0  0  0  0
    2.6395   -5.8526    1.3904 O   0  0  0  0  0  0  0  0  0  0  0  0
    3.3332   -6.1304    0.1787 C   0  0  2  0  0  0  0  0  0  0  0  0
    4.3829   -7.2340    0.1303 C   0  0  0  0  0  0  0  0  0  0  0  0
    5.2038   -7.6748    1.3367 C   0  0  2  0  0  0  0  0  0  0  0  0
    4.5686   -7.6459    2.7283 C   0  0  1  0  0  0  0  0  0  0  0  0
    4.7799   -8.8489    3.6041 C   0  0  0  0  0  0  0  0  0  0  0  0
    5.3969   -6.3783    2.9970 C   0  0  1  0  0  0  0  0  0  0  0  0
    6.3450   -6.8387    1.9016 C   0  0  2  0  0  0  0  0  0  0  0  0
    6.5708   -5.4142    1.3943 C   0  0  2  0  0  0  0  0  0  0  0  0
    7.9159   -4.6640    1.4017 C   0  0  1  0  0  0  0  0  0  0  0  0
    9.0546   -5.6010    1.0599 C   0  0  0  0  0  0  0  0  0  0  0  0
    8.0744   -3.3056    0.5603 C   0  0  1  0  0  0  0  0  0  0  0  0
    7.8187   -3.5374   -0.9222 C   0  0  0  0  0  0  0  0  0  0  0  0
    7.2778   -2.2535   -1.4792 C   0  0  0  0  0  0  0  0  0  0  0  0
    6.4660   -1.5380   -0.3469 C   0  0  2  0  0  0  0  0  0  0  0  0
    7.2591   -1.9975    0.8926 C   0  0  1  0  0  0  0  0  0  0  0  0
    6.1669   -2.1896    1.9034 C   0  0  0  0  0  0  0  0  0  0  0  0
    5.1287   -2.9190    1.0369 C   0  0  2  0  0  0  0  0  0  0  0  0
    4.9438   -1.9570   -0.1504 C   0  0  0  0  0  0  0  0  0  0  0  0
    4.0733   -0.7538    0.2314 C   0  0  0  0  0  0  0  0  0  0  0  0
    4.3967   -2.5145   -1.4786 C   0  0  0  0  0  0  0  0  0  0  0  0
    4.2917   -4.0341    1.7702 C   0  0  1  0  0  0  0  0  0  0  0  0
    3.4882   -3.4811    2.9748 C   0  0  0  0  0  0  0  0  0  0  0  0
    3.3182   -2.2491    3.0826 O   0  0  0  0  0  0  0  0  0  0  0  0
    3.0700   -4.3207    3.8124 O   0  0  0  0  0  0  0  0  0  0  0  0
    5.4158   -4.9745    2.3388 C   0  0  1  0  0  0  0  0  0  0  0  0
    0.9642   -3.2778   -1.1249 H   0  0  0  0  0  0  0  0  0  0  0  0
    0.9553   -4.9943   -0.6609 H   0  0  0  0  0  0  0  0  0  0  0  0
    2.2440   -4.2873   -1.6902 H   0  0  0  0  0  0  0  0  0  0  0  0
    2.6823   -6.2431   -0.6824 H   0  0  0  0  0  0  0  0  0  0  0  0
    3.9342   -8.1805   -0.1878 H   0  0  0  0  0  0  0  0  0  0  0  0
    5.0294   -6.9293   -0.6892 H   0  0  0  0  0  0  0  0  0  0  0  0
    5.6075   -8.6822    1.1696 H   0  0  0  0  0  0  0  0  0  0  0  0
    3.4986   -7.4056    2.6993 H   0  0  0  0  0  0  0  0  0  0  0  0
    5.8450   -9.1432    3.6915 H   0  0  0  0  0  0  0  0  0  0  0  0
    4.2543   -9.7308    3.2384 H   0  0  0  0  0  0  0  0  0  0  0  0
    4.4274   -8.6810    4.6277 H   0  0  0  0  0  0  0  0  0  0  0  0
    5.9054   -6.4048    3.9669 H   0  0  0  0  0  0  0  0  0  0  0  0
    7.1972   -7.4058    2.2875 H   0  0  0  0  0  0  0  0  0  0  0  0
    6.2314   -5.5123    0.3536 H   0  0  0  0  0  0  0  0  0  0  0  0
    8.1964   -4.4819    2.4334 H   0  0  0  0  0  0  0  0  0  0  0  0
    9.0308   -5.9941    0.0416 H   0  0  0  0  0  0  0  0  0  0  0  0
    9.0984   -6.4264    1.7724 H   0  0  0  0  0  0  0  0  0  0  0  0
    9.9202   -4.9932    1.2838 H   0  0  0  0  0  0  0  0  0  0  0  0
    9.1174   -2.9744    0.6449 H   0  0  0  0  0  0  0  0  0  0  0  0
    8.7190   -3.8151   -1.4792 H   0  0  0  0  0  0  0  0  0  0  0  0
    7.0419   -4.2491   -1.0532 H   0  0  0  0  0  0  0  0  0  0  0  0
    8.2714   -1.8407   -1.6430 H   0  0  0  0  0  0  0  0  0  0  0  0
    6.7910   -2.3372   -2.4455 H   0  0  0  0  0  0  0  0  0  0  0  0
    6.4785   -0.4486   -0.3755 H   0  0  0  0  0  0  0  0  0  0  0  0
    7.9386   -1.1949    1.1955 H   0  0  0  0  0  0  0  0  0  0  0  0
    6.5182   -2.6881    2.7729 H   0  0  0  0  0  0  0  0  0  0  0  0
    5.8018   -1.2284    2.2572 H   0  0  0  0  0  0  0  0  0  0  0  0
    5.6050   -3.5992    0.3702 H   0  0  0  0  0  0  0  0  0  0  0  0
    3.0432   -1.0473    0.4451 H   0  0  0  0  0  0  0  0  0  0  0  0
    4.0945   -0.1012   -0.6331 H   0  0  0  0  0  0  0  0  0  0  0  0
    4.4352   -0.1640    1.0771 H   0  0  0  0  0  0  0  0  0  0  0  0
    3.3144   -2.4501   -1.5054 H   0  0  0  0  0  0  0  0  0  0  0  0
    4.7169   -3.5396   -1.6798 H   0  0  0  0  0  0  0  0  0  0  0  0
    4.7000   -1.8931   -2.3257 H   0  0  0  0  0  0  0  0  0  0  0  0
    5.8855   -4.4815    3.2029 H   0  0  0  0  0  0  0  0  0  0  0  0
  1  2  1  0
  1 30  1  0
  1 31  1  0
  1 32  1  0
  3  2  1  6
  3  5  1  0
  3 25  1  0
  3  4  1  0
  4  5  1  0
  5  6  1  0
  5 33  1  6
  6  7  1  0
  6 34  1  0
  6 35  1  0
  7 11  1  0
  7  8  1  0
  7 36  1  6
  8  9  1  0
  8 10  1  0
  8 37  1  6
  9 38  1  0
  9 39  1  0
  9 40  1  0
 10 29  1  0
 10 11  1  0
 10 41  1  1
 11 12  1  0
 11 42  1  1
 12 29  1  0
 12 13  1  0
 12 43  1  6
 13 14  1  0
 13 15  1  0
 13 44  1  1
 14 45  1  0
 14 46  1  0
 14 47  1  0
 15 19  1  0
 15 16  1  0
 15 48  1  6
 16 17  1  0
 16 49  1  0
 16 50  1  0
 17 18  1  0
 17 51  1  0
 17 52  1  0
 18 22  1  0
 18 19  1  0
 18 53  1  6
 19 20  1  0
 19 54  1  1
 20 21  1  0
 20 55  1  0
 20 56  1  0
 21 22  1  0
 21 25  1  0
 21 57  1  6
 22 23  1  0
 22 24  1  0
 23 58  1  0
 23 59  1  0
 23 60  1  0
 24 61  1  0
 24 62  1  0
 24 63  1  0
 25 26  1  1
 25 29  1  0
 26 27  2  0
 26 28  1  0
 29 64  1  1
M  CHG  1  28  -1
M  END
>  <i_m_ct_stereo_status>  (60) 
1

>  <s_m_source_file>  (60) 
/var/tmp/pbs.5076255.sched01/tmpnv36izql/0kitkh5ys.sdf

>  <i_m_source_file_index>  (60) 
26

>  <i_lp_mmshare_version>  (60) 
48012

>  <i_f3d_flags>  (60) 
0

>  <s_epik_input>  (60) 
W0NIM11PW0NAXTEyW0NASF0oTzEpW0NIMl1bQ0BIXTNbQ0BASF00W0NASF0oW0NAQEhdM1tDSDNdKVtDQEhdNVtDQEhdNFtDQEBIXShbQ0gzXSlbQ0BASF02W0NASF03W0NAQEhdKFtDSDJdW0NIMl02KUMoW0NIM10pKFtDSDNdKVtDQEBIXShbQ0gyXTcpW0NAQF0yNUMoPU8pW09IXQ==

>  <s_epik_cmdline>  (60) 
J2VwaWtfcHl0aG9uJywgJy1waHQnLCAnMi4wJywgJy1waCcsICc3LjAnLCAnLXRuJywgJzgnLCAnLW1hJywgJzIwMCcsICctaW1hZScsICc8aW5maWxlLm1hZT4nLCAnLW9tYWUnLCAnPG91dGZpbGUubWFlPic=

>  <r_epik_Ionization_Penalty>  (60) 
0.00140652

>  <r_epik_Ionization_Penalty_Charging>  (60) 
0.00140652

>  <r_epik_Ionization_Penalty_Neutral>  (60) 
3.20542e-12

>  <r_epik_State_Penalty>  (60) 
0.000938208

>  <r_epik_Charging_Adjusted_Penalty>  (60) 
0.00234473

>  <i_epik_Tot_Q>  (60) 
-1

>  <i_epik_Tot_abs_Q>  (60) 
1

>  <s_lp_Force_Field>  (60) 
OPLS3e

>  <r_lp_Energy>  (60) 
130.232

>  <b_lp_Chiralities_Consistent>  (60) 
1

>  <s_lp_Variant>  (60) 
17:0-1

>  <s_i_glide_gridfile>  (60) 
pfpi4k_grid

>  <i_i_glide_lignum>  (60) 
26

>  <i_i_glide_rotatable_bonds>  (60) 
2

>  <r_i_docking_score>  (60) 
-1.60531

>  <r_i_glide_ligand_efficiency>  (60) 
-0.0553556

>  <r_i_glide_ligand_efficiency_sa>  (60) 
-0.17007

>  <r_i_glide_ligand_efficiency_ln>  (60) 
-0.367576

>  <r_i_glide_gscore>  (60) 
-1.60531

>  <r_i_glide_lipo>  (60) 
-0.928196

>  <r_i_glide_hbond>  (60) 
0

>  <r_i_glide_metal>  (60) 
-0

>  <r_i_glide_rewards>  (60) 
-0.68544

>  <r_i_glide_evdw>  (60) 
-2.3287

>  <r_i_glide_ecoul>  (60) 
0.87506

>  <r_i_glide_erotb>  (60) 
0

>  <r_i_glide_esite>  (60) 
-0.00649992

>  <r_i_glide_emodel>  (60) 
-1.36223

>  <r_i_glide_energy>  (60) 
-1.45364

>  <r_i_glide_einternal>  (60) 
3.52082

>  <r_i_glide_intrahb_reward>  (60) 
-0

>  <i_i_glide_confnum>  (60) 
2

>  <i_i_glide_posenum>  (60) 
9

>  <r_i_glide_eff_state_penalty>  (60) 
0

>  <ligand_id>  (60) 
17

>  <original_smiles>  (60) 
COC12OC1CC1C(C)C3C1C1C(C)C4CCC5C4CC(C5(C)C)C2(C(=O)O)C13

>  <smiles>  (60) 
[H]C([H])([H])OC12OC1([H])C([H])([H])C1([H])C([H])(C([H])([H])[H])C3([H])C1([H])C1([H])C([H])(C([H])([H])[H])C4([H])C([H])([H])C([H])([H])C5([H])C4([H])C([H])([H])C([H])(C2(C(=O)[O-])C13[H])C5(C([H])([H])[H])C([H])([H])[H]

$$$$
19:0:0
     RDKit          3D

 30 32  0  0  1  0  0  0  0  0999 V2000
    3.0164   -1.0592   -2.3233 N   0  0  0  0  0  0  0  0  0  0  0  0
    3.8313   -1.8400   -1.3909 C   0  0  1  0  0  0  0  0  0  0  0  0
    5.2311   -2.0835   -1.9977 C   0  0  0  0  0  0  0  0  0  0  0  0
    6.0875   -2.8968   -1.0080 C   0  0  1  0  0  0  0  0  0  0  0  0
    6.2318   -2.1133    0.3117 C   0  0  0  0  0  0  0  0  0  0  0  0
    4.8332   -1.8955    0.9249 C   0  0  1  0  0  0  0  0  0  0  0  0
    3.9766   -1.0731   -0.0536 C   0  0  0  0  0  0  0  0  0  0  0  0
    4.1447   -3.2525    1.1922 C   0  0  0  0  0  0  0  0  0  0  0  0
    4.0065   -4.0198   -0.1370 C   0  0  2  0  0  0  0  0  0  0  0  0
    3.3670   -5.2581    0.0790 O   0  0  0  0  0  0  0  0  0  0  0  0
    5.4081   -4.2546   -0.7331 C   0  0  0  0  0  0  0  0  0  0  0  0
    3.1527   -3.2038   -1.1268 C   0  0  0  0  0  0  0  0  0  0  0  0
    2.8932   -1.5572   -3.1911 H   0  0  0  0  0  0  0  0  0  0  0  0
    3.4259   -0.1566   -2.4999 H   0  0  0  0  0  0  0  0  0  0  0  0
    5.1594   -2.6158   -2.9482 H   0  0  0  0  0  0  0  0  0  0  0  0
    5.7164   -1.1315   -2.2124 H   0  0  0  0  0  0  0  0  0  0  0  0
    7.0730   -3.0654   -1.4426 H   0  0  0  0  0  0  0  0  0  0  0  0
    6.8733   -2.6506    1.0095 H   0  0  0  0  0  0  0  0  0  0  0  0
    6.7089   -1.1496    0.1277 H   0  0  0  0  0  0  0  0  0  0  0  0
    4.9320   -1.3551    1.8647 H   0  0  0  0  0  0  0  0  0  0  0  0
    4.4377   -0.0962   -0.2098 H   0  0  0  0  0  0  0  0  0  0  0  0
    2.9946   -0.8864    0.3862 H   0  0  0  0  0  0  0  0  0  0  0  0
    4.7198   -3.8375    1.9095 H   0  0  0  0  0  0  0  0  0  0  0  0
    3.1606   -3.0886    1.6325 H   0  0  0  0  0  0  0  0  0  0  0  0
    3.2666   -5.6812   -0.7665 H   0  0  0  0  0  0  0  0  0  0  0  0
    5.3262   -4.8135   -1.6637 H   0  0  0  0  0  0  0  0  0  0  0  0
    6.0238   -4.8525   -0.0600 H   0  0  0  0  0  0  0  0  0  0  0  0
    2.1496   -3.0606   -0.7210 H   0  0  0  0  0  0  0  0  0  0  0  0
    3.0303   -3.7570   -2.0604 H   0  0  0  0  0  0  0  0  0  0  0  0
    2.1008   -0.9258   -1.8743 H   0  0  0  0  0  0  0  0  0  0  0  0
  2  1  1  6
  1 13  1  0
  1 14  1  0
  1 30  1  0
  2  7  1  0
  2 12  1  0
  2  3  1  0
  3  4  1  0
  3 15  1  0
  3 16  1  0
  4 11  1  0
  4  5  1  0
  4 17  1  6
  5  6  1  0
  5 18  1  0
  5 19  1  0
  6  7  1  0
  6  8  1  0
  6 20  1  1
  7 21  1  0
  7 22  1  0
  8  9  1  0
  8 23  1  0
  8 24  1  0
  9 10  1  1
  9 11  1  0
  9 12  1  0
 10 25  1  0
 11 26  1  0
 11 27  1  0
 12 28  1  0
 12 29  1  0
M  CHG  1   1   1
M  END
>  <i_m_ct_stereo_status>  (61) 
1

>  <s_m_source_file>  (61) 
/var/tmp/pbs.5076255.sched01/tmpnv36izql/0kitkh5ys.sdf

>  <i_m_source_file_index>  (61) 
28

>  <i_lp_mmshare_version>  (61) 
48012

>  <i_f3d_flags>  (61) 
0

>  <s_epik_input>  (61) 
W05IMl1bQ0BAXTEyW0NIMl1bQ0BIXTNbQ0gyXVtDQEBIXShbQ0gyXTEpW0NIMl1bQ0BdKFtPSF0pKFtDSDJdMylbQ0gyXTI=

>  <s_epik_cmdline>  (61) 
J2VwaWtfcHl0aG9uJywgJy1waHQnLCAnMi4wJywgJy1waCcsICc3LjAnLCAnLXRuJywgJzgnLCAnLW1hJywgJzIwMCcsICctaW1hZScsICc8aW5maWxlLm1hZT4nLCAnLW9tYWUnLCAnPG91dGZpbGUubWFlPic=

>  <r_lp_tautomer_probability>  (61) 
1

>  <r_epik_Ionization_Penalty>  (61) 
7.2191e-05

>  <r_epik_Ionization_Penalty_Charging>  (61) 
7.20642e-05

>  <r_epik_Ionization_Penalty_Neutral>  (61) 
1.26874e-07

>  <r_epik_State_Penalty>  (61) 
-0

>  <r_epik_Charging_Adjusted_Penalty>  (61) 
7.20642e-05

>  <i_epik_Tot_Q>  (61) 
1

>  <i_epik_Tot_abs_Q>  (61) 
1

>  <s_lp_Force_Field>  (61) 
OPLS3e

>  <r_lp_Energy>  (61) 
-8.19876

>  <b_lp_Chiralities_Consistent>  (61) 
1

>  <s_lp_Variant>  (61) 
19:0-1

>  <s_i_glide_gridfile>  (61) 
pfpi4k_grid

>  <i_i_glide_lignum>  (61) 
28

>  <i_i_glide_rotatable_bonds>  (61) 
1

>  <r_i_docking_score>  (61) 
-4.97916

>  <r_i_glide_ligand_efficiency>  (61) 
-0.41493

>  <r_i_glide_ligand_efficiency_sa>  (61) 
-0.949952

>  <r_i_glide_ligand_efficiency_ln>  (61) 
-1.42878

>  <r_i_glide_gscore>  (61) 
-4.97916

>  <r_i_glide_lipo>  (61) 
-0.203346

>  <r_i_glide_hbond>  (61) 
-0.52

>  <r_i_glide_metal>  (61) 
-0

>  <r_i_glide_rewards>  (61) 
-2.25

>  <r_i_glide_evdw>  (61) 
-14.9162

>  <r_i_glide_ecoul>  (61) 
-7.92171

>  <r_i_glide_erotb>  (61) 
0

>  <r_i_glide_esite>  (61) 
-0.0717473

>  <r_i_glide_emodel>  (61) 
-31.9813

>  <r_i_glide_energy>  (61) 
-22.8379

>  <r_i_glide_einternal>  (61) 
0.0148964

>  <r_i_glide_intrahb_reward>  (61) 
-0

>  <i_i_glide_confnum>  (61) 
2

>  <i_i_glide_posenum>  (61) 
33

>  <r_i_glide_eff_state_penalty>  (61) 
0

>  <ligand_id>  (61) 
19

>  <original_smiles>  (61) 
NC12CC3CC(C1)CC(O)(C3)C2

>  <smiles>  (61) 
[H]OC12C([H])([H])C3([H])C([H])([H])C([H])(C1([H])[H])C([H])([H])C([N+]([H])([H])[H])(C3([H])[H])C2([H])[H]

$$$$
19:0:1
     RDKit          3D

 30 32  0  0  1  0  0  0  0  0999 V2000
    2.2129   -3.0657   -1.7214 N   0  0  0  0  0  0  0  0  0  0  0  0
    3.4394   -2.7873   -0.9555 C   0  0  1  0  0  0  0  0  0  0  0  0
    4.4480   -3.9521   -1.0905 C   0  0  0  0  0  0  0  0  0  0  0  0
    5.7305   -3.6310   -0.2943 C   0  0  1  0  0  0  0  0  0  0  0  0
    6.3609   -2.3431   -0.8573 C   0  0  0  0  0  0  0  0  0  0  0  0
    5.3651   -1.1776   -0.7029 C   0  0  1  0  0  0  0  0  0  0  0  0
    4.0844   -1.4942   -1.4948 C   0  0  0  0  0  0  0  0  0  0  0  0
    5.0159   -0.9781    0.7842 C   0  0  0  0  0  0  0  0  0  0  0  0
    4.3836   -2.2724    1.3362 C   0  0  2  0  0  0  0  0  0  0  0  0
    4.0718   -2.1032    2.7021 O   0  0  0  0  0  0  0  0  0  0  0  0
    5.3860   -3.4358    1.1954 C   0  0  0  0  0  0  0  0  0  0  0  0
    3.0970   -2.6018    0.5462 C   0  0  0  0  0  0  0  0  0  0  0  0
    1.8164   -3.9369   -1.4022 H   0  0  0  0  0  0  0  0  0  0  0  0
    2.4140   -3.1421   -2.7089 H   0  0  0  0  0  0  0  0  0  0  0  0
    4.0129   -4.8804   -0.7177 H   0  0  0  0  0  0  0  0  0  0  0  0
    4.6940   -4.1340   -2.1380 H   0  0  0  0  0  0  0  0  0  0  0  0
    6.4330   -4.4602   -0.3907 H   0  0  0  0  0  0  0  0  0  0  0  0
    7.2855   -2.1174   -0.3264 H   0  0  0  0  0  0  0  0  0  0  0  0
    6.6213   -2.4862   -1.9086 H   0  0  0  0  0  0  0  0  0  0  0  0
    5.8091   -0.2629   -1.0916 H   0  0  0  0  0  0  0  0  0  0  0  0
    4.3191   -1.5899   -2.5561 H   0  0  0  0  0  0  0  0  0  0  0  0
    3.3817   -0.6646   -1.4128 H   0  0  0  0  0  0  0  0  0  0  0  0
    5.9169   -0.7340    1.3471 H   0  0  0  0  0  0  0  0  0  0  0  0
    4.3320   -0.1348    0.8930 H   0  0  0  0  0  0  0  0  0  0  0  0
    3.4441   -1.4030    2.7852 H   0  0  0  0  0  0  0  0  0  0  0  0
    4.9689   -4.3567    1.6057 H   0  0  0  0  0  0  0  0  0  0  0  0
    6.2944   -3.2257    1.7603 H   0  0  0  0  0  0  0  0  0  0  0  0
    2.3681   -1.8007    0.6820 H   0  0  0  0  0  0  0  0  0  0  0  0
    2.6320   -3.5026    0.9521 H   0  0  0  0  0  0  0  0  0  0  0  0
    1.5692   -2.2880   -1.5471 H   0  0  0  0  0  0  0  0  0  0  0  0
  2  1  1  6
  1 13  1  0
  1 14  1  0
  1 30  1  0
  2  7  1  0
  2 12  1  0
  2  3  1  0
  3  4  1  0
  3 15  1  0
  3 16  1  0
  4 11  1  0
  4  5  1  0
  4 17  1  1
  5  6  1  0
  5 18  1  0
  5 19  1  0
  6  7  1  0
  6  8  1  0
  6 20  1  6
  7 21  1  0
  7 22  1  0
  8  9  1  0
  8 23  1  0
  8 24  1  0
  9 10  1  1
  9 11  1  0
  9 12  1  0
 10 25  1  0
 11 26  1  0
 11 27  1  0
 12 28  1  0
 12 29  1  0
M  CHG  1   1   1
M  END
>  <i_m_ct_stereo_status>  (62) 
1

>  <s_m_source_file>  (62) 
/var/tmp/pbs.5076255.sched01/tmpnv36izql/0kitkh5ys.sdf

>  <i_m_source_file_index>  (62) 
28

>  <i_lp_mmshare_version>  (62) 
48012

>  <i_f3d_flags>  (62) 
0

>  <s_epik_input>  (62) 
W05IMl1bQ0BAXTEyW0NIMl1bQ0BIXTNbQ0gyXVtDQEBIXShbQ0gyXTEpW0NIMl1bQ0BdKFtPSF0pKFtDSDJdMylbQ0gyXTI=

>  <s_epik_cmdline>  (62) 
J2VwaWtfcHl0aG9uJywgJy1waHQnLCAnMi4wJywgJy1waCcsICc3LjAnLCAnLXRuJywgJzgnLCAnLW1hJywgJzIwMCcsICctaW1hZScsICc8aW5maWxlLm1hZT4nLCAnLW9tYWUnLCAnPG91dGZpbGUubWFlPic=

>  <r_lp_tautomer_probability>  (62) 
1

>  <r_epik_Ionization_Penalty>  (62) 
7.2191e-05

>  <r_epik_Ionization_Penalty_Charging>  (62) 
7.20642e-05

>  <r_epik_Ionization_Penalty_Neutral>  (62) 
1.26874e-07

>  <r_epik_State_Penalty>  (62) 
-0

>  <r_epik_Charging_Adjusted_Penalty>  (62) 
7.20642e-05

>  <i_epik_Tot_Q>  (62) 
1

>  <i_epik_Tot_abs_Q>  (62) 
1

>  <s_lp_Force_Field>  (62) 
OPLS3e

>  <r_lp_Energy>  (62) 
-8.19876

>  <b_lp_Chiralities_Consistent>  (62) 
1

>  <s_lp_Variant>  (62) 
19:0-1

>  <s_i_glide_gridfile>  (62) 
pfpi4k_grid

>  <i_i_glide_lignum>  (62) 
28

>  <i_i_glide_rotatable_bonds>  (62) 
1

>  <r_i_docking_score>  (62) 
-4.40541

>  <r_i_glide_ligand_efficiency>  (62) 
-0.367117

>  <r_i_glide_ligand_efficiency_sa>  (62) 
-0.840489

>  <r_i_glide_ligand_efficiency_ln>  (62) 
-1.26414

>  <r_i_glide_gscore>  (62) 
-4.40541

>  <r_i_glide_lipo>  (62) 
-0.22922

>  <r_i_glide_hbond>  (62) 
-0.2

>  <r_i_glide_metal>  (62) 
-0

>  <r_i_glide_rewards>  (62) 
-2.25

>  <r_i_glide_evdw>  (62) 
-13.9708

>  <r_i_glide_ecoul>  (62) 
-6.85098

>  <r_i_glide_erotb>  (62) 
0

>  <r_i_glide_esite>  (62) 
0

>  <r_i_glide_emodel>  (62) 
-28.9074

>  <r_i_glide_energy>  (62) 
-20.8218

>  <r_i_glide_einternal>  (62) 
0.00357972

>  <r_i_glide_intrahb_reward>  (62) 
-0

>  <i_i_glide_confnum>  (62) 
1

>  <i_i_glide_posenum>  (62) 
7

>  <r_i_glide_eff_state_penalty>  (62) 
0

>  <ligand_id>  (62) 
19

>  <original_smiles>  (62) 
NC12CC3CC(C1)CC(O)(C3)C2

>  <smiles>  (62) 
[H]OC12C([H])([H])C3([H])C([H])([H])C([H])(C1([H])[H])C([H])([H])C([N+]([H])([H])[H])(C3([H])[H])C2([H])[H]

$$$$
19:0:2
     RDKit          3D

 30 32  0  0  1  0  0  0  0  0999 V2000
    2.5967   -3.4388   -3.1460 N   0  0  0  0  0  0  0  0  0  0  0  0
    3.4460   -3.0490   -2.0094 C   0  0  1  0  0  0  0  0  0  0  0  0
    4.8388   -3.7185   -2.1210 C   0  0  0  0  0  0  0  0  0  0  0  0
    5.7135   -3.3078   -0.9202 C   0  0  1  0  0  0  0  0  0  0  0  0
    5.8774   -1.7787   -0.9271 C   0  0  0  0  0  0  0  0  0  0  0  0
    4.4972   -1.1060   -0.7953 C   0  0  1  0  0  0  0  0  0  0  0  0
    3.6240   -1.5140   -1.9973 C   0  0  0  0  0  0  0  0  0  0  0  0
    3.8187   -1.5480    0.5161 C   0  0  0  0  0  0  0  0  0  0  0  0
    3.6557   -3.0804    0.5114 C   0  0  2  0  0  0  0  0  0  0  0  0
    3.0350   -3.4866    1.7116 O   0  0  0  0  0  0  0  0  0  0  0  0
    5.0411   -3.7530    0.3975 C   0  0  0  0  0  0  0  0  0  0  0  0
    2.7825   -3.4998   -0.6876 C   0  0  0  0  0  0  0  0  0  0  0  0
    2.5002   -4.4551   -3.1229 H   0  0  0  0  0  0  0  0  0  0  0  0
    3.0145   -3.1579   -4.0140 H   0  0  0  0  0  0  0  0  0  0  0  0
    4.7489   -4.8049   -2.1303 H   0  0  0  0  0  0  0  0  0  0  0  0
    5.3318   -3.4431   -3.0561 H   0  0  0  0  0  0  0  0  0  0  0  0
    6.6919   -3.7837   -1.0058 H   0  0  0  0  0  0  0  0  0  0  0  0
    6.5352   -1.4614   -0.1165 H   0  0  0  0  0  0  0  0  0  0  0  0
    6.3430   -1.4748   -1.8641 H   0  0  0  0  0  0  0  0  0  0  0  0
    4.6148   -0.0248   -0.7853 H   0  0  0  0  0  0  0  0  0  0  0  0
    4.0822   -1.1659   -2.9259 H   0  0  0  0  0  0  0  0  0  0  0  0
    2.6529   -1.0180   -1.9324 H   0  0  0  0  0  0  0  0  0  0  0  0
    4.4144   -1.2294    1.3713 H   0  0  0  0  0  0  0  0  0  0  0  0
    2.8495   -1.0571    0.6059 H   0  0  0  0  0  0  0  0  0  0  0  0
    2.2611   -2.9647    1.8393 H   0  0  0  0  0  0  0  0  0  0  0  0
    4.9446   -4.8396    0.4215 H   0  0  0  0  0  0  0  0  0  0  0  0
    5.6705   -3.4785    1.2473 H   0  0  0  0  0  0  0  0  0  0  0  0
    1.7930   -3.0551   -0.5960 H   0  0  0  0  0  0  0  0  0  0  0  0
    2.6370   -4.5813   -0.6834 H   0  0  0  0  0  0  0  0  0  0  0  0
    1.6831   -3.0180   -3.0605 H   0  0  0  0  0  0  0  0  0  0  0  0
  2  1  1  6
  1 13  1  0
  1 14  1  0
  1 30  1  0
  2  7  1  0
  2 12  1  0
  2  3  1  0
  3  4  1  0
  3 15  1  0
  3 16  1  0
  4 11  1  0
  4  5  1  0
  4 17  1  6
  5  6  1  0
  5 18  1  0
  5 19  1  0
  6  7  1  0
  6  8  1  0
  6 20  1  1
  7 21  1  0
  7 22  1  0
  8  9  1  0
  8 23  1  0
  8 24  1  0
  9 10  1  1
  9 11  1  0
  9 12  1  0
 10 25  1  0
 11 26  1  0
 11 27  1  0
 12 28  1  0
 12 29  1  0
M  CHG  1   1   1
M  END
>  <i_m_ct_stereo_status>  (63) 
1

>  <s_m_source_file>  (63) 
/var/tmp/pbs.5076255.sched01/tmpnv36izql/0kitkh5ys.sdf

>  <i_m_source_file_index>  (63) 
28

>  <i_lp_mmshare_version>  (63) 
48012

>  <i_f3d_flags>  (63) 
0

>  <s_epik_input>  (63) 
W05IMl1bQ0BAXTEyW0NIMl1bQ0BIXTNbQ0gyXVtDQEBIXShbQ0gyXTEpW0NIMl1bQ0BdKFtPSF0pKFtDSDJdMylbQ0gyXTI=

>  <s_epik_cmdline>  (63) 
J2VwaWtfcHl0aG9uJywgJy1waHQnLCAnMi4wJywgJy1waCcsICc3LjAnLCAnLXRuJywgJzgnLCAnLW1hJywgJzIwMCcsICctaW1hZScsICc8aW5maWxlLm1hZT4nLCAnLW9tYWUnLCAnPG91dGZpbGUubWFlPic=

>  <r_lp_tautomer_probability>  (63) 
1

>  <r_epik_Ionization_Penalty>  (63) 
7.2191e-05

>  <r_epik_Ionization_Penalty_Charging>  (63) 
7.20642e-05

>  <r_epik_Ionization_Penalty_Neutral>  (63) 
1.26874e-07

>  <r_epik_State_Penalty>  (63) 
-0

>  <r_epik_Charging_Adjusted_Penalty>  (63) 
7.20642e-05

>  <i_epik_Tot_Q>  (63) 
1

>  <i_epik_Tot_abs_Q>  (63) 
1

>  <s_lp_Force_Field>  (63) 
OPLS3e

>  <r_lp_Energy>  (63) 
-8.19876

>  <b_lp_Chiralities_Consistent>  (63) 
1

>  <s_lp_Variant>  (63) 
19:0-1

>  <s_i_glide_gridfile>  (63) 
pfpi4k_grid

>  <i_i_glide_lignum>  (63) 
28

>  <i_i_glide_rotatable_bonds>  (63) 
1

>  <r_i_docking_score>  (63) 
-4.23982

>  <r_i_glide_ligand_efficiency>  (63) 
-0.353319

>  <r_i_glide_ligand_efficiency_sa>  (63) 
-0.808898

>  <r_i_glide_ligand_efficiency_ln>  (63) 
-1.21662

>  <r_i_glide_gscore>  (63) 
-4.23982

>  <r_i_glide_lipo>  (63) 
-0.126278

>  <r_i_glide_hbond>  (63) 
0

>  <r_i_glide_metal>  (63) 
-0

>  <r_i_glide_rewards>  (63) 
-2.25

>  <r_i_glide_evdw>  (63) 
-14.7829

>  <r_i_glide_ecoul>  (63) 
-7.49601

>  <r_i_glide_erotb>  (63) 
0

>  <r_i_glide_esite>  (63) 
0

>  <r_i_glide_emodel>  (63) 
-30.0075

>  <r_i_glide_energy>  (63) 
-22.2789

>  <r_i_glide_einternal>  (63) 
0.104438

>  <r_i_glide_intrahb_reward>  (63) 
-0

>  <i_i_glide_confnum>  (63) 
2

>  <i_i_glide_posenum>  (63) 
6

>  <r_i_glide_eff_state_penalty>  (63) 
0

>  <ligand_id>  (63) 
19

>  <original_smiles>  (63) 
NC12CC3CC(C1)CC(O)(C3)C2

>  <smiles>  (63) 
[H]OC12C([H])([H])C3([H])C([H])([H])C([H])(C1([H])[H])C([H])([H])C([N+]([H])([H])[H])(C3([H])[H])C2([H])[H]

$$$$
21:0:0
     RDKit          3D

 91 98  0  0  1  0  0  0  0  0999 V2000
    7.6410   -4.6284    0.7413 C   0  0  0  0  0  0  0  0  0  0  0  0
    6.3898   -5.3931    1.1154 C   0  0  0  0  0  0  0  0  0  0  0  0
    5.3963   -5.7969    0.3289 C   0  0  0  0  0  0  0  0  0  0  0  0
    4.4147   -6.6562    1.0867 C   0  0  1  0  0  0  0  0  0  0  0  0
    4.8120   -8.1284    0.8348 C   0  0  0  0  0  0  0  0  0  0  0  0
    4.4692   -9.1965    1.8957 C   0  0  1  0  0  0  0  0  0  0  0  0
    5.4104  -10.2325    1.6320 O   0  0  0  0  0  0  0  0  0  0  0  0
    4.5435   -8.7091    3.4118 C   0  0  2  0  0  0  0  0  0  0  0  0
    4.0547   -9.7845    4.5276 C   0  0  2  0  0  0  0  0  0  0  0  0
    3.9080  -11.2347    3.9289 C   0  0  0  0  0  0  0  0  0  0  0  0
    2.3834   -9.5518    4.9164 C   0  0  2  0  0  0  0  0  0  0  0  0
    1.7744   -8.8591    3.6696 C   0  0  1  0  0  0  0  0  0  0  0  0
    0.3650   -8.8231    3.6057 O   0  0  0  0  0  0  0  0  0  0  0  0
    2.4867   -7.5309    3.2105 C   0  0  1  0  0  0  0  0  0  0  0  0
    1.6043   -6.4914    2.8285 O   0  0  0  0  0  0  0  0  0  0  0  0
    4.0251   -7.2131    3.6914 C   0  0  2  0  0  0  0  0  0  0  0  0
    4.6382   -6.2328    2.5737 C   0  0  2  0  0  0  0  0  0  0  0  0
    3.9839   -4.9837    2.6799 O   0  0  0  0  0  0  0  0  0  0  0  0
    6.1542   -5.8718    2.5219 C   0  0  0  0  0  0  0  0  0  0  0  0
    4.1527   -6.5077    5.2798 C   0  0  1  0  0  0  0  0  0  0  0  0
    3.7489   -7.3444    6.3449 C   0  0  0  0  0  0  0  0  0  0  0  0
    3.3338   -6.4152    7.4374 C   0  0  1  0  0  0  0  0  0  0  0  0
    4.4771   -5.5196    7.3484 O   0  0  0  0  0  0  0  0  0  0  0  0
    5.3504   -6.1890    6.4143 C   0  0  2  0  0  0  0  0  0  0  0  0
    6.5699   -5.5331    5.7863 C   0  0  0  0  0  0  0  0  0  0  0  0
    7.6418   -6.5688    5.2322 C   0  0  0  0  0  0  0  0  0  0  0  0
    7.3306   -8.0952    4.9688 C   0  0  0  0  0  0  0  0  0  0  0  0
    8.1060   -8.7290    4.2567 O   0  0  0  0  0  0  0  0  0  0  0  0
    6.1557   -8.6131    5.5651 O   0  0  0  0  0  0  0  0  0  0  0  0
    5.4241   -9.8984    5.4899 C   0  0  2  0  0  0  0  0  0  0  0  0
    6.4785  -10.9475    5.0121 C   0  0  0  0  0  0  0  0  0  0  0  0
    5.1530  -10.3288    6.9805 C   0  0  0  0  0  0  0  0  0  0  0  0
    6.0489   -9.6473    8.0676 C   0  0  0  0  0  0  0  0  0  0  0  0
    5.6607   -8.2142    8.5093 C   0  0  0  0  0  0  0  0  0  0  0  0
    5.0659   -8.0520    9.5728 O   0  0  0  0  0  0  0  0  0  0  0  0
    6.1195   -6.9820    7.6642 C   0  0  0  0  0  0  0  0  0  0  0  0
    2.0773   -6.0757    6.6982 C   0  0  1  0  0  0  0  0  0  0  0  0
    2.8854   -5.5217    5.4604 C   0  0  0  0  0  0  0  0  0  0  0  0
    1.0702   -7.4058    6.6231 C   0  0  0  0  0  0  0  0  0  0  0  0
    0.4998   -7.4998    8.0676 C   0  0  0  0  0  0  0  0  0  0  0  0
   -0.1340   -6.9434    5.7733 C   0  0  0  0  0  0  0  0  0  0  0  0
    1.5749   -8.9987    6.2867 C   0  0  1  0  0  0  0  0  0  0  0  0
    0.4570   -9.8539    6.4803 O   0  0  0  0  0  0  0  0  0  0  0  0
    7.6954   -3.7046    1.3122 H   0  0  0  0  0  0  0  0  0  0  0  0
    7.6553   -4.3772   -0.3183 H   0  0  0  0  0  0  0  0  0  0  0  0
    8.5226   -5.2279    0.9672 H   0  0  0  0  0  0  0  0  0  0  0  0
    5.3124   -5.6082   -0.7290 H   0  0  0  0  0  0  0  0  0  0  0  0
    3.4152   -6.4377    0.7012 H   0  0  0  0  0  0  0  0  0  0  0  0
    4.3996   -8.4412   -0.1267 H   0  0  0  0  0  0  0  0  0  0  0  0
    5.8925   -8.1578    0.7082 H   0  0  0  0  0  0  0  0  0  0  0  0
    3.5055   -9.6168    1.6235 H   0  0  0  0  0  0  0  0  0  0  0  0
    4.9607  -10.9144    1.1222 H   0  0  0  0  0  0  0  0  0  0  0  0
    5.6083   -8.6499    3.3635 H   0  0  0  0  0  0  0  0  0  0  0  0
    3.6537  -11.9483    4.7168 H   0  0  0  0  0  0  0  0  0  0  0  0
    4.7776  -11.6506    3.4286 H   0  0  0  0  0  0  0  0  0  0  0  0
    3.1245  -11.3129    3.1729 H   0  0  0  0  0  0  0  0  0  0  0  0
    1.9635  -10.5562    4.8946 H   0  0  0  0  0  0  0  0  0  0  0  0
    1.9034   -9.5768    2.8711 H   0  0  0  0  0  0  0  0  0  0  0  0
    0.0199   -9.6572    3.8981 H   0  0  0  0  0  0  0  0  0  0  0  0
    2.5415   -7.7817    2.1625 H   0  0  0  0  0  0  0  0  0  0  0  0
    2.1406   -5.8042    2.4496 H   0  0  0  0  0  0  0  0  0  0  0  0
    4.3571   -4.4079    2.0225 H   0  0  0  0  0  0  0  0  0  0  0  0
    6.7927   -6.7386    2.6534 H   0  0  0  0  0  0  0  0  0  0  0  0
    6.4744   -5.0571    3.1480 H   0  0  0  0  0  0  0  0  0  0  0  0
    3.1158   -7.6572    5.6252 H   0  0  0  0  0  0  0  0  0  0  0  0
    4.1614   -8.2461    6.6332 H   0  0  0  0  0  0  0  0  0  0  0  0
    3.1817   -6.8583    8.4191 H   0  0  0  0  0  0  0  0  0  0  0  0
    6.2425   -4.7744    5.0916 H   0  0  0  0  0  0  0  0  0  0  0  0
    7.0779   -4.9408    6.5492 H   0  0  0  0  0  0  0  0  0  0  0  0
    8.0883   -6.1595    4.3281 H   0  0  0  0  0  0  0  0  0  0  0  0
    8.4795   -6.5723    5.9322 H   0  0  0  0  0  0  0  0  0  0  0  0
    6.1314  -11.9773    5.1179 H   0  0  0  0  0  0  0  0  0  0  0  0
    7.3882  -10.8898    5.6122 H   0  0  0  0  0  0  0  0  0  0  0  0
    6.7637  -10.8112    3.9680 H   0  0  0  0  0  0  0  0  0  0  0  0
    4.1080  -10.2134    7.2527 H   0  0  0  0  0  0  0  0  0  0  0  0
    5.2772  -11.4087    7.0819 H   0  0  0  0  0  0  0  0  0  0  0  0
    5.9953  -10.2580    8.9699 H   0  0  0  0  0  0  0  0  0  0  0  0
    7.0978   -9.6649    7.7679 H   0  0  0  0  0  0  0  0  0  0  0  0
    7.1306   -7.2747    7.4065 H   0  0  0  0  0  0  0  0  0  0  0  0
    6.3189   -6.2156    8.4166 H   0  0  0  0  0  0  0  0  0  0  0  0
    1.5581   -5.2389    7.1696 H   0  0  0  0  0  0  0  0  0  0  0  0
    3.2462   -4.5099    5.6620 H   0  0  0  0  0  0  0  0  0  0  0  0
    2.2305   -5.3418    4.6343 H   0  0  0  0  0  0  0  0  0  0  0  0
   -0.3847   -8.1358    8.1173 H   0  0  0  0  0  0  0  0  0  0  0  0
    0.1993   -6.5245    8.4529 H   0  0  0  0  0  0  0  0  0  0  0  0
    1.2248   -7.9152    8.7684 H   0  0  0  0  0  0  0  0  0  0  0  0
   -0.8653   -7.7409    5.6536 H   0  0  0  0  0  0  0  0  0  0  0  0
    0.1430   -6.5973    4.7850 H   0  0  0  0  0  0  0  0  0  0  0  0
   -0.6450   -6.1023    6.2456 H   0  0  0  0  0  0  0  0  0  0  0  0
    2.1944   -9.2886    7.1322 H   0  0  0  0  0  0  0  0  0  0  0  0
    0.7685  -10.7261    6.7262 H   0  0  0  0  0  0  0  0  0  0  0  0
  1  2  1  0
  1 44  1  0
  1 45  1  0
  1 46  1  0
  2 19  1  0
  2  3  2  0
  3  4  1  0
  3 47  1  0
  4 17  1  0
  4  5  1  0
  4 48  1  6
  5  6  1  0
  5 49  1  0
  5 50  1  0
  6  7  1  0
  6  8  1  0
  6 51  1  6
  7 52  1  0
  8 16  1  0
  8  9  1  0
  8 53  1  1
  9 30  1  0
  9 10  1  6
  9 11  1  0
 10 54  1  0
 10 55  1  0
 10 56  1  0
 11 42  1  0
 11 12  1  0
 11 57  1  6
 12 13  1  0
 12 14  1  0
 12 58  1  6
 13 59  1  0
 14 15  1  0
 14 16  1  0
 14 60  1  6
 15 61  1  0
 16 17  1  6
 16 20  1  0
 17 18  1  6
 17 19  1  0
 18 62  1  0
 19 63  1  0
 19 64  1  0
 20 24  1  0
 20 38  1  0
 20 21  1  1
 21 22  1  0
 21 65  1  0
 21 66  1  0
 22 23  1  0
 22 37  1  0
 22 67  1  1
 24 23  1  1
 24 36  1  0
 24 25  1  0
 25 26  1  0
 25 68  1  0
 25 69  1  0
 26 27  1  0
 26 70  1  0
 26 71  1  0
 27 28  2  0
 27 29  1  0
 29 30  1  0
 30 31  1  6
 30 32  1  0
 31 72  1  0
 31 73  1  0
 31 74  1  0
 32 33  1  0
 32 75  1  0
 32 76  1  0
 33 34  1  0
 33 77  1  0
 33 78  1  0
 34 35  2  0
 34 36  1  0
 36 79  1  0
 36 80  1  0
 37 38  1  0
 37 39  1  0
 37 81  1  1
 38 82  1  0
 38 83  1  0
 39 40  1  0
 39 41  1  0
 39 42  1  0
 40 84  1  0
 40 85  1  0
 40 86  1  0
 41 87  1  0
 41 88  1  0
 41 89  1  0
 42 43  1  0
 42 90  1  1
 43 91  1  0
M  END
>  <i_m_ct_stereo_status>  (64) 
1

>  <s_m_source_file>  (64) 
/var/tmp/pbs.5076255.sched01/tmpnv36izql/0kitkh5ys.sdf

>  <i_m_source_file_index>  (64) 
30

>  <i_lp_mmshare_version>  (64) 
48012

>  <i_f3d_flags>  (64) 
0

>  <s_epik_input>  (64) 
W0NIM11DKD1bQ0hdMSlbQ0gyXVtDQEBdMihbT0hdKVtDQEBIXTFbQ0gyXVtDQEBIXShbT0hdKVtDQEBIXTNbQ0BAXShbQ0gzXSkoW0NAQF0oW0NIM10pKE9DKD1PKVtDSDJdW0NIMl00KVtDSDJdW0NIMl1DKD1PKVtDSDJdNSlbQ0BIXShbQ0BASF0oW09IXSlbQ0BIXTZbT0hdKVtDQEhdKFtPSF0pQyhbQ0gzXSkoW0NIM10pW0NASF0oW0NIMl03KVtDQEBIXShbQ0gyXTgpT1tDQEBdNDVbQ0BdNzhbQ0BAXTIzNg==

>  <s_epik_cmdline>  (64) 
J2VwaWtfcHl0aG9uJywgJy1waHQnLCAnMi4wJywgJy1waCcsICc3LjAnLCAnLXRuJywgJzgnLCAnLW1hJywgJzIwMCcsICctaW1hZScsICc8aW5maWxlLm1hZT4nLCAnLW9tYWUnLCAnPG91dGZpbGUubWFlPic=

>  <r_lp_tautomer_probability>  (64) 
1

>  <r_epik_Ionization_Penalty>  (64) 
1.48451e-06

>  <r_epik_Ionization_Penalty_Charging>  (64) 
0

>  <r_epik_Ionization_Penalty_Neutral>  (64) 
1.48451e-06

>  <r_epik_State_Penalty>  (64) 
-0

>  <r_epik_Charging_Adjusted_Penalty>  (64) 
0

>  <i_epik_Tot_Q>  (64) 
0

>  <i_epik_Tot_abs_Q>  (64) 
0

>  <s_epik_Chemistry_Notes>  (64) 
This compound has an ester and may undergo hydrolysis at high or low pH.

>  <s_lp_Force_Field>  (64) 
OPLS3e

>  <r_lp_Energy>  (64) 
422.181

>  <b_lp_Chiralities_Consistent>  (64) 
1

>  <s_lp_Variant>  (64) 
21:0-1

>  <s_i_glide_gridfile>  (64) 
pfpi4k_grid

>  <i_i_glide_lignum>  (64) 
30

>  <i_i_glide_rotatable_bonds>  (64) 
5

>  <r_i_docking_score>  (64) 
-3.69888

>  <r_i_glide_ligand_efficiency>  (64) 
-0.0860205

>  <r_i_glide_ligand_efficiency_sa>  (64) 
-0.301364

>  <r_i_glide_ligand_efficiency_ln>  (64) 
-0.77688

>  <r_i_glide_gscore>  (64) 
-3.69888

>  <r_i_glide_lipo>  (64) 
-0.485798

>  <r_i_glide_hbond>  (64) 
-0.152

>  <r_i_glide_metal>  (64) 
-0

>  <r_i_glide_rewards>  (64) 
-0.5

>  <r_i_glide_evdw>  (64) 
-26.0903

>  <r_i_glide_ecoul>  (64) 
-8.37712

>  <r_i_glide_erotb>  (64) 
0

>  <r_i_glide_esite>  (64) 
0

>  <r_i_glide_emodel>  (64) 
-47.5298

>  <r_i_glide_energy>  (64) 
-34.4674

>  <r_i_glide_einternal>  (64) 
2.48368

>  <r_i_glide_intrahb_reward>  (64) 
-0.5

>  <i_i_glide_confnum>  (64) 
1

>  <i_i_glide_posenum>  (64) 
2

>  <r_i_glide_eff_state_penalty>  (64) 
0

>  <ligand_id>  (64) 
21

>  <original_smiles>  (64) 
CC1=CC2CC(O)C3C4(C)C5C(O)C(O)C3(C2(O)C1)C12CC(OC13CCC(=O)OC4(C)CCC(=O)C3)C(C2)C(C)(C)C5O

>  <smiles>  (64) 
[H]OC1([H])C([H])(O[H])C23C([H])(C([H])(O[H])C([H])([H])C4([H])C([H])=C(C([H])([H])[H])C([H])([H])C42O[H])C2(C([H])([H])[H])C1([H])C([H])(O[H])C(C([H])([H])[H])(C([H])([H])[H])C1([H])C([H])([H])C34C([H])([H])C1([H])OC41C([H])([H])C(=O)C([H])([H])C([H])([H])C2(C([H])([H])[H])OC(=O)C([H])([H])C1([H])[H]

$$$$
21:0:1
     RDKit          3D

 91 98  0  0  1  0  0  0  0  0999 V2000
    8.4388   -5.3151    0.8554 C   0  0  0  0  0  0  0  0  0  0  0  0
    7.5281   -6.3935    1.3930 C   0  0  0  0  0  0  0  0  0  0  0  0
    7.7099   -7.7079    1.3639 C   0  0  0  0  0  0  0  0  0  0  0  0
    6.6201   -8.4175    2.1357 C   0  0  1  0  0  0  0  0  0  0  0  0
    7.1826   -8.6728    3.5502 C   0  0  0  0  0  0  0  0  0  0  0  0
    6.1814   -8.7681    4.7266 C   0  0  1  0  0  0  0  0  0  0  0  0
    6.9908   -8.4662    5.8516 O   0  0  0  0  0  0  0  0  0  0  0  0
    4.8909   -7.8337    4.6491 C   0  0  2  0  0  0  0  0  0  0  0  0
    3.7709   -8.0324    5.8195 C   0  0  2  0  0  0  0  0  0  0  0  0
    4.3219   -8.8953    7.0159 C   0  0  0  0  0  0  0  0  0  0  0  0
    2.5287   -9.1383    5.3154 C   0  0  2  0  0  0  0  0  0  0  0  0
    3.2113  -10.0150    4.2306 C   0  0  1  0  0  0  0  0  0  0  0  0
    2.5256  -11.1914    3.8611 O   0  0  0  0  0  0  0  0  0  0  0  0
    3.8778   -9.2449    3.0262 C   0  0  1  0  0  0  0  0  0  0  0  0
    3.6244   -9.8002    1.7437 O   0  0  0  0  0  0  0  0  0  0  0  0
    4.2553   -7.6540    3.1854 C   0  0  2  0  0  0  0  0  0  0  0  0
    5.4462   -7.3845    2.1380 C   0  0  2  0  0  0  0  0  0  0  0  0
    4.8741   -7.4631    0.8486 O   0  0  0  0  0  0  0  0  0  0  0  0
    6.2602   -6.0560    2.1224 C   0  0  0  0  0  0  0  0  0  0  0  0
    2.9200   -6.5674    2.9211 C   0  0  1  0  0  0  0  0  0  0  0  0
    1.8769   -6.6472    3.8716 C   0  0  0  0  0  0  0  0  0  0  0  0
    0.6588   -6.1769    3.1598 C   0  0  1  0  0  0  0  0  0  0  0  0
    1.2648   -5.0079    2.5437 O   0  0  0  0  0  0  0  0  0  0  0  0
    2.5688   -4.9416    3.1549 C   0  0  2  0  0  0  0  0  0  0  0  0
    3.6879   -4.0405    2.6553 C   0  0  0  0  0  0  0  0  0  0  0  0
    4.8099   -3.7536    3.7452 C   0  0  0  0  0  0  0  0  0  0  0  0
    4.9958   -4.6100    5.0586 C   0  0  0  0  0  0  0  0  0  0  0  0
    6.0669   -4.5296    5.6572 O   0  0  0  0  0  0  0  0  0  0  0  0
    3.9110   -5.4423    5.4324 O   0  0  0  0  0  0  0  0  0  0  0  0
    3.6957   -6.4835    6.4605 C   0  0  2  0  0  0  0  0  0  0  0  0
    4.7471   -6.1794    7.5776 C   0  0  0  0  0  0  0  0  0  0  0  0
    2.3318   -6.1201    7.1575 C   0  0  0  0  0  0  0  0  0  0  0  0
    1.8326   -4.6483    6.9678 C   0  0  0  0  0  0  0  0  0  0  0  0
    1.1308   -4.3036    5.6321 C   0  0  0  0  0  0  0  0  0  0  0  0
   -0.0967   -4.2185    5.6054 O   0  0  0  0  0  0  0  0  0  0  0  0
    1.9797   -3.9535    4.3674 C   0  0  0  0  0  0  0  0  0  0  0  0
    0.5828   -7.4473    2.3735 C   0  0  1  0  0  0  0  0  0  0  0  0
    2.0099   -7.2101    1.7450 C   0  0  0  0  0  0  0  0  0  0  0  0
    0.2107   -8.7163    3.3886 C   0  0  0  0  0  0  0  0  0  0  0  0
   -1.2978   -8.4845    3.6665 C   0  0  0  0  0  0  0  0  0  0  0  0
    0.2236   -9.9824    2.5082 C   0  0  0  0  0  0  0  0  0  0  0  0
    0.8904   -8.9664    4.9280 C   0  0  1  0  0  0  0  0  0  0  0  0
    0.2191  -10.0647    5.5444 O   0  0  0  0  0  0  0  0  0  0  0  0
    7.9039   -4.7068    0.1277 H   0  0  0  0  0  0  0  0  0  0  0  0
    9.3131   -5.7511    0.3730 H   0  0  0  0  0  0  0  0  0  0  0  0
    8.7715   -4.6697    1.6687 H   0  0  0  0  0  0  0  0  0  0  0  0
    8.5469   -8.2199    0.9147 H   0  0  0  0  0  0  0  0  0  0  0  0
    6.3851   -9.3502    1.6176 H   0  0  0  0  0  0  0  0  0  0  0  0
    7.7811   -9.5835    3.5276 H   0  0  0  0  0  0  0  0  0  0  0  0
    7.8979   -7.8789    3.7749 H   0  0  0  0  0  0  0  0  0  0  0  0
    5.9294   -9.8159    4.8466 H   0  0  0  0  0  0  0  0  0  0  0  0
    7.2893   -7.5728    5.7721 H   0  0  0  0  0  0  0  0  0  0  0  0
    5.4801   -6.9595    4.8168 H   0  0  0  0  0  0  0  0  0  0  0  0
    3.5838   -8.9460    7.8189 H   0  0  0  0  0  0  0  0  0  0  0  0
    5.2414   -8.5588    7.4832 H   0  0  0  0  0  0  0  0  0  0  0  0
    4.5455   -9.9236    6.7375 H   0  0  0  0  0  0  0  0  0  0  0  0
    2.4063   -9.8052    6.1672 H   0  0  0  0  0  0  0  0  0  0  0  0
    4.0117  -10.5188    4.7618 H   0  0  0  0  0  0  0  0  0  0  0  0
    2.2413  -11.6388    4.6467 H   0  0  0  0  0  0  0  0  0  0  0  0
    4.8102   -9.7915    3.0369 H   0  0  0  0  0  0  0  0  0  0  0  0
    3.7513  -10.7451    1.7628 H   0  0  0  0  0  0  0  0  0  0  0  0
    4.4311   -8.3040    0.7942 H   0  0  0  0  0  0  0  0  0  0  0  0
    6.5544   -5.7385    3.1188 H   0  0  0  0  0  0  0  0  0  0  0  0
    5.8191   -5.2484    1.5627 H   0  0  0  0  0  0  0  0  0  0  0  0
    2.1695   -7.6113    3.8529 H   0  0  0  0  0  0  0  0  0  0  0  0
    1.9249   -6.4461    4.8859 H   0  0  0  0  0  0  0  0  0  0  0  0
   -0.2079   -5.9625    3.7790 H   0  0  0  0  0  0  0  0  0  0  0  0
    4.0373   -4.4063    1.7016 H   0  0  0  0  0  0  0  0  0  0  0  0
    3.2624   -3.0745    2.3861 H   0  0  0  0  0  0  0  0  0  0  0  0
    5.7741   -3.7008    3.2412 H   0  0  0  0  0  0  0  0  0  0  0  0
    4.6653   -2.7295    4.0962 H   0  0  0  0  0  0  0  0  0  0  0  0
    4.5609   -6.7327    8.4994 H   0  0  0  0  0  0  0  0  0  0  0  0
    4.7200   -5.1283    7.8675 H   0  0  0  0  0  0  0  0  0  0  0  0
    5.7677   -6.4074    7.2685 H   0  0  0  0  0  0  0  0  0  0  0  0
    1.5392   -6.8073    6.8773 H   0  0  0  0  0  0  0  0  0  0  0  0
    2.4024   -6.3063    8.2303 H   0  0  0  0  0  0  0  0  0  0  0  0
    1.0971   -4.4484    7.7496 H   0  0  0  0  0  0  0  0  0  0  0  0
    2.6441   -3.9400    7.1493 H   0  0  0  0  0  0  0  0  0  0  0  0
    2.7588   -3.3411    4.8073 H   0  0  0  0  0  0  0  0  0  0  0  0
    1.3901   -3.1881    3.8596 H   0  0  0  0  0  0  0  0  0  0  0  0
   -0.1562   -7.3820    1.5747 H   0  0  0  0  0  0  0  0  0  0  0  0
    1.9509   -6.5056    0.9124 H   0  0  0  0  0  0  0  0  0  0  0  0
    2.3295   -8.0870    1.2361 H   0  0  0  0  0  0  0  0  0  0  0  0
   -1.7623   -9.3879    4.0425 H   0  0  0  0  0  0  0  0  0  0  0  0
   -1.8548   -8.2240    2.7648 H   0  0  0  0  0  0  0  0  0  0  0  0
   -1.4755   -7.7057    4.4066 H   0  0  0  0  0  0  0  0  0  0  0  0
    0.0078  -10.8833    3.0790 H   0  0  0  0  0  0  0  0  0  0  0  0
    1.1720  -10.1250    2.0051 H   0  0  0  0  0  0  0  0  0  0  0  0
   -0.5222   -9.9281    1.7085 H   0  0  0  0  0  0  0  0  0  0  0  0
    0.5290   -8.1386    5.5349 H   0  0  0  0  0  0  0  0  0  0  0  0
   -0.6934  -10.1448    5.2640 H   0  0  0  0  0  0  0  0  0  0  0  0
  1  2  1  0
  1 44  1  0
  1 45  1  0
  1 46  1  0
  2 19  1  0
  2  3  2  0
  3  4  1  0
  3 47  1  0
  4 17  1  0
  4  5  1  0
  4 48  1  6
  5  6  1  0
  5 49  1  0
  5 50  1  0
  6  7  1  0
  6  8  1  0
  6 51  1  1
  7 52  1  0
  8 16  1  0
  8  9  1  0
  8 53  1  1
  9 30  1  0
  9 10  1  1
  9 11  1  0
 10 54  1  0
 10 55  1  0
 10 56  1  0
 11 42  1  0
 11 12  1  0
 11 57  1  1
 12 13  1  0
 12 14  1  0
 12 58  1  1
 13 59  1  0
 14 15  1  0
 14 16  1  0
 14 60  1  1
 15 61  1  0
 16 17  1  6
 16 20  1  0
 17 18  1  6
 17 19  1  0
 18 62  1  0
 19 63  1  0
 19 64  1  0
 20 24  1  0
 20 38  1  0
 20 21  1  1
 21 22  1  0
 21 65  1  0
 21 66  1  0
 22 23  1  0
 22 37  1  0
 22 67  1  1
 24 23  1  6
 24 36  1  0
 24 25  1  0
 25 26  1  0
 25 68  1  0
 25 69  1  0
 26 27  1  0
 26 70  1  0
 26 71  1  0
 27 28  2  0
 27 29  1  0
 29 30  1  0
 30 31  1  1
 30 32  1  0
 31 72  1  0
 31 73  1  0
 31 74  1  0
 32 33  1  0
 32 75  1  0
 32 76  1  0
 33 34  1  0
 33 77  1  0
 33 78  1  0
 34 35  2  0
 34 36  1  0
 36 79  1  0
 36 80  1  0
 37 38  1  0
 37 39  1  0
 37 81  1  6
 38 82  1  0
 38 83  1  0
 39 40  1  0
 39 41  1  0
 39 42  1  0
 40 84  1  0
 40 85  1  0
 40 86  1  0
 41 87  1  0
 41 88  1  0
 41 89  1  0
 42 43  1  0
 42 90  1  1
 43 91  1  0
M  END
>  <i_m_ct_stereo_status>  (65) 
1

>  <s_m_source_file>  (65) 
/var/tmp/pbs.5076255.sched01/tmpnv36izql/0kitkh5ys.sdf

>  <i_m_source_file_index>  (65) 
30

>  <i_lp_mmshare_version>  (65) 
48012

>  <i_f3d_flags>  (65) 
0

>  <s_epik_input>  (65) 
W0NIM11DKD1bQ0hdMSlbQ0gyXVtDQEBdMihbT0hdKVtDQEBIXTFbQ0gyXVtDQEBIXShbT0hdKVtDQEBIXTNbQ0BAXShbQ0gzXSkoW0NAQF0oW0NIM10pKE9DKD1PKVtDSDJdW0NIMl00KVtDSDJdW0NIMl1DKD1PKVtDSDJdNSlbQ0BIXShbQ0BASF0oW09IXSlbQ0BIXTZbT0hdKVtDQEhdKFtPSF0pQyhbQ0gzXSkoW0NIM10pW0NASF0oW0NIMl03KVtDQEBIXShbQ0gyXTgpT1tDQEBdNDVbQ0BdNzhbQ0BAXTIzNg==

>  <s_epik_cmdline>  (65) 
J2VwaWtfcHl0aG9uJywgJy1waHQnLCAnMi4wJywgJy1waCcsICc3LjAnLCAnLXRuJywgJzgnLCAnLW1hJywgJzIwMCcsICctaW1hZScsICc8aW5maWxlLm1hZT4nLCAnLW9tYWUnLCAnPG91dGZpbGUubWFlPic=

>  <r_lp_tautomer_probability>  (65) 
1

>  <r_epik_Ionization_Penalty>  (65) 
1.48451e-06

>  <r_epik_Ionization_Penalty_Charging>  (65) 
0

>  <r_epik_Ionization_Penalty_Neutral>  (65) 
1.48451e-06

>  <r_epik_State_Penalty>  (65) 
-0

>  <r_epik_Charging_Adjusted_Penalty>  (65) 
0

>  <i_epik_Tot_Q>  (65) 
0

>  <i_epik_Tot_abs_Q>  (65) 
0

>  <s_epik_Chemistry_Notes>  (65) 
This compound has an ester and may undergo hydrolysis at high or low pH.

>  <s_lp_Force_Field>  (65) 
OPLS3e

>  <r_lp_Energy>  (65) 
422.181

>  <b_lp_Chiralities_Consistent>  (65) 
1

>  <s_lp_Variant>  (65) 
21:0-1

>  <s_i_glide_gridfile>  (65) 
pfpi4k_grid

>  <i_i_glide_lignum>  (65) 
30

>  <i_i_glide_rotatable_bonds>  (65) 
5

>  <r_i_docking_score>  (65) 
-3.09973

>  <r_i_glide_ligand_efficiency>  (65) 
-0.0720868

>  <r_i_glide_ligand_efficiency_sa>  (65) 
-0.252549

>  <r_i_glide_ligand_efficiency_ln>  (65) 
-0.651041

>  <r_i_glide_gscore>  (65) 
-3.09973

>  <r_i_glide_lipo>  (65) 
-0.324955

>  <r_i_glide_hbond>  (65) 
-0.0130542

>  <r_i_glide_metal>  (65) 
-0

>  <r_i_glide_rewards>  (65) 
-0.500247

>  <r_i_glide_evdw>  (65) 
-30.5896

>  <r_i_glide_ecoul>  (65) 
-4.87999

>  <r_i_glide_erotb>  (65) 
0

>  <r_i_glide_esite>  (65) 
0

>  <r_i_glide_emodel>  (65) 
-47.7951

>  <r_i_glide_energy>  (65) 
-35.4696

>  <r_i_glide_einternal>  (65) 
1.32661

>  <r_i_glide_intrahb_reward>  (65) 
-0.5

>  <i_i_glide_confnum>  (65) 
2

>  <i_i_glide_posenum>  (65) 
8

>  <r_i_glide_eff_state_penalty>  (65) 
0

>  <ligand_id>  (65) 
21

>  <original_smiles>  (65) 
CC1=CC2CC(O)C3C4(C)C5C(O)C(O)C3(C2(O)C1)C12CC(OC13CCC(=O)OC4(C)CCC(=O)C3)C(C2)C(C)(C)C5O

>  <smiles>  (65) 
[H]OC1([H])C([H])(O[H])C23C([H])(C([H])(O[H])C([H])([H])C4([H])C([H])=C(C([H])([H])[H])C([H])([H])C42O[H])C2(C([H])([H])[H])C1([H])C([H])(O[H])C(C([H])([H])[H])(C([H])([H])[H])C1([H])C([H])([H])C34C([H])([H])C1([H])OC41C([H])([H])C(=O)C([H])([H])C([H])([H])C2(C([H])([H])[H])OC(=O)C([H])([H])C1([H])[H]

$$$$
21:0:2
     RDKit          3D

 91 98  0  0  1  0  0  0  0  0999 V2000
    4.0709   -2.1972   -0.5742 C   0  0  0  0  0  0  0  0  0  0  0  0
    4.1353   -3.5819    0.0219 C   0  0  0  0  0  0  0  0  0  0  0  0
    4.6517   -4.6828   -0.5103 C   0  0  0  0  0  0  0  0  0  0  0  0
    4.6203   -5.8245    0.4753 C   0  0  1  0  0  0  0  0  0  0  0  0
    6.0146   -5.8655    1.1395 C   0  0  0  0  0  0  0  0  0  0  0  0
    6.1203   -6.4478    2.5695 C   0  0  1  0  0  0  0  0  0  0  0  0
    7.3163   -5.8580    3.0549 O   0  0  0  0  0  0  0  0  0  0  0  0
    4.8952   -6.1567    3.5454 C   0  0  2  0  0  0  0  0  0  0  0  0
    4.9530   -6.8681    5.0107 C   0  0  2  0  0  0  0  0  0  0  0  0
    6.3828   -7.4442    5.3318 C   0  0  0  0  0  0  0  0  0  0  0  0
    4.1120   -8.3842    4.9887 C   0  0  2  0  0  0  0  0  0  0  0  0
    4.1376   -8.8405    3.5047 C   0  0  1  0  0  0  0  0  0  0  0  0
    3.7506  -10.1800    3.2615 O   0  0  0  0  0  0  0  0  0  0  0  0
    3.5682   -7.8035    2.4657 C   0  0  1  0  0  0  0  0  0  0  0  0
    2.7351   -8.3739    1.4751 O   0  0  0  0  0  0  0  0  0  0  0  0
    3.4399   -6.2173    2.8675 C   0  0  2  0  0  0  0  0  0  0  0  0
    3.4856   -5.4136    1.4724 C   0  0  2  0  0  0  0  0  0  0  0  0
    2.2680   -5.6825    0.8007 O   0  0  0  0  0  0  0  0  0  0  0  0
    3.6293   -3.8632    1.4092 C   0  0  0  0  0  0  0  0  0  0  0  0
    2.0066   -5.8192    3.7790 C   0  0  1  0  0  0  0  0  0  0  0  0
    1.9315   -6.3826    5.0756 C   0  0  0  0  0  0  0  0  0  0  0  0
    0.4756   -6.4660    5.3879 C   0  0  1  0  0  0  0  0  0  0  0  0
    0.1264   -5.1243    4.9399 O   0  0  0  0  0  0  0  0  0  0  0  0
    1.4093   -4.5230    4.6660 C   0  0  2  0  0  0  0  0  0  0  0  0
    1.5782   -3.2058    3.9239 C   0  0  0  0  0  0  0  0  0  0  0  0
    2.9770   -2.4986    4.1896 C   0  0  0  0  0  0  0  0  0  0  0  0
    4.2291   -3.2342    4.8075 C   0  0  0  0  0  0  0  0  0  0  0  0
    5.3305   -2.7030    4.6823 O   0  0  0  0  0  0  0  0  0  0  0  0
    3.9874   -4.4745    5.4468 O   0  0  0  0  0  0  0  0  0  0  0  0
    4.8381   -5.5364    6.0255 C   0  0  2  0  0  0  0  0  0  0  0  0
    6.1997   -4.8410    6.3587 C   0  0  0  0  0  0  0  0  0  0  0  0
    4.2412   -5.8340    7.4532 C   0  0  0  0  0  0  0  0  0  0  0  0
    3.3141   -4.7268    8.0590 C   0  0  0  0  0  0  0  0  0  0  0  0
    1.8494   -4.6733    7.5593 C   0  0  0  0  0  0  0  0  0  0  0  0
    0.9509   -5.1379    8.2632 O   0  0  0  0  0  0  0  0  0  0  0  0
    1.5020   -3.9371    6.2273 C   0  0  0  0  0  0  0  0  0  0  0  0
    0.3152   -7.6182    4.4433 C   0  0  1  0  0  0  0  0  0  0  0  0
    0.8107   -6.7548    3.2179 C   0  0  0  0  0  0  0  0  0  0  0  0
    1.1253   -8.9613    5.0199 C   0  0  0  0  0  0  0  0  0  0  0  0
    0.2206   -9.4458    6.1886 C   0  0  0  0  0  0  0  0  0  0  0  0
    0.9353  -10.0510    3.9426 C   0  0  0  0  0  0  0  0  0  0  0  0
    2.6863   -8.9370    5.6991 C   0  0  1  0  0  0  0  0  0  0  0  0
    2.9743  -10.2414    6.1893 O   0  0  0  0  0  0  0  0  0  0  0  0
    3.0348   -1.8630   -0.6238 H   0  0  0  0  0  0  0  0  0  0  0  0
    4.4917   -2.1754   -1.5791 H   0  0  0  0  0  0  0  0  0  0  0  0
    4.6264   -1.4986    0.0512 H   0  0  0  0  0  0  0  0  0  0  0  0
    5.0829   -4.7724   -1.4953 H   0  0  0  0  0  0  0  0  0  0  0  0
    4.4106   -6.7433   -0.0785 H   0  0  0  0  0  0  0  0  0  0  0  0
    6.6981   -6.4085    0.4868 H   0  0  0  0  0  0  0  0  0  0  0  0
    6.4049   -4.8461    1.1613 H   0  0  0  0  0  0  0  0  0  0  0  0
    6.3537   -7.5038    2.4744 H   0  0  0  0  0  0  0  0  0  0  0  0
    8.0399   -6.1890    2.5473 H   0  0  0  0  0  0  0  0  0  0  0  0
    5.1519   -5.1209    3.6076 H   0  0  0  0  0  0  0  0  0  0  0  0
    6.4144   -7.8416    6.3487 H   0  0  0  0  0  0  0  0  0  0  0  0
    7.2185   -6.7545    5.2616 H   0  0  0  0  0  0  0  0  0  0  0  0
    6.6756   -8.2593    4.6722 H   0  0  0  0  0  0  0  0  0  0  0  0
    4.7930   -9.0674    5.4918 H   0  0  0  0  0  0  0  0  0  0  0  0
    5.1922   -8.9702    3.2906 H   0  0  0  0  0  0  0  0  0  0  0  0
    4.0576  -10.4785    2.4144 H   0  0  0  0  0  0  0  0  0  0  0  0
    4.3832   -7.8845    1.7623 H   0  0  0  0  0  0  0  0  0  0  0  0
    3.0108   -9.2672    1.3257 H   0  0  0  0  0  0  0  0  0  0  0  0
    2.2212   -6.6281    0.6937 H   0  0  0  0  0  0  0  0  0  0  0  0
    4.3875   -3.4925    2.0930 H   0  0  0  0  0  0  0  0  0  0  0  0
    2.7102   -3.3056    1.4916 H   0  0  0  0  0  0  0  0  0  0  0  0
    2.4249   -7.1153    4.5892 H   0  0  0  0  0  0  0  0  0  0  0  0
    2.5702   -6.2229    5.8734 H   0  0  0  0  0  0  0  0  0  0  0  0
    0.2129   -6.6817    6.4209 H   0  0  0  0  0  0  0  0  0  0  0  0
    1.3112   -3.3464    2.8874 H   0  0  0  0  0  0  0  0  0  0  0  0
    0.8107   -2.5131    4.2669 H   0  0  0  0  0  0  0  0  0  0  0  0
    3.2977   -2.0090    3.2709 H   0  0  0  0  0  0  0  0  0  0  0  0
    2.7919   -1.6557    4.8585 H   0  0  0  0  0  0  0  0  0  0  0  0
    6.8473   -5.4519    6.9901 H   0  0  0  0  0  0  0  0  0  0  0  0
    6.0457   -3.9201    6.9217 H   0  0  0  0  0  0  0  0  0  0  0  0
    6.7704   -4.5884    5.4649 H   0  0  0  0  0  0  0  0  0  0  0  0
    3.7263   -6.7892    7.4845 H   0  0  0  0  0  0  0  0  0  0  0  0
    5.0505   -6.0068    8.1642 H   0  0  0  0  0  0  0  0  0  0  0  0
    3.2566   -4.8986    9.1359 H   0  0  0  0  0  0  0  0  0  0  0  0
    3.7734   -3.7417    7.9517 H   0  0  0  0  0  0  0  0  0  0  0  0
    2.1399   -3.0638    6.3029 H   0  0  0  0  0  0  0  0  0  0  0  0
    0.5268   -3.4905    6.4273 H   0  0  0  0  0  0  0  0  0  0  0  0
   -0.7386   -7.8583    4.2914 H   0  0  0  0  0  0  0  0  0  0  0  0
    0.0068   -6.1176    2.8499 H   0  0  0  0  0  0  0  0  0  0  0  0
    0.9690   -7.3777    2.3683 H   0  0  0  0  0  0  0  0  0  0  0  0
    0.4332  -10.4774    6.4691 H   0  0  0  0  0  0  0  0  0  0  0  0
   -0.8357   -9.4296    5.9196 H   0  0  0  0  0  0  0  0  0  0  0  0
    0.3339   -8.8358    7.0844 H   0  0  0  0  0  0  0  0  0  0  0  0
    1.4138  -10.9906    4.2180 H   0  0  0  0  0  0  0  0  0  0  0  0
    1.3076   -9.7488    2.9715 H   0  0  0  0  0  0  0  0  0  0  0  0
   -0.1211  -10.2732    3.7872 H   0  0  0  0  0  0  0  0  0  0  0  0
    2.5808   -8.3812    6.6300 H   0  0  0  0  0  0  0  0  0  0  0  0
    2.2131  -10.6033    6.6273 H   0  0  0  0  0  0  0  0  0  0  0  0
  1  2  1  0
  1 44  1  0
  1 45  1  0
  1 46  1  0
  2 19  1  0
  2  3  2  0
  3  4  1  0
  3 47  1  0
  4 17  1  0
  4  5  1  0
  4 48  1  6
  5  6  1  0
  5 49  1  0
  5 50  1  0
  6  7  1  0
  6  8  1  0
  6 51  1  6
  7 52  1  0
  8 16  1  0
  8  9  1  0
  8 53  1  1
  9 30  1  0
  9 10  1  1
  9 11  1  0
 10 54  1  0
 10 55  1  0
 10 56  1  0
 11 42  1  0
 11 12  1  0
 11 57  1  1
 12 13  1  0
 12 14  1  0
 12 58  1  6
 13 59  1  0
 14 15  1  0
 14 16  1  0
 14 60  1  6
 15 61  1  0
 16 17  1  6
 16 20  1  0
 17 18  1  6
 17 19  1  0
 18 62  1  0
 19 63  1  0
 19 64  1  0
 20 24  1  0
 20 38  1  0
 20 21  1  1
 21 22  1  0
 21 65  1  0
 21 66  1  0
 22 23  1  0
 22 37  1  0
 22 67  1  1
 24 23  1  1
 24 36  1  0
 24 25  1  0
 25 26  1  0
 25 68  1  0
 25 69  1  0
 26 27  1  0
 26 70  1  0
 26 71  1  0
 27 28  2  0
 27 29  1  0
 29 30  1  0
 30 31  1  1
 30 32  1  0
 31 72  1  0
 31 73  1  0
 31 74  1  0
 32 33  1  0
 32 75  1  0
 32 76  1  0
 33 34  1  0
 33 77  1  0
 33 78  1  0
 34 35  2  0
 34 36  1  0
 36 79  1  0
 36 80  1  0
 37 38  1  0
 37 39  1  0
 37 81  1  6
 38 82  1  0
 38 83  1  0
 39 40  1  0
 39 41  1  0
 39 42  1  0
 40 84  1  0
 40 85  1  0
 40 86  1  0
 41 87  1  0
 41 88  1  0
 41 89  1  0
 42 43  1  0
 42 90  1  1
 43 91  1  0
M  END
>  <i_m_ct_stereo_status>  (66) 
1

>  <s_m_source_file>  (66) 
/var/tmp/pbs.5076255.sched01/tmpnv36izql/0kitkh5ys.sdf

>  <i_m_source_file_index>  (66) 
30

>  <i_lp_mmshare_version>  (66) 
48012

>  <i_f3d_flags>  (66) 
0

>  <s_epik_input>  (66) 
W0NIM11DKD1bQ0hdMSlbQ0gyXVtDQEBdMihbT0hdKVtDQEBIXTFbQ0gyXVtDQEBIXShbT0hdKVtDQEBIXTNbQ0BAXShbQ0gzXSkoW0NAQF0oW0NIM10pKE9DKD1PKVtDSDJdW0NIMl00KVtDSDJdW0NIMl1DKD1PKVtDSDJdNSlbQ0BIXShbQ0BASF0oW09IXSlbQ0BIXTZbT0hdKVtDQEhdKFtPSF0pQyhbQ0gzXSkoW0NIM10pW0NASF0oW0NIMl03KVtDQEBIXShbQ0gyXTgpT1tDQEBdNDVbQ0BdNzhbQ0BAXTIzNg==

>  <s_epik_cmdline>  (66) 
J2VwaWtfcHl0aG9uJywgJy1waHQnLCAnMi4wJywgJy1waCcsICc3LjAnLCAnLXRuJywgJzgnLCAnLW1hJywgJzIwMCcsICctaW1hZScsICc8aW5maWxlLm1hZT4nLCAnLW9tYWUnLCAnPG91dGZpbGUubWFlPic=

>  <r_lp_tautomer_probability>  (66) 
1

>  <r_epik_Ionization_Penalty>  (66) 
1.48451e-06

>  <r_epik_Ionization_Penalty_Charging>  (66) 
0

>  <r_epik_Ionization_Penalty_Neutral>  (66) 
1.48451e-06

>  <r_epik_State_Penalty>  (66) 
-0

>  <r_epik_Charging_Adjusted_Penalty>  (66) 
0

>  <i_epik_Tot_Q>  (66) 
0

>  <i_epik_Tot_abs_Q>  (66) 
0

>  <s_epik_Chemistry_Notes>  (66) 
This compound has an ester and may undergo hydrolysis at high or low pH.

>  <s_lp_Force_Field>  (66) 
OPLS3e

>  <r_lp_Energy>  (66) 
422.181

>  <b_lp_Chiralities_Consistent>  (66) 
1

>  <s_lp_Variant>  (66) 
21:0-1

>  <s_i_glide_gridfile>  (66) 
pfpi4k_grid

>  <i_i_glide_lignum>  (66) 
30

>  <i_i_glide_rotatable_bonds>  (66) 
5

>  <r_i_docking_score>  (66) 
-2.86475

>  <r_i_glide_ligand_efficiency>  (66) 
-0.0666221

>  <r_i_glide_ligand_efficiency_sa>  (66) 
-0.233404

>  <r_i_glide_ligand_efficiency_ln>  (66) 
-0.601686

>  <r_i_glide_gscore>  (66) 
-2.86475

>  <r_i_glide_lipo>  (66) 
-0.270065

>  <r_i_glide_hbond>  (66) 
0

>  <r_i_glide_metal>  (66) 
-0

>  <r_i_glide_rewards>  (66) 
-0.50469

>  <r_i_glide_evdw>  (66) 
-31.3583

>  <r_i_glide_ecoul>  (66) 
-3.48054

>  <r_i_glide_erotb>  (66) 
0

>  <r_i_glide_esite>  (66) 
0

>  <r_i_glide_emodel>  (66) 
-46.4695

>  <r_i_glide_energy>  (66) 
-34.8388

>  <r_i_glide_einternal>  (66) 
1.51625

>  <r_i_glide_intrahb_reward>  (66) 
-0.5

>  <i_i_glide_confnum>  (66) 
2

>  <i_i_glide_posenum>  (66) 
39

>  <r_i_glide_eff_state_penalty>  (66) 
0

>  <ligand_id>  (66) 
21

>  <original_smiles>  (66) 
CC1=CC2CC(O)C3C4(C)C5C(O)C(O)C3(C2(O)C1)C12CC(OC13CCC(=O)OC4(C)CCC(=O)C3)C(C2)C(C)(C)C5O

>  <smiles>  (66) 
[H]OC1([H])C([H])(O[H])C23C([H])(C([H])(O[H])C([H])([H])C4([H])C([H])=C(C([H])([H])[H])C([H])([H])C42O[H])C2(C([H])([H])[H])C1([H])C([H])(O[H])C(C([H])([H])[H])(C([H])([H])[H])C1([H])C([H])([H])C34C([H])([H])C1([H])OC41C([H])([H])C(=O)C([H])([H])C([H])([H])C2(C([H])([H])[H])OC(=O)C([H])([H])C1([H])[H]

$$$$
22:0:0
     RDKit          3D

 54 59  0  0  1  0  0  0  0  0999 V2000
   -3.3555    3.0901    8.8378 C   0  0  0  0  0  0  0  0  0  0  0  0
   -1.8861    3.5108    9.0046 C   0  0  2  0  0  0  0  0  0  0  0  0
   -1.3413    4.4861    7.7209 C   0  0  0  0  0  0  0  0  0  0  0  0
    0.2491    4.1106    7.4181 C   0  0  1  0  0  0  0  0  0  0  0  0
    0.4576    3.4013    8.6640 C   0  0  1  0  0  0  0  0  0  0  0  0
   -0.6927    2.4635    8.1825 O   0  0  0  0  0  0  0  0  0  0  0  0
   -0.8099    2.2487    9.4125 C   0  0  1  0  0  0  0  0  0  0  0  0
    0.8301    2.0863    9.0320 C   0  0  1  0  0  0  0  0  0  0  0  0
    1.5178    1.8065    7.5970 C   0  0  1  0  0  0  0  0  0  0  0  0
    3.0198    1.5654    7.7553 C   0  0  0  0  0  0  0  0  0  0  0  0
    0.8010    0.8073    6.6571 C   0  0  0  0  0  0  0  0  0  0  0  0
    0.4515    1.8977    5.6156 C   0  0  2  0  0  0  0  0  0  0  0  0
   -1.0283    2.1343    5.2449 C   0  0  0  0  0  0  0  0  0  0  0  0
   -1.5504    1.4312    3.9914 C   0  0  0  0  0  0  0  0  0  0  0  0
   -0.6373    1.6854    2.7939 C   0  0  0  0  0  0  0  0  0  0  0  0
    0.7911    1.1874    3.0699 C   0  0  0  0  0  0  0  0  0  0  0  0
    0.7824   -0.3455    3.2649 C   0  0  0  0  0  0  0  0  0  0  0  0
    1.6519    1.4811    1.8223 C   0  0  0  0  0  0  0  0  0  0  0  0
    1.3539    1.8773    4.3525 C   0  0  1  0  0  0  0  0  0  0  0  0
    1.8488    3.3201    4.2411 C   0  0  0  0  0  0  0  0  0  0  0  0
    2.1037    3.7255    5.7022 C   0  0  0  0  0  0  0  0  0  0  0  0
    1.0512    2.9811    6.5674 C   0  0  1  0  0  0  0  0  0  0  0  0
   -3.4892    2.4664    7.9534 H   0  0  0  0  0  0  0  0  0  0  0  0
   -3.9801    3.9755    8.7225 H   0  0  0  0  0  0  0  0  0  0  0  0
   -3.7214    2.5492    9.7133 H   0  0  0  0  0  0  0  0  0  0  0  0
   -1.9140    4.1725    9.8727 H   0  0  0  0  0  0  0  0  0  0  0  0
   -1.9579    4.3198    6.8391 H   0  0  0  0  0  0  0  0  0  0  0  0
   -1.4377    5.5361    7.9968 H   0  0  0  0  0  0  0  0  0  0  0  0
    0.8087    5.0465    7.4520 H   0  0  0  0  0  0  0  0  0  0  0  0
    0.3768    4.0599    9.5535 H   0  0  0  0  0  0  0  0  0  0  0  0
   -1.2852    1.2859    9.6103 H   0  0  0  0  0  0  0  0  0  0  0  0
    1.4915    2.0884    9.8984 H   0  0  0  0  0  0  0  0  0  0  0  0
    3.5093    1.3311    6.8074 H   0  0  0  0  0  0  0  0  0  0  0  0
    3.2247    0.7388    8.4377 H   0  0  0  0  0  0  0  0  0  0  0  0
    3.5059    2.4486    8.1695 H   0  0  0  0  0  0  0  0  0  0  0  0
    1.4683    0.0298    6.2788 H   0  0  0  0  0  0  0  0  0  0  0  0
   -0.0665    0.3316    7.1076 H   0  0  0  0  0  0  0  0  0  0  0  0
   -1.6805    1.8503    6.0675 H   0  0  0  0  0  0  0  0  0  0  0  0
   -1.1687    3.2022    5.0942 H   0  0  0  0  0  0  0  0  0  0  0  0
   -1.6717    0.3653    4.1712 H   0  0  0  0  0  0  0  0  0  0  0  0
   -2.5444    1.8126    3.7629 H   0  0  0  0  0  0  0  0  0  0  0  0
   -1.0455    1.2180    1.8933 H   0  0  0  0  0  0  0  0  0  0  0  0
   -0.6128    2.7551    2.5840 H   0  0  0  0  0  0  0  0  0  0  0  0
    1.7943   -0.7529    3.2835 H   0  0  0  0  0  0  0  0  0  0  0  0
    0.2470   -0.8363    2.4524 H   0  0  0  0  0  0  0  0  0  0  0  0
    0.3048   -0.6408    4.1988 H   0  0  0  0  0  0  0  0  0  0  0  0
    2.6909    1.1747    1.9565 H   0  0  0  0  0  0  0  0  0  0  0  0
    1.6418    2.5422    1.5685 H   0  0  0  0  0  0  0  0  0  0  0  0
    1.2624    0.9403    0.9563 H   0  0  0  0  0  0  0  0  0  0  0  0
    2.2589    1.3138    4.5884 H   0  0  0  0  0  0  0  0  0  0  0  0
    2.7457    3.4131    3.6249 H   0  0  0  0  0  0  0  0  0  0  0  0
    1.0715    3.9553    3.8100 H   0  0  0  0  0  0  0  0  0  0  0  0
    3.1199    3.4349    5.9699 H   0  0  0  0  0  0  0  0  0  0  0  0
    2.0836    4.8143    5.7887 H   0  0  0  0  0  0  0  0  0  0  0  0
  1  2  1  0
  1 23  1  0
  1 24  1  0
  1 25  1  0
  2  7  1  0
  2  3  1  0
  2 26  1  1
  3  4  1  0
  3 27  1  0
  3 28  1  0
  4 22  1  0
  4  5  1  0
  4 29  1  1
  5  8  1  0
  5  6  1  0
  5 30  1  1
  6  7  1  0
  7  8  1  0
  7 31  1  6
  8  9  1  0
  8 32  1  1
  9 22  1  0
  9 10  1  1
  9 11  1  0
 10 33  1  0
 10 34  1  0
 10 35  1  0
 12 11  1  1
 11 36  1  0
 11 37  1  0
 12 19  1  0
 12 22  1  0
 12 13  1  0
 13 14  1  0
 13 38  1  0
 13 39  1  0
 14 15  1  0
 14 40  1  0
 14 41  1  0
 15 16  1  0
 15 42  1  0
 15 43  1  0
 16 17  1  0
 16 18  1  0
 16 19  1  0
 17 44  1  0
 17 45  1  0
 17 46  1  0
 18 47  1  0
 18 48  1  0
 18 49  1  0
 19 20  1  0
 19 50  1  1
 20 21  1  0
 20 51  1  0
 20 52  1  0
 22 21  1  6
 21 53  1  0
 21 54  1  0
M  END
>  <i_m_ct_stereo_status>  (67) 
1

>  <s_m_source_file>  (67) 
/var/tmp/pbs.5076255.sched01/tmpnv36izql/0kitkh5ys.sdf

>  <i_m_source_file_index>  (67) 
31

>  <i_lp_mmshare_version>  (67) 
48012

>  <i_f3d_flags>  (67) 
0

>  <s_epik_input>  (67) 
W0NIM11bQ0BIXShbQ0gyXTEpW0NAQEhdKE8yKVtDQEBIXShbQ0BAXTMoW0NIM10pW0NIMl00KVtDQEhdMltDQEhdMVtDQEBdMyhbQ0BAXTQ1NilbQ0gyXVtDSDJdW0NAQEhdNkMoW0NIM10pKFtDSDNdKVtDSDJdW0NIMl1bQ0gyXTU=

>  <s_epik_cmdline>  (67) 
J2VwaWtfcHl0aG9uJywgJy1waHQnLCAnMi4wJywgJy1waCcsICc3LjAnLCAnLXRuJywgJzgnLCAnLW1hJywgJzIwMCcsICctaW1hZScsICc8aW5maWxlLm1hZT4nLCAnLW9tYWUnLCAnPG91dGZpbGUubWFlPic=

>  <r_lp_tautomer_probability>  (67) 
1

>  <r_epik_Ionization_Penalty>  (67) 
1.24871e-10

>  <r_epik_Ionization_Penalty_Charging>  (67) 
0

>  <r_epik_Ionization_Penalty_Neutral>  (67) 
1.24871e-10

>  <r_epik_State_Penalty>  (67) 
-0

>  <r_epik_Charging_Adjusted_Penalty>  (67) 
0

>  <i_epik_Tot_Q>  (67) 
0

>  <i_epik_Tot_abs_Q>  (67) 
0

>  <s_lp_Force_Field>  (67) 
OPLS3e

>  <r_lp_Energy>  (67) 
321.022

>  <b_lp_Chiralities_Consistent>  (67) 
1

>  <s_lp_Variant>  (67) 
22:0-1

>  <s_i_glide_gridfile>  (67) 
pfpi4k_grid

>  <i_i_glide_lignum>  (67) 
31

>  <i_i_glide_rotatable_bonds>  (67) 
0

>  <r_i_docking_score>  (67) 
-2.17459

>  <r_i_glide_ligand_efficiency>  (67) 
-0.0988449

>  <r_i_glide_ligand_efficiency_sa>  (67) 
-0.276967

>  <r_i_glide_ligand_efficiency_ln>  (67) 
-0.531549

>  <r_i_glide_gscore>  (67) 
-2.17459

>  <r_i_glide_lipo>  (67) 
0

>  <r_i_glide_hbond>  (67) 
0

>  <r_i_glide_metal>  (67) 
-0

>  <r_i_glide_rewards>  (67) 
-1.36038

>  <r_i_glide_evdw>  (67) 
-13.8234

>  <r_i_glide_ecoul>  (67) 
-0.820287

>  <r_i_glide_erotb>  (67) 
0

>  <r_i_glide_esite>  (67) 
0

>  <r_i_glide_emodel>  (67) 
-16.3633

>  <r_i_glide_energy>  (67) 
-14.6437

>  <r_i_glide_einternal>  (67) 
0

>  <r_i_glide_intrahb_reward>  (67) 
-0

>  <i_i_glide_confnum>  (67) 
1

>  <i_i_glide_posenum>  (67) 
1

>  <r_i_glide_eff_state_penalty>  (67) 
0

>  <ligand_id>  (67) 
22

>  <original_smiles>  (67) 
CC1CC2C3OC1C3C1(C)CC34CCCC(C)(C)C3CCC214

>  <smiles>  (67) 
[H]C([H])([H])C1([H])C([H])([H])C2([H])C3([H])OC1([H])C3([H])C1(C([H])([H])[H])C([H])([H])C34C([H])([H])C([H])([H])C([H])([H])C(C([H])([H])[H])(C([H])([H])[H])C3([H])C([H])([H])C([H])([H])C214

$$$$
22:0:1
     RDKit          3D

 54 59  0  0  1  0  0  0  0  0999 V2000
   -4.5157    3.7459    9.1213 C   0  0  0  0  0  0  0  0  0  0  0  0
   -3.0282    3.7463    9.5005 C   0  0  2  0  0  0  0  0  0  0  0  0
   -2.0831    4.6834    8.4760 C   0  0  0  0  0  0  0  0  0  0  0  0
   -0.6777    3.8580    8.1211 C   0  0  1  0  0  0  0  0  0  0  0  0
   -0.8282    2.8896    9.1901 C   0  0  1  0  0  0  0  0  0  0  0  0
   -2.1663    2.5168    8.4928 O   0  0  0  0  0  0  0  0  0  0  0  0
   -2.4940    2.1826    9.6655 C   0  0  1  0  0  0  0  0  0  0  0  0
   -0.9777    1.4880    9.2965 C   0  0  1  0  0  0  0  0  0  0  0  0
   -0.2651    1.2569    7.8641 C   0  0  1  0  0  0  0  0  0  0  0  0
    1.0615    0.4984    8.0229 C   0  0  0  0  0  0  0  0  0  0  0  0
   -1.1612    0.7504    6.6994 C   0  0  0  0  0  0  0  0  0  0  0  0
   -1.0209    2.0723    5.9026 C   0  0  2  0  0  0  0  0  0  0  0  0
   -2.2882    2.8849    5.5501 C   0  0  0  0  0  0  0  0  0  0  0  0
   -2.8410    2.6998    4.1363 C   0  0  0  0  0  0  0  0  0  0  0  0
   -1.7805    2.7918    3.0588 C   0  0  0  0  0  0  0  0  0  0  0  0
   -0.6499    1.7624    3.2900 C   0  0  0  0  0  0  0  0  0  0  0  0
   -1.1780    0.3180    3.1747 C   0  0  0  0  0  0  0  0  0  0  0  0
    0.3927    1.9283    2.1612 C   0  0  0  0  0  0  0  0  0  0  0  0
   -0.0445    1.9746    4.6969 C   0  0  1  0  0  0  0  0  0  0  0  0
    0.8848    3.1620    4.9105 C   0  0  0  0  0  0  0  0  0  0  0  0
    1.1107    3.1851    6.4264 C   0  0  0  0  0  0  0  0  0  0  0  0
   -0.2106    2.6895    7.0839 C   0  0  1  0  0  0  0  0  0  0  0  0
   -4.7279    3.1976    8.2091 H   0  0  0  0  0  0  0  0  0  0  0  0
   -4.8043    4.7639    8.9264 H   0  0  0  0  0  0  0  0  0  0  0  0
   -5.1295    3.3263    9.9323 H   0  0  0  0  0  0  0  0  0  0  0  0
   -2.9671    4.2182   10.4891 H   0  0  0  0  0  0  0  0  0  0  0  0
   -2.6884    4.8354    7.5962 H   0  0  0  0  0  0  0  0  0  0  0  0
   -1.8720    5.6569    8.9308 H   0  0  0  0  0  0  0  0  0  0  0  0
    0.1522    4.5217    8.3620 H   0  0  0  0  0  0  0  0  0  0  0  0
   -0.7648    3.3621   10.1962 H   0  0  0  0  0  0  0  0  0  0  0  0
   -3.3822    1.5804    9.6560 H   0  0  0  0  0  0  0  0  0  0  0  0
   -0.4521    1.1118   10.1746 H   0  0  0  0  0  0  0  0  0  0  0  0
    1.5471    0.2977    7.0631 H   0  0  0  0  0  0  0  0  0  0  0  0
    0.9259   -0.4586    8.5269 H   0  0  0  0  0  0  0  0  0  0  0  0
    1.7558    1.0834    8.6264 H   0  0  0  0  0  0  0  0  0  0  0  0
   -0.7388   -0.1293    6.1978 H   0  0  0  0  0  0  0  0  0  0  0  0
   -2.1867    0.5389    6.9930 H   0  0  0  0  0  0  0  0  0  0  0  0
   -3.0952    2.6415    6.2374 H   0  0  0  0  0  0  0  0  0  0  0  0
   -2.0616    3.9405    5.6623 H   0  0  0  0  0  0  0  0  0  0  0  0
   -3.2701    1.7362    4.1039 H   0  0  0  0  0  0  0  0  0  0  0  0
   -3.6732    3.3758    3.9393 H   0  0  0  0  0  0  0  0  0  0  0  0
   -2.2700    2.6113    2.0890 H   0  0  0  0  0  0  0  0  0  0  0  0
   -1.3845    3.7973    3.0286 H   0  0  0  0  0  0  0  0  0  0  0  0
   -0.3464   -0.3973    3.1596 H   0  0  0  0  0  0  0  0  0  0  0  0
   -1.7419    0.2142    2.2491 H   0  0  0  0  0  0  0  0  0  0  0  0
   -1.8347    0.0293    4.0013 H   0  0  0  0  0  0  0  0  0  0  0  0
    1.2215    1.2236    2.2592 H   0  0  0  0  0  0  0  0  0  0  0  0
    0.7932    2.9394    2.1576 H   0  0  0  0  0  0  0  0  0  0  0  0
   -0.0759    1.7416    1.1928 H   0  0  0  0  0  0  0  0  0  0  0  0
    0.5976    1.1041    4.8496 H   0  0  0  0  0  0  0  0  0  0  0  0
    1.8174    3.0619    4.3555 H   0  0  0  0  0  0  0  0  0  0  0  0
    0.3939    4.0842    4.5901 H   0  0  0  0  0  0  0  0  0  0  0  0
    1.9397    2.5228    6.6647 H   0  0  0  0  0  0  0  0  0  0  0  0
    1.4210    4.1780    6.7360 H   0  0  0  0  0  0  0  0  0  0  0  0
  1  2  1  0
  1 23  1  0
  1 24  1  0
  1 25  1  0
  2  7  1  0
  2  3  1  0
  2 26  1  1
  3  4  1  0
  3 27  1  0
  3 28  1  0
  4 22  1  0
  4  5  1  0
  4 29  1  1
  5  8  1  0
  5  6  1  0
  5 30  1  1
  6  7  1  0
  7  8  1  0
  7 31  1  6
  8  9  1  0
  8 32  1  1
  9 22  1  0
  9 10  1  1
  9 11  1  0
 10 33  1  0
 10 34  1  0
 10 35  1  0
 12 11  1  1
 11 36  1  0
 11 37  1  0
 12 19  1  0
 12 22  1  0
 12 13  1  0
 13 14  1  0
 13 38  1  0
 13 39  1  0
 14 15  1  0
 14 40  1  0
 14 41  1  0
 15 16  1  0
 15 42  1  0
 15 43  1  0
 16 17  1  0
 16 18  1  0
 16 19  1  0
 17 44  1  0
 17 45  1  0
 17 46  1  0
 18 47  1  0
 18 48  1  0
 18 49  1  0
 19 20  1  0
 19 50  1  1
 20 21  1  0
 20 51  1  0
 20 52  1  0
 22 21  1  6
 21 53  1  0
 21 54  1  0
M  END
>  <i_m_ct_stereo_status>  (68) 
1

>  <s_m_source_file>  (68) 
/var/tmp/pbs.5076255.sched01/tmpnv36izql/0kitkh5ys.sdf

>  <i_m_source_file_index>  (68) 
31

>  <i_lp_mmshare_version>  (68) 
48012

>  <i_f3d_flags>  (68) 
0

>  <s_epik_input>  (68) 
W0NIM11bQ0BIXShbQ0gyXTEpW0NAQEhdKE8yKVtDQEBIXShbQ0BAXTMoW0NIM10pW0NIMl00KVtDQEhdMltDQEhdMVtDQEBdMyhbQ0BAXTQ1NilbQ0gyXVtDSDJdW0NAQEhdNkMoW0NIM10pKFtDSDNdKVtDSDJdW0NIMl1bQ0gyXTU=

>  <s_epik_cmdline>  (68) 
J2VwaWtfcHl0aG9uJywgJy1waHQnLCAnMi4wJywgJy1waCcsICc3LjAnLCAnLXRuJywgJzgnLCAnLW1hJywgJzIwMCcsICctaW1hZScsICc8aW5maWxlLm1hZT4nLCAnLW9tYWUnLCAnPG91dGZpbGUubWFlPic=

>  <r_lp_tautomer_probability>  (68) 
1

>  <r_epik_Ionization_Penalty>  (68) 
1.24871e-10

>  <r_epik_Ionization_Penalty_Charging>  (68) 
0

>  <r_epik_Ionization_Penalty_Neutral>  (68) 
1.24871e-10

>  <r_epik_State_Penalty>  (68) 
-0

>  <r_epik_Charging_Adjusted_Penalty>  (68) 
0

>  <i_epik_Tot_Q>  (68) 
0

>  <i_epik_Tot_abs_Q>  (68) 
0

>  <s_lp_Force_Field>  (68) 
OPLS3e

>  <r_lp_Energy>  (68) 
321.022

>  <b_lp_Chiralities_Consistent>  (68) 
1

>  <s_lp_Variant>  (68) 
22:0-1

>  <s_i_glide_gridfile>  (68) 
pfpi4k_grid

>  <i_i_glide_lignum>  (68) 
31

>  <i_i_glide_rotatable_bonds>  (68) 
0

>  <r_i_docking_score>  (68) 
-1.74397

>  <r_i_glide_ligand_efficiency>  (68) 
-0.0792713

>  <r_i_glide_ligand_efficiency_sa>  (68) 
-0.222121

>  <r_i_glide_ligand_efficiency_ln>  (68) 
-0.426289

>  <r_i_glide_gscore>  (68) 
-1.74397

>  <r_i_glide_lipo>  (68) 
-0.0479011

>  <r_i_glide_hbond>  (68) 
0

>  <r_i_glide_metal>  (68) 
-0

>  <r_i_glide_rewards>  (68) 
-1.36038

>  <r_i_glide_evdw>  (68) 
-3.95224

>  <r_i_glide_ecoul>  (68) 
-0.920528

>  <r_i_glide_erotb>  (68) 
0

>  <r_i_glide_esite>  (68) 
0

>  <r_i_glide_emodel>  (68) 
-5.48926

>  <r_i_glide_energy>  (68) 
-4.87277

>  <r_i_glide_einternal>  (68) 
0

>  <r_i_glide_intrahb_reward>  (68) 
-0

>  <i_i_glide_confnum>  (68) 
1

>  <i_i_glide_posenum>  (68) 
8

>  <r_i_glide_eff_state_penalty>  (68) 
0

>  <ligand_id>  (68) 
22

>  <original_smiles>  (68) 
CC1CC2C3OC1C3C1(C)CC34CCCC(C)(C)C3CCC214

>  <smiles>  (68) 
[H]C([H])([H])C1([H])C([H])([H])C2([H])C3([H])OC1([H])C3([H])C1(C([H])([H])[H])C([H])([H])C34C([H])([H])C([H])([H])C([H])([H])C(C([H])([H])[H])(C([H])([H])[H])C3([H])C([H])([H])C([H])([H])C214

$$$$
23:0:0
     RDKit          3D

 69 74  0  0  1  0  0  0  0  0999 V2000
   -0.9067   -7.6887    3.8470 C   0  0  0  0  0  0  0  0  0  0  0  0
    0.1160   -8.7176    3.3182 C   0  0  0  0  0  0  0  0  0  0  0  0
   -0.6157   -9.8530    2.6008 C   0  0  0  0  0  0  0  0  0  0  0  0
    1.1552   -8.0734    2.4042 C   0  0  0  0  0  0  0  0  0  0  0  0
    2.3670   -7.7243    3.2957 C   0  0  2  0  0  0  0  0  0  0  0  0
    2.4029   -6.3215    3.9462 C   0  0  0  0  0  0  0  0  0  0  0  0
    2.6794   -5.1762    2.9655 C   0  0  1  0  0  0  0  0  0  0  0  0
    2.8033   -3.8529    3.7152 C   0  0  0  0  0  0  0  0  0  0  0  0
    3.0865   -2.6880    2.7666 C   0  0  0  0  0  0  0  0  0  0  0  0
    4.4260   -2.8698    2.0180 C   0  0  1  0  0  0  0  0  0  0  0  0
    4.6708   -4.3108    1.4238 C   0  0  2  0  0  0  0  0  0  0  0  0
    5.0447   -4.2678   -0.0764 C   0  0  0  0  0  0  0  0  0  0  0  0
    6.2081   -3.3123   -0.4186 C   0  0  0  0  0  0  0  0  0  0  0  0
    7.5535   -3.9091    0.0627 C   0  0  0  0  0  0  0  0  0  0  0  0
    6.2271   -3.0818   -1.9476 C   0  0  0  0  0  0  0  0  0  0  0  0
    6.0430   -1.9457    0.2593 C   0  0  0  0  0  0  0  0  0  0  0  0
    6.9089   -1.0877    0.0916 O   0  0  0  0  0  0  0  0  0  0  0  0
    4.7725   -1.6504    1.0908 C   0  0  0  0  0  0  0  0  0  0  0  0
    3.6406   -1.2795    0.1065 C   0  0  0  0  0  0  0  0  0  0  0  0
    5.0520   -0.3902    1.9503 C   0  0  0  0  0  0  0  0  0  0  0  0
    3.5859   -5.4018    1.7255 C   0  0  2  0  0  0  0  0  0  0  0  0
    2.2793   -5.1681    0.9506 C   0  0  0  0  0  0  0  0  0  0  0  0
    1.4936   -5.0582    2.1509 O   0  0  0  0  0  0  0  0  0  0  0  0
    4.1451   -6.8645    1.5373 C   0  0  1  0  0  0  0  0  0  0  0  0
    5.6760   -7.1301    1.5946 C   0  0  0  0  0  0  0  0  0  0  0  0
    5.8244   -8.6213    1.9618 C   0  0  1  0  0  0  0  0  0  0  0  0
    7.3134   -8.9158    2.8959 Cl  0  0  0  0  0  0  0  0  0  0  0  0
    4.5717   -8.8591    2.7459 C   0  0  0  0  0  0  0  0  0  0  0  0
    3.6688   -7.8979    2.5447 C   0  0  0  0  0  0  0  0  0  0  0  0
    2.2270   -8.6713    4.3501 O   0  0  0  0  0  0  0  0  0  0  0  0
    1.0118   -9.2296    4.4472 C   0  0  0  0  0  0  0  0  0  0  0  0
    0.6473  -10.0275    5.3069 O   0  0  0  0  0  0  0  0  0  0  0  0
   -1.3922   -7.1671    3.0234 H   0  0  0  0  0  0  0  0  0  0  0  0
   -0.4648   -6.9391    4.4949 H   0  0  0  0  0  0  0  0  0  0  0  0
   -1.6846   -8.1824    4.4301 H   0  0  0  0  0  0  0  0  0  0  0  0
   -1.0910   -9.4996    1.6838 H   0  0  0  0  0  0  0  0  0  0  0  0
   -1.4031  -10.2540    3.2338 H   0  0  0  0  0  0  0  0  0  0  0  0
    0.0482  -10.6813    2.3410 H   0  0  0  0  0  0  0  0  0  0  0  0
    1.4722   -8.7972    1.6455 H   0  0  0  0  0  0  0  0  0  0  0  0
    0.7286   -7.2432    1.8548 H   0  0  0  0  0  0  0  0  0  0  0  0
    1.4962   -6.1121    4.5045 H   0  0  0  0  0  0  0  0  0  0  0  0
    3.2003   -6.3236    4.6919 H   0  0  0  0  0  0  0  0  0  0  0  0
    1.8934   -3.6470    4.2801 H   0  0  0  0  0  0  0  0  0  0  0  0
    3.6156   -3.9179    4.4421 H   0  0  0  0  0  0  0  0  0  0  0  0
    2.2583   -2.5707    2.0632 H   0  0  0  0  0  0  0  0  0  0  0  0
    3.1068   -1.7744    3.3582 H   0  0  0  0  0  0  0  0  0  0  0  0
    5.1630   -2.7992    2.8216 H   0  0  0  0  0  0  0  0  0  0  0  0
    5.5754   -4.6080    1.9393 H   0  0  0  0  0  0  0  0  0  0  0  0
    5.3012   -5.2619   -0.4377 H   0  0  0  0  0  0  0  0  0  0  0  0
    4.1798   -4.0015   -0.6774 H   0  0  0  0  0  0  0  0  0  0  0  0
    7.7044   -4.9168   -0.3196 H   0  0  0  0  0  0  0  0  0  0  0  0
    7.5987   -3.9710    1.1516 H   0  0  0  0  0  0  0  0  0  0  0  0
    8.4055   -3.3076   -0.2616 H   0  0  0  0  0  0  0  0  0  0  0  0
    6.2953   -4.0204   -2.4904 H   0  0  0  0  0  0  0  0  0  0  0  0
    7.0643   -2.4589   -2.2661 H   0  0  0  0  0  0  0  0  0  0  0  0
    5.3061   -2.6081   -2.2890 H   0  0  0  0  0  0  0  0  0  0  0  0
    2.8238   -0.7582    0.6089 H   0  0  0  0  0  0  0  0  0  0  0  0
    3.2013   -2.1433   -0.3832 H   0  0  0  0  0  0  0  0  0  0  0  0
    3.9998   -0.6179   -0.6831 H   0  0  0  0  0  0  0  0  0  0  0  0
    4.1788   -0.0517    2.5075 H   0  0  0  0  0  0  0  0  0  0  0  0
    5.3481    0.4508    1.3225 H   0  0  0  0  0  0  0  0  0  0  0  0
    5.8602   -0.5593    2.6642 H   0  0  0  0  0  0  0  0  0  0  0  0
    2.2413   -4.2436    0.3783 H   0  0  0  0  0  0  0  0  0  0  0  0
    1.9620   -6.0040    0.3335 H   0  0  0  0  0  0  0  0  0  0  0  0
    3.7919   -7.2472    0.5811 H   0  0  0  0  0  0  0  0  0  0  0  0
    6.2123   -6.8728    0.6824 H   0  0  0  0  0  0  0  0  0  0  0  0
    6.1164   -6.5657    2.4189 H   0  0  0  0  0  0  0  0  0  0  0  0
    5.8301   -9.2755    1.0893 H   0  0  0  0  0  0  0  0  0  0  0  0
    4.4577   -9.6919    3.4199 H   0  0  0  0  0  0  0  0  0  0  0  0
  1  2  1  0
  1 33  1  0
  1 34  1  0
  1 35  1  0
  2 31  1  0
  2  3  1  0
  2  4  1  0
  3 36  1  0
  3 37  1  0
  3 38  1  0
  4  5  1  0
  4 39  1  0
  4 40  1  0
  5 29  1  0
  5  6  1  0
  5 30  1  1
  6  7  1  0
  6 41  1  0
  6 42  1  0
  7 21  1  0
  7 23  1  6
  7  8  1  0
  8  9  1  0
  8 43  1  0
  8 44  1  0
  9 10  1  0
  9 45  1  0
  9 46  1  0
 10 18  1  0
 10 11  1  0
 10 47  1  1
 11 12  1  0
 11 21  1  0
 11 48  1  1
 12 13  1  0
 12 49  1  0
 12 50  1  0
 13 14  1  0
 13 15  1  0
 13 16  1  0
 14 51  1  0
 14 52  1  0
 14 53  1  0
 15 54  1  0
 15 55  1  0
 15 56  1  0
 16 17  2  0
 16 18  1  0
 18 19  1  0
 18 20  1  0
 19 57  1  0
 19 58  1  0
 19 59  1  0
 20 60  1  0
 20 61  1  0
 20 62  1  0
 21 22  1  6
 21 24  1  0
 22 23  1  0
 22 63  1  0
 22 64  1  0
 24 29  1  0
 24 25  1  0
 24 65  1  6
 25 26  1  0
 25 66  1  0
 25 67  1  0
 26 27  1  0
 26 28  1  0
 26 68  1  6
 28 29  2  0
 28 69  1  0
 30 31  1  0
 31 32  2  0
M  END
>  <i_m_ct_stereo_status>  (69) 
1

>  <s_m_source_file>  (69) 
/var/tmp/pbs.5076255.sched01/tmpnv36izql/0kitkh5ys.sdf

>  <i_m_source_file_index>  (69) 
32

>  <i_lp_mmshare_version>  (69) 
48012

>  <i_f3d_flags>  (69) 
0

>  <s_epik_input>  (69) 
TzFDKD1PKUMoW0NIM10pKFtDSDNdKVtDSDJdW0NAXTEyQzNbQ0BIXShbQ0gyXVtDQEBIXShDbClbQ0hdPTMpW0NAQF00NVtDQF0oW0NIMl0yKShPW0NIMl01KVtDSDJdW0NIMl1bQ0BIXTZbQ0BASF00W0NIMl1DKFtDSDNdKShbQ0gzXSlDKD1PKUM2KFtDSDNdKVtDSDNd

>  <s_epik_cmdline>  (69) 
J2VwaWtfcHl0aG9uJywgJy1waHQnLCAnMi4wJywgJy1waCcsICc3LjAnLCAnLXRuJywgJzgnLCAnLW1hJywgJzIwMCcsICctaW1hZScsICc8aW5maWxlLm1hZT4nLCAnLW9tYWUnLCAnPG91dGZpbGUubWFlPic=

>  <r_lp_tautomer_probability>  (69) 
1

>  <r_epik_Ionization_Penalty>  (69) 
5.31732e-12

>  <r_epik_Ionization_Penalty_Charging>  (69) 
0

>  <r_epik_Ionization_Penalty_Neutral>  (69) 
5.31732e-12

>  <r_epik_State_Penalty>  (69) 
-0

>  <r_epik_Charging_Adjusted_Penalty>  (69) 
0

>  <i_epik_Tot_Q>  (69) 
0

>  <i_epik_Tot_abs_Q>  (69) 
0

>  <s_epik_Chemistry_Notes>  (69) 
This compound has an ester and may undergo hydrolysis at high or low pH.

>  <s_lp_Force_Field>  (69) 
OPLS3e

>  <r_lp_Energy>  (69) 
42.548

>  <b_lp_Chiralities_Consistent>  (69) 
1

>  <s_lp_Variant>  (69) 
23:0-1

>  <s_i_glide_gridfile>  (69) 
pfpi4k_grid

>  <i_i_glide_lignum>  (69) 
32

>  <i_i_glide_rotatable_bonds>  (69) 
0

>  <r_i_docking_score>  (69) 
-3.05541

>  <r_i_glide_ligand_efficiency>  (69) 
-0.0954816

>  <r_i_glide_ligand_efficiency_sa>  (69) 
-0.303135

>  <r_i_glide_ligand_efficiency_ln>  (69) 
-0.68419

>  <r_i_glide_gscore>  (69) 
-3.05541

>  <r_i_glide_lipo>  (69) 
-0.912475

>  <r_i_glide_hbond>  (69) 
-0.107247

>  <r_i_glide_metal>  (69) 
-0

>  <r_i_glide_rewards>  (69) 
-0.333494

>  <r_i_glide_evdw>  (69) 
-33.0091

>  <r_i_glide_ecoul>  (69) 
-0.1668

>  <r_i_glide_erotb>  (69) 
0

>  <r_i_glide_esite>  (69) 
-0.0267165

>  <r_i_glide_emodel>  (69) 
-39.5462

>  <r_i_glide_energy>  (69) 
-33.1759

>  <r_i_glide_einternal>  (69) 
0

>  <r_i_glide_intrahb_reward>  (69) 
-0

>  <i_i_glide_confnum>  (69) 
4

>  <i_i_glide_posenum>  (69) 
14

>  <r_i_glide_eff_state_penalty>  (69) 
0

>  <ligand_id>  (69) 
23

>  <original_smiles>  (69) 
CC1(C)CC2(CC34CCC5C(CC(C)(C)C(=O)C5(C)C)C3(CO4)C3CC(Cl)C=C32)OC1=O

>  <smiles>  (69) 
[H]C1=C2C([H])(C([H])([H])C1([H])Cl)C13C([H])([H])OC1(C([H])([H])C([H])([H])C1([H])C3([H])C([H])([H])C(C([H])([H])[H])(C([H])([H])[H])C(=O)C1(C([H])([H])[H])C([H])([H])[H])C([H])([H])C21OC(=O)C(C([H])([H])[H])(C([H])([H])[H])C1([H])[H]

$$$$
23:0:1
     RDKit          3D

 69 74  0  0  1  0  0  0  0  0999 V2000
    3.6360   -1.1807    0.8317 C   0  0  0  0  0  0  0  0  0  0  0  0
    4.9144   -1.5891    1.5931 C   0  0  0  0  0  0  0  0  0  0  0  0
    5.4915   -0.3684    2.3213 C   0  0  0  0  0  0  0  0  0  0  0  0
    4.6602   -2.7409    2.5613 C   0  0  0  0  0  0  0  0  0  0  0  0
    5.0164   -4.0447    1.7986 C   0  0  2  0  0  0  0  0  0  0  0  0
    3.8643   -4.7428    1.0276 C   0  0  0  0  0  0  0  0  0  0  0  0
    2.8224   -5.4256    1.9334 C   0  0  1  0  0  0  0  0  0  0  0  0
    1.8333   -6.1987    1.0744 C   0  0  0  0  0  0  0  0  0  0  0  0
    0.7705   -6.9016    1.9230 C   0  0  0  0  0  0  0  0  0  0  0  0
    1.4007   -7.9575    2.8551 C   0  0  1  0  0  0  0  0  0  0  0  0
    2.7013   -7.4825    3.6176 C   0  0  2  0  0  0  0  0  0  0  0  0
    2.6053   -7.7234    5.1383 C   0  0  0  0  0  0  0  0  0  0  0  0
    2.2156   -9.1620    5.5366 C   0  0  0  0  0  0  0  0  0  0  0  0
    3.4159  -10.1155    5.3213 C   0  0  0  0  0  0  0  0  0  0  0  0
    1.8223   -9.1614    7.0299 C   0  0  0  0  0  0  0  0  0  0  0  0
    1.0449   -9.6912    4.6954 C   0  0  0  0  0  0  0  0  0  0  0  0
    0.6975  -10.8677    4.8252 O   0  0  0  0  0  0  0  0  0  0  0  0
    0.3336   -8.7528    3.6960 C   0  0  0  0  0  0  0  0  0  0  0  0
   -0.6387   -7.8294    4.4741 C   0  0  0  0  0  0  0  0  0  0  0  0
   -0.5328   -9.6150    2.7397 C   0  0  0  0  0  0  0  0  0  0  0  0
    3.2325   -6.0440    3.2892 C   0  0  2  0  0  0  0  0  0  0  0  0
    2.3304   -4.9272    3.8449 C   0  0  0  0  0  0  0  0  0  0  0  0
    2.0474   -4.3976    2.5592 O   0  0  0  0  0  0  0  0  0  0  0  0
    4.7523   -5.8744    3.6847 C   0  0  1  0  0  0  0  0  0  0  0  0
    5.6623   -7.1283    3.8757 C   0  0  0  0  0  0  0  0  0  0  0  0
    7.1091   -6.6184    3.6675 C   0  0  1  0  0  0  0  0  0  0  0  0
    8.1754   -7.8935    3.0455 Cl  0  0  0  0  0  0  0  0  0  0  0  0
    6.8849   -5.4679    2.7357 C   0  0  0  0  0  0  0  0  0  0  0  0
    5.6158   -5.0688    2.7287 C   0  0  0  0  0  0  0  0  0  0  0  0
    5.9533   -3.5549    0.8417 O   0  0  0  0  0  0  0  0  0  0  0  0
    5.9339   -2.2312    0.6506 C   0  0  0  0  0  0  0  0  0  0  0  0
    6.6199   -1.5989   -0.1610 O   0  0  0  0  0  0  0  0  0  0  0  0
    2.8358   -0.9258    1.5230 H   0  0  0  0  0  0  0  0  0  0  0  0
    3.2584   -1.9579    0.1765 H   0  0  0  0  0  0  0  0  0  0  0  0
    3.8137   -0.3095    0.2019 H   0  0  0  0  0  0  0  0  0  0  0  0
    4.8511   -0.0439    3.1388 H   0  0  0  0  0  0  0  0  0  0  0  0
    5.5843    0.4569    1.6185 H   0  0  0  0  0  0  0  0  0  0  0  0
    6.4841   -0.5610    2.7308 H   0  0  0  0  0  0  0  0  0  0  0  0
    5.3279   -2.6440    3.4270 H   0  0  0  0  0  0  0  0  0  0  0  0
    3.6541   -2.6970    2.9584 H   0  0  0  0  0  0  0  0  0  0  0  0
    3.3782   -4.0727    0.3329 H   0  0  0  0  0  0  0  0  0  0  0  0
    4.3303   -5.5107    0.4028 H   0  0  0  0  0  0  0  0  0  0  0  0
    1.3657   -5.5435    0.3425 H   0  0  0  0  0  0  0  0  0  0  0  0
    2.3792   -6.9642    0.5342 H   0  0  0  0  0  0  0  0  0  0  0  0
    0.2018   -6.1691    2.4997 H   0  0  0  0  0  0  0  0  0  0  0  0
    0.0636   -7.3749    1.2417 H   0  0  0  0  0  0  0  0  0  0  0  0
    1.7808   -8.7040    2.1544 H   0  0  0  0  0  0  0  0  0  0  0  0
    3.4359   -8.1913    3.2550 H   0  0  0  0  0  0  0  0  0  0  0  0
    3.5462   -7.4786    5.6259 H   0  0  0  0  0  0  0  0  0  0  0  0
    1.9024   -7.0303    5.5917 H   0  0  0  0  0  0  0  0  0  0  0  0
    4.3135   -9.7644    5.8277 H   0  0  0  0  0  0  0  0  0  0  0  0
    3.6511  -10.2146    4.2578 H   0  0  0  0  0  0  0  0  0  0  0  0
    3.1982  -11.1225    5.6856 H   0  0  0  0  0  0  0  0  0  0  0  0
    2.6339   -8.7972    7.6578 H   0  0  0  0  0  0  0  0  0  0  0  0
    1.5618  -10.1618    7.3772 H   0  0  0  0  0  0  0  0  0  0  0  0
    0.9535   -8.5238    7.2073 H   0  0  0  0  0  0  0  0  0  0  0  0
   -1.3763   -7.3729    3.8178 H   0  0  0  0  0  0  0  0  0  0  0  0
   -0.1324   -7.0192    4.9950 H   0  0  0  0  0  0  0  0  0  0  0  0
   -1.1925   -8.3999    5.2235 H   0  0  0  0  0  0  0  0  0  0  0  0
   -1.1108   -9.0261    2.0342 H   0  0  0  0  0  0  0  0  0  0  0  0
   -1.2559  -10.2275    3.2785 H   0  0  0  0  0  0  0  0  0  0  0  0
    0.0822  -10.3109    2.1656 H   0  0  0  0  0  0  0  0  0  0  0  0
    1.4196   -5.2759    4.3391 H   0  0  0  0  0  0  0  0  0  0  0  0
    2.8479   -4.2118    4.4873 H   0  0  0  0  0  0  0  0  0  0  0  0
    4.8019   -5.3107    4.6168 H   0  0  0  0  0  0  0  0  0  0  0  0
    5.5460   -7.6474    4.8216 H   0  0  0  0  0  0  0  0  0  0  0  0
    5.4815   -7.8393    3.0663 H   0  0  0  0  0  0  0  0  0  0  0  0
    7.5480   -6.2462    4.6019 H   0  0  0  0  0  0  0  0  0  0  0  0
    7.6858   -5.0581    2.1312 H   0  0  0  0  0  0  0  0  0  0  0  0
  1  2  1  0
  1 33  1  0
  1 34  1  0
  1 35  1  0
  2 31  1  0
  2  3  1  0
  2  4  1  0
  3 36  1  0
  3 37  1  0
  3 38  1  0
  4  5  1  0
  4 39  1  0
  4 40  1  0
  5 29  1  0
  5  6  1  0
  5 30  1  6
  6  7  1  0
  6 41  1  0
  6 42  1  0
  7 21  1  0
  7 23  1  1
  7  8  1  0
  8  9  1  0
  8 43  1  0
  8 44  1  0
  9 10  1  0
  9 45  1  0
  9 46  1  0
 10 18  1  0
 10 11  1  0
 10 47  1  6
 11 12  1  0
 11 21  1  0
 11 48  1  6
 12 13  1  0
 12 49  1  0
 12 50  1  0
 13 14  1  0
 13 15  1  0
 13 16  1  0
 14 51  1  0
 14 52  1  0
 14 53  1  0
 15 54  1  0
 15 55  1  0
 15 56  1  0
 16 17  2  0
 16 18  1  0
 18 19  1  0
 18 20  1  0
 19 57  1  0
 19 58  1  0
 19 59  1  0
 20 60  1  0
 20 61  1  0
 20 62  1  0
 21 22  1  1
 21 24  1  0
 22 23  1  0
 22 63  1  0
 22 64  1  0
 24 29  1  0
 24 25  1  0
 24 65  1  1
 25 26  1  0
 25 66  1  0
 25 67  1  0
 26 27  1  0
 26 28  1  0
 26 68  1  1
 28 29  2  0
 28 69  1  0
 30 31  1  0
 31 32  2  0
M  END
>  <i_m_ct_stereo_status>  (70) 
1

>  <s_m_source_file>  (70) 
/var/tmp/pbs.5076255.sched01/tmpnv36izql/0kitkh5ys.sdf

>  <i_m_source_file_index>  (70) 
32

>  <i_lp_mmshare_version>  (70) 
48012

>  <i_f3d_flags>  (70) 
0

>  <s_epik_input>  (70) 
TzFDKD1PKUMoW0NIM10pKFtDSDNdKVtDSDJdW0NAXTEyQzNbQ0BIXShbQ0gyXVtDQEBIXShDbClbQ0hdPTMpW0NAQF00NVtDQF0oW0NIMl0yKShPW0NIMl01KVtDSDJdW0NIMl1bQ0BIXTZbQ0BASF00W0NIMl1DKFtDSDNdKShbQ0gzXSlDKD1PKUM2KFtDSDNdKVtDSDNd

>  <s_epik_cmdline>  (70) 
J2VwaWtfcHl0aG9uJywgJy1waHQnLCAnMi4wJywgJy1waCcsICc3LjAnLCAnLXRuJywgJzgnLCAnLW1hJywgJzIwMCcsICctaW1hZScsICc8aW5maWxlLm1hZT4nLCAnLW9tYWUnLCAnPG91dGZpbGUubWFlPic=

>  <r_lp_tautomer_probability>  (70) 
1

>  <r_epik_Ionization_Penalty>  (70) 
5.31732e-12

>  <r_epik_Ionization_Penalty_Charging>  (70) 
0

>  <r_epik_Ionization_Penalty_Neutral>  (70) 
5.31732e-12

>  <r_epik_State_Penalty>  (70) 
-0

>  <r_epik_Charging_Adjusted_Penalty>  (70) 
0

>  <i_epik_Tot_Q>  (70) 
0

>  <i_epik_Tot_abs_Q>  (70) 
0

>  <s_epik_Chemistry_Notes>  (70) 
This compound has an ester and may undergo hydrolysis at high or low pH.

>  <s_lp_Force_Field>  (70) 
OPLS3e

>  <r_lp_Energy>  (70) 
42.548

>  <b_lp_Chiralities_Consistent>  (70) 
1

>  <s_lp_Variant>  (70) 
23:0-1

>  <s_i_glide_gridfile>  (70) 
pfpi4k_grid

>  <i_i_glide_lignum>  (70) 
32

>  <i_i_glide_rotatable_bonds>  (70) 
0

>  <r_i_docking_score>  (70) 
-2.15398

>  <r_i_glide_ligand_efficiency>  (70) 
-0.0673118

>  <r_i_glide_ligand_efficiency_sa>  (70) 
-0.213702

>  <r_i_glide_ligand_efficiency_ln>  (70) 
-0.482334

>  <r_i_glide_gscore>  (70) 
-2.15398

>  <r_i_glide_lipo>  (70) 
-0.254296

>  <r_i_glide_hbond>  (70) 
-0.0881065

>  <r_i_glide_metal>  (70) 
-0

>  <r_i_glide_rewards>  (70) 
-0.36871

>  <r_i_glide_evdw>  (70) 
-29.9434

>  <r_i_glide_ecoul>  (70) 
0.601843

>  <r_i_glide_erotb>  (70) 
0

>  <r_i_glide_esite>  (70) 
-0.0359727

>  <r_i_glide_emodel>  (70) 
-33.7281

>  <r_i_glide_energy>  (70) 
-29.3415

>  <r_i_glide_einternal>  (70) 
0

>  <r_i_glide_intrahb_reward>  (70) 
-0

>  <i_i_glide_confnum>  (70) 
2

>  <i_i_glide_posenum>  (70) 
17

>  <r_i_glide_eff_state_penalty>  (70) 
0

>  <ligand_id>  (70) 
23

>  <original_smiles>  (70) 
CC1(C)CC2(CC34CCC5C(CC(C)(C)C(=O)C5(C)C)C3(CO4)C3CC(Cl)C=C32)OC1=O

>  <smiles>  (70) 
[H]C1=C2C([H])(C([H])([H])C1([H])Cl)C13C([H])([H])OC1(C([H])([H])C([H])([H])C1([H])C3([H])C([H])([H])C(C([H])([H])[H])(C([H])([H])[H])C(=O)C1(C([H])([H])[H])C([H])([H])[H])C([H])([H])C21OC(=O)C(C([H])([H])[H])(C([H])([H])[H])C1([H])[H]

$$$$
23:0:2
     RDKit          3D

 69 74  0  0  1  0  0  0  0  0999 V2000
    3.6513   -2.1572   -1.0244 C   0  0  0  0  0  0  0  0  0  0  0  0
    5.0124   -2.3630   -0.3333 C   0  0  0  0  0  0  0  0  0  0  0  0
    5.7823   -1.0375   -0.2724 C   0  0  0  0  0  0  0  0  0  0  0  0
    4.8561   -2.9866    1.0560 C   0  0  0  0  0  0  0  0  0  0  0  0
    5.0140   -4.5170    0.8776 C   0  0  2  0  0  0  0  0  0  0  0  0
    3.7101   -5.3289    0.6287 C   0  0  0  0  0  0  0  0  0  0  0  0
    2.8055   -5.4662    1.8664 C   0  0  1  0  0  0  0  0  0  0  0  0
    1.6323   -6.3988    1.5387 C   0  0  0  0  0  0  0  0  0  0  0  0
    0.6983   -6.5576    2.7529 C   0  0  0  0  0  0  0  0  0  0  0  0
    1.4250   -7.2032    3.9507 C   0  0  1  0  0  0  0  0  0  0  0  0
    2.8630   -6.6168    4.2624 C   0  0  2  0  0  0  0  0  0  0  0  0
    3.0091   -6.2016    5.7445 C   0  0  0  0  0  0  0  0  0  0  0  0
    2.6092   -7.2946    6.7590 C   0  0  0  0  0  0  0  0  0  0  0  0
    3.7048   -8.3943    6.8033 C   0  0  0  0  0  0  0  0  0  0  0  0
    2.4856   -6.6449    8.1555 C   0  0  0  0  0  0  0  0  0  0  0  0
    1.2797   -7.9537    6.4004 C   0  0  0  0  0  0  0  0  0  0  0  0
    0.8209   -8.8453    7.1280 O   0  0  0  0  0  0  0  0  0  0  0  0
    0.4727   -7.4434    5.1845 C   0  0  0  0  0  0  0  0  0  0  0  0
   -0.2872   -6.1612    5.6185 C   0  0  0  0  0  0  0  0  0  0  0  0
   -0.5822   -8.5150    4.8145 C   0  0  0  0  0  0  0  0  0  0  0  0
    3.4054   -5.5125    3.2884 C   0  0  2  0  0  0  0  0  0  0  0  0
    2.6677   -4.1686    3.4224 C   0  0  0  0  0  0  0  0  0  0  0  0
    2.2138   -4.1932    2.0890 O   0  0  0  0  0  0  0  0  0  0  0  0
    4.9723   -5.3773    3.3707 C   0  0  1  0  0  0  0  0  0  0  0  0
    5.8374   -6.5412    3.9510 C   0  0  0  0  0  0  0  0  0  0  0  0
    7.2558   -6.3380    3.3561 C   0  0  1  0  0  0  0  0  0  0  0  0
    8.1222   -7.8832    3.1810 Cl  0  0  0  0  0  0  0  0  0  0  0  0
    6.9467   -5.6341    2.0726 C   0  0  0  0  0  0  0  0  0  0  0  0
    5.7045   -5.1382    2.0668 C   0  0  0  0  0  0  0  0  0  0  0  0
    5.7910   -4.5724   -0.3161 O   0  0  0  0  0  0  0  0  0  0  0  0
    5.8080   -3.4530   -1.0392 C   0  0  0  0  0  0  0  0  0  0  0  0
    6.3788   -3.2735   -2.1256 O   0  0  0  0  0  0  0  0  0  0  0  0
    3.0147   -1.5398   -0.3931 H   0  0  0  0  0  0  0  0  0  0  0  0
    3.1192   -3.0799   -1.2253 H   0  0  0  0  0  0  0  0  0  0  0  0
    3.7613   -1.6479   -1.9777 H   0  0  0  0  0  0  0  0  0  0  0  0
    5.3049   -0.3415    0.4087 H   0  0  0  0  0  0  0  0  0  0  0  0
    5.7980   -0.5685   -1.2567 H   0  0  0  0  0  0  0  0  0  0  0  0
    6.8120   -1.1739    0.0555 H   0  0  0  0  0  0  0  0  0  0  0  0
    5.6656   -2.6238    1.7058 H   0  0  0  0  0  0  0  0  0  0  0  0
    3.9384   -2.6614    1.5251 H   0  0  0  0  0  0  0  0  0  0  0  0
    3.1475   -4.9512   -0.2099 H   0  0  0  0  0  0  0  0  0  0  0  0
    4.0218   -6.3340    0.3237 H   0  0  0  0  0  0  0  0  0  0  0  0
    1.0666   -6.0182    0.6925 H   0  0  0  0  0  0  0  0  0  0  0  0
    2.0010   -7.3812    1.2559 H   0  0  0  0  0  0  0  0  0  0  0  0
    0.2860   -5.5859    3.0299 H   0  0  0  0  0  0  0  0  0  0  0  0
   -0.1407   -7.1693    2.4402 H   0  0  0  0  0  0  0  0  0  0  0  0
    1.6379   -8.2066    3.5891 H   0  0  0  0  0  0  0  0  0  0  0  0
    3.4796   -7.4898    4.1396 H   0  0  0  0  0  0  0  0  0  0  0  0
    4.0307   -5.8962    5.9502 H   0  0  0  0  0  0  0  0  0  0  0  0
    2.4341   -5.3049    5.9490 H   0  0  0  0  0  0  0  0  0  0  0  0
    4.6920   -7.9740    6.9885 H   0  0  0  0  0  0  0  0  0  0  0  0
    3.7487   -8.9380    5.8607 H   0  0  0  0  0  0  0  0  0  0  0  0
    3.5019   -9.1319    7.5817 H   0  0  0  0  0  0  0  0  0  0  0  0
    3.4108   -6.1499    8.4490 H   0  0  0  0  0  0  0  0  0  0  0  0
    2.2319   -7.3699    8.9248 H   0  0  0  0  0  0  0  0  0  0  0  0
    1.6968   -5.8863    8.1560 H   0  0  0  0  0  0  0  0  0  0  0  0
   -1.1008   -5.9403    4.9327 H   0  0  0  0  0  0  0  0  0  0  0  0
    0.3455   -5.2811    5.6585 H   0  0  0  0  0  0  0  0  0  0  0  0
   -0.7242   -6.2572    6.6118 H   0  0  0  0  0  0  0  0  0  0  0  0
   -1.2603   -8.2004    4.0226 H   0  0  0  0  0  0  0  0  0  0  0  0
   -1.2207   -8.7786    5.6637 H   0  0  0  0  0  0  0  0  0  0  0  0
   -0.1156   -9.4511    4.4997 H   0  0  0  0  0  0  0  0  0  0  0  0
    1.8459   -4.1674    4.1404 H   0  0  0  0  0  0  0  0  0  0  0  0
    3.3274   -3.3190    3.6355 H   0  0  0  0  0  0  0  0  0  0  0  0
    5.2119   -4.4924    3.9683 H   0  0  0  0  0  0  0  0  0  0  0  0
    5.8560   -6.6098    5.0271 H   0  0  0  0  0  0  0  0  0  0  0  0
    5.4821   -7.4914    3.5400 H   0  0  0  0  0  0  0  0  0  0  0  0
    7.8704   -5.6862    3.9862 H   0  0  0  0  0  0  0  0  0  0  0  0
    7.6454   -5.5997    1.2541 H   0  0  0  0  0  0  0  0  0  0  0  0
  1  2  1  0
  1 33  1  0
  1 34  1  0
  1 35  1  0
  2 31  1  0
  2  3  1  0
  2  4  1  0
  3 36  1  0
  3 37  1  0
  3 38  1  0
  4  5  1  0
  4 39  1  0
  4 40  1  0
  5 29  1  0
  5  6  1  0
  5 30  1  6
  6  7  1  0
  6 41  1  0
  6 42  1  0
  7 21  1  0
  7 23  1  1
  7  8  1  0
  8  9  1  0
  8 43  1  0
  8 44  1  0
  9 10  1  0
  9 45  1  0
  9 46  1  0
 10 18  1  0
 10 11  1  0
 10 47  1  6
 11 12  1  0
 11 21  1  0
 11 48  1  1
 12 13  1  0
 12 49  1  0
 12 50  1  0
 13 14  1  0
 13 15  1  0
 13 16  1  0
 14 51  1  0
 14 52  1  0
 14 53  1  0
 15 54  1  0
 15 55  1  0
 15 56  1  0
 16 17  2  0
 16 18  1  0
 18 19  1  0
 18 20  1  0
 19 57  1  0
 19 58  1  0
 19 59  1  0
 20 60  1  0
 20 61  1  0
 20 62  1  0
 21 22  1  1
 21 24  1  0
 22 23  1  0
 22 63  1  0
 22 64  1  0
 24 29  1  0
 24 25  1  0
 24 65  1  1
 25 26  1  0
 25 66  1  0
 25 67  1  0
 26 27  1  0
 26 28  1  0
 26 68  1  1
 28 29  2  0
 28 69  1  0
 30 31  1  0
 31 32  2  0
M  END
>  <i_m_ct_stereo_status>  (71) 
1

>  <s_m_source_file>  (71) 
/var/tmp/pbs.5076255.sched01/tmpnv36izql/0kitkh5ys.sdf

>  <i_m_source_file_index>  (71) 
32

>  <i_lp_mmshare_version>  (71) 
48012

>  <i_f3d_flags>  (71) 
0

>  <s_epik_input>  (71) 
TzFDKD1PKUMoW0NIM10pKFtDSDNdKVtDSDJdW0NAXTEyQzNbQ0BIXShbQ0gyXVtDQEBIXShDbClbQ0hdPTMpW0NAQF00NVtDQF0oW0NIMl0yKShPW0NIMl01KVtDSDJdW0NIMl1bQ0BIXTZbQ0BASF00W0NIMl1DKFtDSDNdKShbQ0gzXSlDKD1PKUM2KFtDSDNdKVtDSDNd

>  <s_epik_cmdline>  (71) 
J2VwaWtfcHl0aG9uJywgJy1waHQnLCAnMi4wJywgJy1waCcsICc3LjAnLCAnLXRuJywgJzgnLCAnLW1hJywgJzIwMCcsICctaW1hZScsICc8aW5maWxlLm1hZT4nLCAnLW9tYWUnLCAnPG91dGZpbGUubWFlPic=

>  <r_lp_tautomer_probability>  (71) 
1

>  <r_epik_Ionization_Penalty>  (71) 
5.31732e-12

>  <r_epik_Ionization_Penalty_Charging>  (71) 
0

>  <r_epik_Ionization_Penalty_Neutral>  (71) 
5.31732e-12

>  <r_epik_State_Penalty>  (71) 
-0

>  <r_epik_Charging_Adjusted_Penalty>  (71) 
0

>  <i_epik_Tot_Q>  (71) 
0

>  <i_epik_Tot_abs_Q>  (71) 
0

>  <s_epik_Chemistry_Notes>  (71) 
This compound has an ester and may undergo hydrolysis at high or low pH.

>  <s_lp_Force_Field>  (71) 
OPLS3e

>  <r_lp_Energy>  (71) 
42.548

>  <b_lp_Chiralities_Consistent>  (71) 
1

>  <s_lp_Variant>  (71) 
23:0-1

>  <s_i_glide_gridfile>  (71) 
pfpi4k_grid

>  <i_i_glide_lignum>  (71) 
32

>  <i_i_glide_rotatable_bonds>  (71) 
0

>  <r_i_docking_score>  (71) 
-1.87796

>  <r_i_glide_ligand_efficiency>  (71) 
-0.0586864

>  <r_i_glide_ligand_efficiency_sa>  (71) 
-0.186318

>  <r_i_glide_ligand_efficiency_ln>  (71) 
-0.420527

>  <r_i_glide_gscore>  (71) 
-1.87796

>  <r_i_glide_lipo>  (71) 
-0.164855

>  <r_i_glide_hbond>  (71) 
0

>  <r_i_glide_metal>  (71) 
-0

>  <r_i_glide_rewards>  (71) 
-0.398377

>  <r_i_glide_evdw>  (71) 
-29.5165

>  <r_i_glide_ecoul>  (71) 
1.17788

>  <r_i_glide_erotb>  (71) 
0

>  <r_i_glide_esite>  (71) 
-0.0155894

>  <r_i_glide_emodel>  (71) 
-32.1363

>  <r_i_glide_energy>  (71) 
-28.3386

>  <r_i_glide_einternal>  (71) 
0

>  <r_i_glide_intrahb_reward>  (71) 
-0

>  <i_i_glide_confnum>  (71) 
4

>  <i_i_glide_posenum>  (71) 
39

>  <r_i_glide_eff_state_penalty>  (71) 
0

>  <ligand_id>  (71) 
23

>  <original_smiles>  (71) 
CC1(C)CC2(CC34CCC5C(CC(C)(C)C(=O)C5(C)C)C3(CO4)C3CC(Cl)C=C32)OC1=O

>  <smiles>  (71) 
[H]C1=C2C([H])(C([H])([H])C1([H])Cl)C13C([H])([H])OC1(C([H])([H])C([H])([H])C1([H])C3([H])C([H])([H])C(C([H])([H])[H])(C([H])([H])[H])C(=O)C1(C([H])([H])[H])C([H])([H])[H])C([H])([H])C21OC(=O)C(C([H])([H])[H])(C([H])([H])[H])C1([H])[H]

$$$$
24:0:0
     RDKit          3D

 57 63  0  0  1  0  0  0  0  0999 V2000
    2.7534   -1.5419   -2.8921 C   0  0  0  0  0  0  0  0  0  0  0  0
    3.8640   -2.1759   -2.0859 C   0  0  0  0  0  0  0  0  0  0  0  0
    5.1318   -2.2765   -2.5330 C   0  0  0  0  0  0  0  0  0  0  0  0
    6.1808   -2.9070   -1.6174 C   0  0  0  0  0  0  0  0  0  0  0  0
    5.4795   -3.3499   -0.3127 C   0  0  2  0  0  0  0  0  0  0  0  0
    4.1814   -4.1408   -0.5509 C   0  0  2  0  0  0  0  0  0  0  0  0
    3.5438   -2.7338   -0.6981 C   0  0  1  0  0  0  0  0  0  0  0  0
    4.5767   -2.2835    0.3818 C   0  0  2  0  0  0  0  0  0  0  0  0
    5.0632   -0.8169    0.3681 C   0  0  0  0  0  0  0  0  0  0  0  0
    4.2054   -2.5832    1.8486 C   0  0  0  0  0  0  0  0  0  0  0  0
    4.7224   -2.0769    2.8400 O   0  0  0  0  0  0  0  0  0  0  0  0
    3.1347   -3.4158    1.9810 O   0  0  0  0  0  0  0  0  0  0  0  0
    3.2105   -4.8268    1.8418 C   0  0  2  0  0  0  0  0  0  0  0  0
    2.2429   -5.3092    0.7758 C   0  0  2  0  0  0  0  0  0  0  0  0
    1.7840   -6.6534    0.8888 O   0  0  0  0  0  0  0  0  0  0  0  0
    1.8320   -7.2822    2.1756 C   0  0  2  0  0  0  0  0  0  0  0  0
    0.9493   -6.5256    3.1684 C   0  0  0  0  0  0  0  0  0  0  0  0
    1.9080   -5.5866    3.9389 C   0  0  1  0  0  0  0  0  0  0  0  0
    1.3649   -4.2802    3.8730 O   0  0  0  0  0  0  0  0  0  0  0  0
    1.9785   -5.9252    5.4594 C   0  0  1  0  0  0  0  0  0  0  0  0
    0.7103   -5.7257    6.0597 O   0  0  0  0  0  0  0  0  0  0  0  0
    2.4489   -7.3171    5.8516 C   0  0  0  0  0  0  0  0  0  0  0  0
    3.1141   -8.2496    5.1615 C   0  0  0  0  0  0  0  0  0  0  0  0
    3.6851   -8.2425    3.7516 C   0  0  1  0  0  0  0  0  0  0  0  0
    3.4958   -9.5152    3.1641 O   0  0  0  0  0  0  0  0  0  0  0  0
    3.2566   -7.1533    2.7344 C   0  0  2  0  0  0  0  0  0  0  0  0
    3.2696   -5.6658    3.1533 C   0  0  1  0  0  0  0  0  0  0  0  0
    4.5296   -5.2725    3.9543 C   0  0  0  0  0  0  0  0  0  0  0  0
    3.7170   -5.1818    0.4590 C   0  0  1  0  0  0  0  0  0  0  0  0
    1.9561   -2.2648   -3.0676 H   0  0  0  0  0  0  0  0  0  0  0  0
    3.1191   -1.1800   -3.8506 H   0  0  0  0  0  0  0  0  0  0  0  0
    2.3515   -0.6909   -2.3446 H   0  0  0  0  0  0  0  0  0  0  0  0
    5.4120   -1.9028   -3.4937 H   0  0  0  0  0  0  0  0  0  0  0  0
    6.6295   -3.7517   -2.1336 H   0  0  0  0  0  0  0  0  0  0  0  0
    6.9755   -2.1948   -1.3998 H   0  0  0  0  0  0  0  0  0  0  0  0
    6.1310   -3.8531    0.3968 H   0  0  0  0  0  0  0  0  0  0  0  0
    4.2347   -4.6042   -1.5245 H   0  0  0  0  0  0  0  0  0  0  0  0
    2.4952   -2.6510   -0.4196 H   0  0  0  0  0  0  0  0  0  0  0  0
    5.2979   -0.4658   -0.6310 H   0  0  0  0  0  0  0  0  0  0  0  0
    5.9763   -0.6870    0.9545 H   0  0  0  0  0  0  0  0  0  0  0  0
    4.3049   -0.1307    0.7527 H   0  0  0  0  0  0  0  0  0  0  0  0
    1.5791   -4.6494    0.2400 H   0  0  0  0  0  0  0  0  0  0  0  0
    1.5061   -8.3166    2.0546 H   0  0  0  0  0  0  0  0  0  0  0  0
    0.1551   -5.9885    2.6504 H   0  0  0  0  0  0  0  0  0  0  0  0
    0.4584   -7.2320    3.8386 H   0  0  0  0  0  0  0  0  0  0  0  0
    1.9485   -3.6956    4.3271 H   0  0  0  0  0  0  0  0  0  0  0  0
    2.6537   -5.2285    5.9542 H   0  0  0  0  0  0  0  0  0  0  0  0
    0.7768   -5.9583    6.9721 H   0  0  0  0  0  0  0  0  0  0  0  0
    2.1964   -7.5849    6.8673 H   0  0  0  0  0  0  0  0  0  0  0  0
    3.3298   -9.1647    5.6953 H   0  0  0  0  0  0  0  0  0  0  0  0
    4.7634   -8.1571    3.8891 H   0  0  0  0  0  0  0  0  0  0  0  0
    3.7568  -10.1887    3.7743 H   0  0  0  0  0  0  0  0  0  0  0  0
    3.9550   -7.3433    1.9258 H   0  0  0  0  0  0  0  0  0  0  0  0
    4.7165   -5.9313    4.8008 H   0  0  0  0  0  0  0  0  0  0  0  0
    4.4449   -4.2596    4.3442 H   0  0  0  0  0  0  0  0  0  0  0  0
    5.4089   -5.3090    3.3118 H   0  0  0  0  0  0  0  0  0  0  0  0
    4.2894   -6.0889    0.3636 H   0  0  0  0  0  0  0  0  0  0  0  0
  1  2  1  0
  1 30  1  0
  1 31  1  0
  1 32  1  0
  2  7  1  0
  2  3  2  0
  3  4  1  0
  3 33  1  0
  4  5  1  0
  4 34  1  0
  4 35  1  0
  5  8  1  0
  5  6  1  0
  5 36  1  1
  6 29  1  0
  6  7  1  0
  6 37  1  6
  7  8  1  0
  7 38  1  1
  8  9  1  1
  8 10  1  0
  9 39  1  0
  9 40  1  0
  9 41  1  0
 10 11  2  0
 10 12  1  0
 13 12  1  1
 13 27  1  0
 13 29  1  0
 13 14  1  0
 14 15  1  0
 14 29  1  0
 14 42  1  6
 15 16  1  0
 16 26  1  0
 16 17  1  0
 16 43  1  6
 17 18  1  0
 17 44  1  0
 17 45  1  0
 18 27  1  0
 18 19  1  1
 18 20  1  0
 19 46  1  0
 20 21  1  0
 20 22  1  0
 20 47  1  1
 21 48  1  0
 22 23  2  0
 22 49  1  0
 23 24  1  0
 23 50  1  0
 24 25  1  0
 24 26  1  0
 24 51  1  1
 25 52  1  0
 26 27  1  0
 26 53  1  6
 27 28  1  1
 28 54  1  0
 28 55  1  0
 28 56  1  0
 29 57  1  1
M  END
>  <i_m_ct_stereo_status>  (72) 
1

>  <s_m_source_file>  (72) 
/var/tmp/pbs.5076255.sched01/tmpnv36izql/0kitkh5ys.sdf

>  <i_m_source_file_index>  (72) 
33

>  <i_lp_mmshare_version>  (72) 
48012

>  <i_f3d_flags>  (72) 
0

>  <s_epik_input>  (72) 
W0NIMl0xW0NIXT1DKFtDSDNdKVtDQEBIXTJbQ0BAXShbQ0gzXSkoQyg9TylPMylbQ0BIXTFbQ0BIXTJbQ0BASF00W0NASF0oW0NAXTM0NSlPW0NASF02W0NASF03W0NAXTUoW0NIM10pW0NAXShbQ0gyXTYpKFtPSF0pW0NAQEhdKFtPSF0pW0NIXT1bQ0hdW0NASF03W09IXQ==

>  <s_epik_cmdline>  (72) 
J2VwaWtfcHl0aG9uJywgJy1waHQnLCAnMi4wJywgJy1waCcsICc3LjAnLCAnLXRuJywgJzgnLCAnLW1hJywgJzIwMCcsICctaW1hZScsICc8aW5maWxlLm1hZT4nLCAnLW9tYWUnLCAnPG91dGZpbGUubWFlPic=

>  <r_lp_tautomer_probability>  (72) 
1

>  <r_epik_Ionization_Penalty>  (72) 
2.40142e-07

>  <r_epik_Ionization_Penalty_Charging>  (72) 
0

>  <r_epik_Ionization_Penalty_Neutral>  (72) 
2.40142e-07

>  <r_epik_State_Penalty>  (72) 
-0

>  <r_epik_Charging_Adjusted_Penalty>  (72) 
0

>  <i_epik_Tot_Q>  (72) 
0

>  <i_epik_Tot_abs_Q>  (72) 
0

>  <s_epik_Chemistry_Notes>  (72) 
This compound has an ester and may undergo hydrolysis at high or low pH.

>  <s_lp_Force_Field>  (72) 
OPLS3e

>  <r_lp_Energy>  (72) 
83.3408

>  <b_lp_Chiralities_Consistent>  (72) 
1

>  <s_lp_Variant>  (72) 
24:0-1

>  <s_i_glide_gridfile>  (72) 
pfpi4k_grid

>  <i_i_glide_lignum>  (72) 
33

>  <i_i_glide_rotatable_bonds>  (72) 
3

>  <r_i_docking_score>  (72) 
-1.94509

>  <r_i_glide_ligand_efficiency>  (72) 
-0.067072

>  <r_i_glide_ligand_efficiency_sa>  (72) 
-0.206066

>  <r_i_glide_ligand_efficiency_ln>  (72) 
-0.445376

>  <r_i_glide_gscore>  (72) 
-1.94509

>  <r_i_glide_lipo>  (72) 
-0.340377

>  <r_i_glide_hbond>  (72) 
0

>  <r_i_glide_metal>  (72) 
-0

>  <r_i_glide_rewards>  (72) 
-0.686479

>  <r_i_glide_evdw>  (72) 
-21.7307

>  <r_i_glide_ecoul>  (72) 
1.12203

>  <r_i_glide_erotb>  (72) 
0

>  <r_i_glide_esite>  (72) 
0

>  <r_i_glide_emodel>  (72) 
-22.7645

>  <r_i_glide_energy>  (72) 
-20.6087

>  <r_i_glide_einternal>  (72) 
0.876276

>  <r_i_glide_intrahb_reward>  (72) 
-0

>  <i_i_glide_confnum>  (72) 
1

>  <i_i_glide_posenum>  (72) 
1

>  <r_i_glide_eff_state_penalty>  (72) 
0

>  <ligand_id>  (72) 
24

>  <original_smiles>  (72) 
CC1=CCC2C3C1C2(C)C(=O)OC12C(OC4CC5(O)C(O)C=CC(O)C4C51C)C32

>  <smiles>  (72) 
[H]OC1([H])C([H])=C([H])C([H])(O[H])C2(O[H])C([H])([H])C3([H])OC4([H])C5([H])C6([H])C7([H])C(C([H])([H])[H])=C([H])C([H])([H])C6([H])C7(C([H])([H])[H])C(=O)OC45C2(C([H])([H])[H])C13[H]

$$$$
24:0:1
     RDKit          3D

 57 63  0  0  1  0  0  0  0  0999 V2000
    3.1131   -1.5261   -2.4451 C   0  0  0  0  0  0  0  0  0  0  0  0
    4.1217   -2.2231   -1.5544 C   0  0  0  0  0  0  0  0  0  0  0  0
    5.4365   -2.3172   -1.8358 C   0  0  0  0  0  0  0  0  0  0  0  0
    6.3666   -3.0213   -0.8511 C   0  0  0  0  0  0  0  0  0  0  0  0
    5.5136   -3.5366    0.3273 C   0  0  2  0  0  0  0  0  0  0  0  0
    4.2462   -4.2918   -0.1290 C   0  0  2  0  0  0  0  0  0  0  0  0
    3.6364   -2.8648   -0.2483 C   0  0  1  0  0  0  0  0  0  0  0  0
    4.5416   -2.4968    0.9738 C   0  0  2  0  0  0  0  0  0  0  0  0
    5.0430   -1.0363    1.0955 C   0  0  0  0  0  0  0  0  0  0  0  0
    3.9972   -2.8795    2.3632 C   0  0  0  0  0  0  0  0  0  0  0  0
    4.4087   -2.4319    3.4352 O   0  0  0  0  0  0  0  0  0  0  0  0
    2.9073   -3.6813    2.3449 O   0  0  0  0  0  0  0  0  0  0  0  0
    2.9980   -5.0872    2.1065 C   0  0  2  0  0  0  0  0  0  0  0  0
    2.1632   -5.4927    0.9046 C   0  0  2  0  0  0  0  0  0  0  0  0
    1.6684   -6.8367    0.8828 O   0  0  0  0  0  0  0  0  0  0  0  0
    1.5681   -7.5443    2.1255 C   0  0  2  0  0  0  0  0  0  0  0  0
    0.5828   -6.8408    3.0590 C   0  0  0  0  0  0  0  0  0  0  0  0
    1.4568   -5.9603    3.9882 C   0  0  1  0  0  0  0  0  0  0  0  0
    0.9363   -4.6420    3.9581 O   0  0  0  0  0  0  0  0  0  0  0  0
    1.3491   -6.3951    5.4863 C   0  0  1  0  0  0  0  0  0  0  0  0
    0.0229   -6.2135    5.9563 O   0  0  0  0  0  0  0  0  0  0  0  0
    1.7552   -7.8144    5.8451 C   0  0  0  0  0  0  0  0  0  0  0  0
    2.4915   -8.7166    5.1744 C   0  0  0  0  0  0  0  0  0  0  0  0
    3.2164   -8.6342    3.8419 C   0  0  1  0  0  0  0  0  0  0  0  0
    3.0698   -9.8757    3.1739 O   0  0  0  0  0  0  0  0  0  0  0  0
    2.9207   -7.4770    2.8484 C   0  0  2  0  0  0  0  0  0  0  0  0
    2.9003   -6.0120    3.3585 C   0  0  1  0  0  0  0  0  0  0  0  0
    4.0607   -5.6915    4.3264 C   0  0  0  0  0  0  0  0  0  0  0  0
    3.6632   -5.3736    0.7686 C   0  0  1  0  0  0  0  0  0  0  0  0
    2.3333   -2.2224   -2.7571 H   0  0  0  0  0  0  0  0  0  0  0  0
    3.5943   -1.1169   -3.3327 H   0  0  0  0  0  0  0  0  0  0  0  0
    2.6380   -0.7007   -1.9175 H   0  0  0  0  0  0  0  0  0  0  0  0
    5.8526   -1.8775   -2.7175 H   0  0  0  0  0  0  0  0  0  0  0  0
    6.8690   -3.8409   -1.3615 H   0  0  0  0  0  0  0  0  0  0  0  0
    7.1340   -2.3303   -0.5037 H   0  0  0  0  0  0  0  0  0  0  0  0
    6.0866   -4.0932    1.0702 H   0  0  0  0  0  0  0  0  0  0  0  0
    4.3985   -4.7224   -1.1186 H   0  0  0  0  0  0  0  0  0  0  0  0
    2.5611   -2.7845   -0.0913 H   0  0  0  0  0  0  0  0  0  0  0  0
    5.3984   -0.6239    0.1525 H   0  0  0  0  0  0  0  0  0  0  0  0
    5.8821   -0.9545    1.7906 H   0  0  0  0  0  0  0  0  0  0  0  0
    4.2515   -0.3637    1.4337 H   0  0  0  0  0  0  0  0  0  0  0  0
    1.5504   -4.7863    0.3649 H   0  0  0  0  0  0  0  0  0  0  0  0
    1.2501   -8.5622    1.9032 H   0  0  0  0  0  0  0  0  0  0  0  0
   -0.1471   -6.2662    2.4869 H   0  0  0  0  0  0  0  0  0  0  0  0
    0.0159   -7.5803    3.6263 H   0  0  0  0  0  0  0  0  0  0  0  0
    1.4771   -4.0971    4.5076 H   0  0  0  0  0  0  0  0  0  0  0  0
    1.9683   -5.7396    6.0996 H   0  0  0  0  0  0  0  0  0  0  0  0
   -0.0170   -6.5143    6.8514 H   0  0  0  0  0  0  0  0  0  0  0  0
    1.3943   -8.1432    6.8091 H   0  0  0  0  0  0  0  0  0  0  0  0
    2.6406   -9.6650    5.6725 H   0  0  0  0  0  0  0  0  0  0  0  0
    4.2737   -8.5748    4.1135 H   0  0  0  0  0  0  0  0  0  0  0  0
    3.7723   -9.9950    2.5513 H   0  0  0  0  0  0  0  0  0  0  0  0
    3.7102   -7.6232    2.1200 H   0  0  0  0  0  0  0  0  0  0  0  0
    4.1420   -6.4023    5.1477 H   0  0  0  0  0  0  0  0  0  0  0  0
    3.9382   -4.7028    4.7672 H   0  0  0  0  0  0  0  0  0  0  0  0
    5.0096   -5.7009    3.7914 H   0  0  0  0  0  0  0  0  0  0  0  0
    4.2403   -6.2868    0.6953 H   0  0  0  0  0  0  0  0  0  0  0  0
  1  2  1  0
  1 30  1  0
  1 31  1  0
  1 32  1  0
  2  7  1  0
  2  3  2  0
  3  4  1  0
  3 33  1  0
  4  5  1  0
  4 34  1  0
  4 35  1  0
  5  8  1  0
  5  6  1  0
  5 36  1  1
  6 29  1  0
  6  7  1  0
  6 37  1  6
  7  8  1  0
  7 38  1  1
  8  9  1  1
  8 10  1  0
  9 39  1  0
  9 40  1  0
  9 41  1  0
 10 11  2  0
 10 12  1  0
 13 12  1  1
 13 27  1  0
 13 29  1  0
 13 14  1  0
 14 15  1  0
 14 29  1  0
 14 42  1  6
 15 16  1  0
 16 26  1  0
 16 17  1  0
 16 43  1  6
 17 18  1  0
 17 44  1  0
 17 45  1  0
 18 27  1  0
 18 19  1  1
 18 20  1  0
 19 46  1  0
 20 21  1  0
 20 22  1  0
 20 47  1  1
 21 48  1  0
 22 23  2  0
 22 49  1  0
 23 24  1  0
 23 50  1  0
 24 25  1  0
 24 26  1  0
 24 51  1  1
 25 52  1  0
 26 27  1  0
 26 53  1  6
 27 28  1  1
 28 54  1  0
 28 55  1  0
 28 56  1  0
 29 57  1  1
M  END
>  <i_m_ct_stereo_status>  (73) 
1

>  <s_m_source_file>  (73) 
/var/tmp/pbs.5076255.sched01/tmpnv36izql/0kitkh5ys.sdf

>  <i_m_source_file_index>  (73) 
33

>  <i_lp_mmshare_version>  (73) 
48012

>  <i_f3d_flags>  (73) 
0

>  <s_epik_input>  (73) 
W0NIMl0xW0NIXT1DKFtDSDNdKVtDQEBIXTJbQ0BAXShbQ0gzXSkoQyg9TylPMylbQ0BIXTFbQ0BIXTJbQ0BASF00W0NASF0oW0NAXTM0NSlPW0NASF02W0NASF03W0NAXTUoW0NIM10pW0NAXShbQ0gyXTYpKFtPSF0pW0NAQEhdKFtPSF0pW0NIXT1bQ0hdW0NASF03W09IXQ==

>  <s_epik_cmdline>  (73) 
J2VwaWtfcHl0aG9uJywgJy1waHQnLCAnMi4wJywgJy1waCcsICc3LjAnLCAnLXRuJywgJzgnLCAnLW1hJywgJzIwMCcsICctaW1hZScsICc8aW5maWxlLm1hZT4nLCAnLW9tYWUnLCAnPG91dGZpbGUubWFlPic=

>  <r_lp_tautomer_probability>  (73) 
1

>  <r_epik_Ionization_Penalty>  (73) 
2.40142e-07

>  <r_epik_Ionization_Penalty_Charging>  (73) 
0

>  <r_epik_Ionization_Penalty_Neutral>  (73) 
2.40142e-07

>  <r_epik_State_Penalty>  (73) 
-0

>  <r_epik_Charging_Adjusted_Penalty>  (73) 
0

>  <i_epik_Tot_Q>  (73) 
0

>  <i_epik_Tot_abs_Q>  (73) 
0

>  <s_epik_Chemistry_Notes>  (73) 
This compound has an ester and may undergo hydrolysis at high or low pH.

>  <s_lp_Force_Field>  (73) 
OPLS3e

>  <r_lp_Energy>  (73) 
83.3408

>  <b_lp_Chiralities_Consistent>  (73) 
1

>  <s_lp_Variant>  (73) 
24:0-1

>  <s_i_glide_gridfile>  (73) 
pfpi4k_grid

>  <i_i_glide_lignum>  (73) 
33

>  <i_i_glide_rotatable_bonds>  (73) 
3

>  <r_i_docking_score>  (73) 
-1.77552

>  <r_i_glide_ligand_efficiency>  (73) 
-0.0612249

>  <r_i_glide_ligand_efficiency_sa>  (73) 
-0.188102

>  <r_i_glide_ligand_efficiency_ln>  (73) 
-0.40655

>  <r_i_glide_gscore>  (73) 
-1.77552

>  <r_i_glide_lipo>  (73) 
-0.2121

>  <r_i_glide_hbond>  (73) 
0

>  <r_i_glide_metal>  (73) 
-0

>  <r_i_glide_rewards>  (73) 
-0.680414

>  <r_i_glide_evdw>  (73) 
-21.5485

>  <r_i_glide_ecoul>  (73) 
1.29611

>  <r_i_glide_erotb>  (73) 
0

>  <r_i_glide_esite>  (73) 
0

>  <r_i_glide_emodel>  (73) 
-22.1537

>  <r_i_glide_energy>  (73) 
-20.2524

>  <r_i_glide_einternal>  (73) 
0.916315

>  <r_i_glide_intrahb_reward>  (73) 
-0

>  <i_i_glide_confnum>  (73) 
1

>  <i_i_glide_posenum>  (73) 
34

>  <r_i_glide_eff_state_penalty>  (73) 
0

>  <ligand_id>  (73) 
24

>  <original_smiles>  (73) 
CC1=CCC2C3C1C2(C)C(=O)OC12C(OC4CC5(O)C(O)C=CC(O)C4C51C)C32

>  <smiles>  (73) 
[H]OC1([H])C([H])=C([H])C([H])(O[H])C2(O[H])C([H])([H])C3([H])OC4([H])C5([H])C6([H])C7([H])C(C([H])([H])[H])=C([H])C([H])([H])C6([H])C7(C([H])([H])[H])C(=O)OC45C2(C([H])([H])[H])C13[H]

$$$$
25:0:0
     RDKit          3D

 22 24  0  0  1  0  0  0  0  0999 V2000
   -4.2631   -8.6113   -4.9709 C   0  0  0  0  0  0  0  0  0  0  0  0
   -5.4252   -8.3699   -5.9119 C   0  0  0  0  0  0  0  0  0  0  0  0
   -6.0677   -7.1813   -5.8518 N   0  0  0  0  0  0  0  0  0  0  0  0
   -7.1123   -6.9314   -6.6706 C   0  0  0  0  0  0  0  0  0  0  0  0
   -7.7864   -5.6919   -6.6228 C   0  0  0  0  0  0  0  0  0  0  0  0
   -8.8699   -5.4218   -7.4846 C   0  0  0  0  0  0  0  0  0  0  0  0
   -9.3038   -6.3924   -8.4120 C   0  0  0  0  0  0  0  0  0  0  0  0
  -10.6274   -6.0598   -9.4679 Cl  0  0  0  0  0  0  0  0  0  0  0  0
   -8.6497   -7.6366   -8.4764 C   0  0  0  0  0  0  0  0  0  0  0  0
   -7.5685   -7.8867   -7.6116 C   0  0  0  0  0  0  0  0  0  0  0  0
   -6.9002   -9.1361   -7.6723 C   0  0  0  0  0  0  0  0  0  0  0  0
   -7.0453  -10.2427   -8.4014 N   0  0  0  0  0  0  0  0  0  0  0  0
   -6.0652  -11.0733   -7.9312 C   0  0  0  0  0  0  0  0  0  0  0  0
   -5.2807  -10.5875   -6.9736 N   0  0  0  0  0  0  0  0  0  0  0  0
   -5.8253   -9.3579   -6.8088 N   0  0  0  0  0  0  0  0  0  0  0  0
   -4.0888   -7.7447   -4.3353 H   0  0  0  0  0  0  0  0  0  0  0  0
   -3.3466   -8.8153   -5.5215 H   0  0  0  0  0  0  0  0  0  0  0  0
   -4.4707   -9.4622   -4.3260 H   0  0  0  0  0  0  0  0  0  0  0  0
   -7.4592   -4.9356   -5.9221 H   0  0  0  0  0  0  0  0  0  0  0  0
   -9.3701   -4.4653   -7.4328 H   0  0  0  0  0  0  0  0  0  0  0  0
   -8.9741   -8.3895   -9.1800 H   0  0  0  0  0  0  0  0  0  0  0  0
   -5.9117  -12.0669   -8.3294 H   0  0  0  0  0  0  0  0  0  0  0  0
  1  2  1  0
  1 16  1  0
  1 17  1  0
  1 18  1  0
  2 15  1  0
  2  3  2  0
  3  4  1  0
  4 10  2  0
  4  5  1  0
  5  6  2  0
  5 19  1  0
  6  7  1  0
  6 20  1  0
  7  8  1  0
  7  9  2  0
  9 10  1  0
  9 21  1  0
 10 11  1  0
 11 15  1  0
 11 12  2  0
 12 13  1  0
 13 14  2  0
 13 22  1  0
 14 15  1  0
M  END
>  <i_m_ct_stereo_status>  (74) 
1

>  <s_m_source_file>  (74) 
/var/tmp/pbs.5076255.sched01/tmpnv36izql/0kitkh5ys.sdf

>  <i_m_source_file_index>  (74) 
34

>  <i_lp_mmshare_version>  (74) 
48012

>  <i_f3d_flags>  (74) 
0

>  <s_epik_input>  (74) 
bjFbY0hdbm4oYyhuMilbQ0gzXSljMWMoYzIzKVtjSF1jKENsKVtjSF1bY0hdMw==

>  <s_epik_cmdline>  (74) 
J2VwaWtfcHl0aG9uJywgJy1waHQnLCAnMi4wJywgJy1waCcsICc3LjAnLCAnLXRuJywgJzgnLCAnLW1hJywgJzIwMCcsICctaW1hZScsICc8aW5maWxlLm1hZT4nLCAnLW9tYWUnLCAnPG91dGZpbGUubWFlPic=

>  <r_lp_tautomer_probability>  (74) 
1

>  <r_epik_Ionization_Penalty>  (74) 
8.43786e-07

>  <r_epik_Ionization_Penalty_Charging>  (74) 
0

>  <r_epik_Ionization_Penalty_Neutral>  (74) 
8.43786e-07

>  <r_epik_State_Penalty>  (74) 
-0

>  <r_epik_Charging_Adjusted_Penalty>  (74) 
0

>  <i_epik_Tot_Q>  (74) 
0

>  <i_epik_Tot_abs_Q>  (74) 
0

>  <s_lp_Force_Field>  (74) 
OPLS3e

>  <r_lp_Energy>  (74) 
23.3303

>  <b_lp_Chiralities_Consistent>  (74) 
1

>  <s_lp_Variant>  (74) 
25:0-1

>  <s_i_glide_gridfile>  (74) 
pfpi4k_grid

>  <i_i_glide_lignum>  (74) 
34

>  <i_i_glide_rotatable_bonds>  (74) 
0

>  <r_i_docking_score>  (74) 
-5.45486

>  <r_i_glide_ligand_efficiency>  (74) 
-0.363657

>  <r_i_glide_ligand_efficiency_sa>  (74) 
-0.896856

>  <r_i_glide_ligand_efficiency_ln>  (74) 
-1.47109

>  <r_i_glide_gscore>  (74) 
-5.45486

>  <r_i_glide_lipo>  (74) 
-0.97794

>  <r_i_glide_hbond>  (74) 
0

>  <r_i_glide_metal>  (74) 
-0

>  <r_i_glide_rewards>  (74) 
-3.21819

>  <r_i_glide_evdw>  (74) 
-23.6801

>  <r_i_glide_ecoul>  (74) 
-0.498185

>  <r_i_glide_erotb>  (74) 
0

>  <r_i_glide_esite>  (74) 
0

>  <r_i_glide_emodel>  (74) 
-32.1817

>  <r_i_glide_energy>  (74) 
-24.1782

>  <r_i_glide_einternal>  (74) 
0

>  <r_i_glide_intrahb_reward>  (74) 
-0

>  <i_i_glide_confnum>  (74) 
1

>  <i_i_glide_posenum>  (74) 
14

>  <r_i_glide_eff_state_penalty>  (74) 
0

>  <ligand_id>  (74) 
25

>  <original_smiles>  (74) 
Cc1nc2ccc(Cl)cc2c2ncnn12

>  <smiles>  (74) 
[H]c1nc2c3c([H])c(Cl)c([H])c([H])c3nc(C([H])([H])[H])n2n1

$$$$
25:0:1
     RDKit          3D

 22 24  0  0  1  0  0  0  0  0999 V2000
    6.0021   -9.3444    1.5302 C   0  0  0  0  0  0  0  0  0  0  0  0
    4.5829   -8.8377    1.7024 C   0  0  0  0  0  0  0  0  0  0  0  0
    3.6805   -9.6416    2.3096 N   0  0  0  0  0  0  0  0  0  0  0  0
    2.4052   -9.2371    2.4742 C   0  0  0  0  0  0  0  0  0  0  0  0
    1.4537  -10.0779    3.0906 C   0  0  0  0  0  0  0  0  0  0  0  0
    0.1245   -9.6491    3.2711 C   0  0  0  0  0  0  0  0  0  0  0  0
   -0.2816   -8.3728    2.8364 C   0  0  0  0  0  0  0  0  0  0  0  0
   -1.9073   -7.8525    3.0725 Cl  0  0  0  0  0  0  0  0  0  0  0  0
    0.6451   -7.5176    2.2145 C   0  0  0  0  0  0  0  0  0  0  0  0
    1.9684   -7.9599    2.0450 C   0  0  0  0  0  0  0  0  0  0  0  0
    2.9111   -7.1049    1.4239 C   0  0  0  0  0  0  0  0  0  0  0  0
    2.8617   -5.8755    0.9080 N   0  0  0  0  0  0  0  0  0  0  0  0
    4.1414   -5.6640    0.4638 C   0  0  0  0  0  0  0  0  0  0  0  0
    5.0117   -6.6517    0.6548 N   0  0  0  0  0  0  0  0  0  0  0  0
    4.2195   -7.5664    1.2585 N   0  0  0  0  0  0  0  0  0  0  0  0
    6.1046  -10.3535    1.9320 H   0  0  0  0  0  0  0  0  0  0  0  0
    6.7081   -8.6993    2.0532 H   0  0  0  0  0  0  0  0  0  0  0  0
    6.2766   -9.3808    0.4784 H   0  0  0  0  0  0  0  0  0  0  0  0
    1.7492  -11.0604    3.4309 H   0  0  0  0  0  0  0  0  0  0  0  0
   -0.5853  -10.3034    3.7502 H   0  0  0  0  0  0  0  0  0  0  0  0
    0.3486   -6.5378    1.8779 H   0  0  0  0  0  0  0  0  0  0  0  0
    4.4418   -4.7436   -0.0168 H   0  0  0  0  0  0  0  0  0  0  0  0
  1  2  1  0
  1 16  1  0
  1 17  1  0
  1 18  1  0
  2 15  1  0
  2  3  2  0
  3  4  1  0
  4 10  2  0
  4  5  1  0
  5  6  2  0
  5 19  1  0
  6  7  1  0
  6 20  1  0
  7  8  1  0
  7  9  2  0
  9 10  1  0
  9 21  1  0
 10 11  1  0
 11 15  1  0
 11 12  2  0
 12 13  1  0
 13 14  2  0
 13 22  1  0
 14 15  1  0
M  END
>  <i_m_ct_stereo_status>  (75) 
1

>  <s_m_source_file>  (75) 
/var/tmp/pbs.5076255.sched01/tmpnv36izql/0kitkh5ys.sdf

>  <i_m_source_file_index>  (75) 
34

>  <i_lp_mmshare_version>  (75) 
48012

>  <i_f3d_flags>  (75) 
0

>  <s_epik_input>  (75) 
bjFbY0hdbm4oYyhuMilbQ0gzXSljMWMoYzIzKVtjSF1jKENsKVtjSF1bY0hdMw==

>  <s_epik_cmdline>  (75) 
J2VwaWtfcHl0aG9uJywgJy1waHQnLCAnMi4wJywgJy1waCcsICc3LjAnLCAnLXRuJywgJzgnLCAnLW1hJywgJzIwMCcsICctaW1hZScsICc8aW5maWxlLm1hZT4nLCAnLW9tYWUnLCAnPG91dGZpbGUubWFlPic=

>  <r_lp_tautomer_probability>  (75) 
1

>  <r_epik_Ionization_Penalty>  (75) 
8.43786e-07

>  <r_epik_Ionization_Penalty_Charging>  (75) 
0

>  <r_epik_Ionization_Penalty_Neutral>  (75) 
8.43786e-07

>  <r_epik_State_Penalty>  (75) 
-0

>  <r_epik_Charging_Adjusted_Penalty>  (75) 
0

>  <i_epik_Tot_Q>  (75) 
0

>  <i_epik_Tot_abs_Q>  (75) 
0

>  <s_lp_Force_Field>  (75) 
OPLS3e

>  <r_lp_Energy>  (75) 
23.3303

>  <b_lp_Chiralities_Consistent>  (75) 
1

>  <s_lp_Variant>  (75) 
25:0-1

>  <s_i_glide_gridfile>  (75) 
pfpi4k_grid

>  <i_i_glide_lignum>  (75) 
34

>  <i_i_glide_rotatable_bonds>  (75) 
0

>  <r_i_docking_score>  (75) 
-3.51518

>  <r_i_glide_ligand_efficiency>  (75) 
-0.234345

>  <r_i_glide_ligand_efficiency_sa>  (75) 
-0.577946

>  <r_i_glide_ligand_efficiency_ln>  (75) 
-0.947986

>  <r_i_glide_gscore>  (75) 
-3.51518

>  <r_i_glide_lipo>  (75) 
-0.164125

>  <r_i_glide_hbond>  (75) 
0

>  <r_i_glide_metal>  (75) 
-0

>  <r_i_glide_rewards>  (75) 
-2.16591

>  <r_i_glide_evdw>  (75) 
-22.1551

>  <r_i_glide_ecoul>  (75) 
-0.337609

>  <r_i_glide_erotb>  (75) 
0

>  <r_i_glide_esite>  (75) 
-0.0267519

>  <r_i_glide_emodel>  (75) 
-27.6427

>  <r_i_glide_energy>  (75) 
-22.4927

>  <r_i_glide_einternal>  (75) 
0

>  <r_i_glide_intrahb_reward>  (75) 
-0

>  <i_i_glide_confnum>  (75) 
1

>  <i_i_glide_posenum>  (75) 
31

>  <r_i_glide_eff_state_penalty>  (75) 
0

>  <ligand_id>  (75) 
25

>  <original_smiles>  (75) 
Cc1nc2ccc(Cl)cc2c2ncnn12

>  <smiles>  (75) 
[H]c1nc2c3c([H])c(Cl)c([H])c([H])c3nc(C([H])([H])[H])n2n1

$$$$
25:0:2
     RDKit          3D

 22 24  0  0  1  0  0  0  0  0999 V2000
   -1.8185   -8.9103    2.2591 C   0  0  0  0  0  0  0  0  0  0  0  0
   -0.7948   -8.6458    3.3471 C   0  0  0  0  0  0  0  0  0  0  0  0
   -0.9345   -7.5283    4.0989 N   0  0  0  0  0  0  0  0  0  0  0  0
   -0.0468   -7.2649    5.0835 C   0  0  0  0  0  0  0  0  0  0  0  0
   -0.1855   -6.1141    5.8862 C   0  0  0  0  0  0  0  0  0  0  0  0
    0.7409   -5.8277    6.9111 C   0  0  0  0  0  0  0  0  0  0  0  0
    1.8311   -6.6890    7.1519 C   0  0  0  0  0  0  0  0  0  0  0  0
    2.9631   -6.3266    8.4041 Cl  0  0  0  0  0  0  0  0  0  0  0  0
    1.9902   -7.8456    6.3676 C   0  0  0  0  0  0  0  0  0  0  0  0
    1.0529   -8.1166    5.3530 C   0  0  0  0  0  0  0  0  0  0  0  0
    1.2087   -9.2770    4.5564 C   0  0  0  0  0  0  0  0  0  0  0  0
    2.1023  -10.2651    4.5057 N   0  0  0  0  0  0  0  0  0  0  0  0
    1.6418  -11.0670    3.4974 C   0  0  0  0  0  0  0  0  0  0  0  0
    0.5417  -10.6568    2.8732 N   0  0  0  0  0  0  0  0  0  0  0  0
    0.2675   -9.5242    3.5566 N   0  0  0  0  0  0  0  0  0  0  0  0
   -2.5771   -8.1266    2.2445 H   0  0  0  0  0  0  0  0  0  0  0  0
   -2.3232   -9.8539    2.4344 H   0  0  0  0  0  0  0  0  0  0  0  0
   -1.3519   -8.9408    1.2801 H   0  0  0  0  0  0  0  0  0  0  0  0
   -1.0144   -5.4444    5.7152 H   0  0  0  0  0  0  0  0  0  0  0  0
    0.6170   -4.9410    7.5145 H   0  0  0  0  0  0  0  0  0  0  0  0
    2.8203   -8.5165    6.5403 H   0  0  0  0  0  0  0  0  0  0  0  0
    2.1468  -11.9758    3.1972 H   0  0  0  0  0  0  0  0  0  0  0  0
  1  2  1  0
  1 16  1  0
  1 17  1  0
  1 18  1  0
  2 15  1  0
  2  3  2  0
  3  4  1  0
  4 10  2  0
  4  5  1  0
  5  6  2  0
  5 19  1  0
  6  7  1  0
  6 20  1  0
  7  8  1  0
  7  9  2  0
  9 10  1  0
  9 21  1  0
 10 11  1  0
 11 15  1  0
 11 12  2  0
 12 13  1  0
 13 14  2  0
 13 22  1  0
 14 15  1  0
M  END
>  <i_m_ct_stereo_status>  (76) 
1

>  <s_m_source_file>  (76) 
/var/tmp/pbs.5076255.sched01/tmpnv36izql/0kitkh5ys.sdf

>  <i_m_source_file_index>  (76) 
34

>  <i_lp_mmshare_version>  (76) 
48012

>  <i_f3d_flags>  (76) 
0

>  <s_epik_input>  (76) 
bjFbY0hdbm4oYyhuMilbQ0gzXSljMWMoYzIzKVtjSF1jKENsKVtjSF1bY0hdMw==

>  <s_epik_cmdline>  (76) 
J2VwaWtfcHl0aG9uJywgJy1waHQnLCAnMi4wJywgJy1waCcsICc3LjAnLCAnLXRuJywgJzgnLCAnLW1hJywgJzIwMCcsICctaW1hZScsICc8aW5maWxlLm1hZT4nLCAnLW9tYWUnLCAnPG91dGZpbGUubWFlPic=

>  <r_lp_tautomer_probability>  (76) 
1

>  <r_epik_Ionization_Penalty>  (76) 
8.43786e-07

>  <r_epik_Ionization_Penalty_Charging>  (76) 
0

>  <r_epik_Ionization_Penalty_Neutral>  (76) 
8.43786e-07

>  <r_epik_State_Penalty>  (76) 
-0

>  <r_epik_Charging_Adjusted_Penalty>  (76) 
0

>  <i_epik_Tot_Q>  (76) 
0

>  <i_epik_Tot_abs_Q>  (76) 
0

>  <s_lp_Force_Field>  (76) 
OPLS3e

>  <r_lp_Energy>  (76) 
23.3303

>  <b_lp_Chiralities_Consistent>  (76) 
1

>  <s_lp_Variant>  (76) 
25:0-1

>  <s_i_glide_gridfile>  (76) 
pfpi4k_grid

>  <i_i_glide_lignum>  (76) 
34

>  <i_i_glide_rotatable_bonds>  (76) 
0

>  <r_i_docking_score>  (76) 
-3.48854

>  <r_i_glide_ligand_efficiency>  (76) 
-0.232569

>  <r_i_glide_ligand_efficiency_sa>  (76) 
-0.573565

>  <r_i_glide_ligand_efficiency_ln>  (76) 
-0.940801

>  <r_i_glide_gscore>  (76) 
-3.48854

>  <r_i_glide_lipo>  (76) 
-0.247284

>  <r_i_glide_hbond>  (76) 
0

>  <r_i_glide_metal>  (76) 
-0

>  <r_i_glide_rewards>  (76) 
-2.11651

>  <r_i_glide_evdw>  (76) 
-18.5298

>  <r_i_glide_ecoul>  (76) 
-0.536141

>  <r_i_glide_erotb>  (76) 
0

>  <r_i_glide_esite>  (76) 
-0.117838

>  <r_i_glide_emodel>  (76) 
-24.1775

>  <r_i_glide_energy>  (76) 
-19.0659

>  <r_i_glide_einternal>  (76) 
0

>  <r_i_glide_intrahb_reward>  (76) 
-0

>  <i_i_glide_confnum>  (76) 
2

>  <i_i_glide_posenum>  (76) 
3

>  <r_i_glide_eff_state_penalty>  (76) 
0

>  <ligand_id>  (76) 
25

>  <original_smiles>  (76) 
Cc1nc2ccc(Cl)cc2c2ncnn12

>  <smiles>  (76) 
[H]c1nc2c3c([H])c(Cl)c([H])c([H])c3nc(C([H])([H])[H])n2n1

$$$$
27:0:0
     RDKit          3D

 56 60  0  0  1  0  0  0  0  0999 V2000
    1.0398   -8.3922    4.3074 C   0  0  0  0  0  0  0  0  0  0  0  0
    1.9031   -8.7272    3.3305 C   0  0  0  0  0  0  0  0  0  0  0  0
    2.5404   -7.7033    2.5209 C   0  0  0  0  0  0  0  0  0  0  0  0
    1.7540   -6.7925    1.9091 C   0  0  0  0  0  0  0  0  0  0  0  0
    2.0859   -5.6680    1.0126 C   0  0  1  0  0  0  0  0  0  0  0  0
    2.2780   -4.4344    1.7122 O   0  0  0  0  0  0  0  0  0  0  0  0
    3.3964   -4.9454    0.9709 C   0  0  2  0  0  0  0  0  0  0  0  0
    3.8581   -4.2024   -0.2582 C   0  0  1  0  0  0  0  0  0  0  0  0
    3.0112   -3.0459   -0.8232 C   0  0  0  0  0  0  0  0  0  0  0  0
    3.6736   -2.5133   -2.1157 C   0  0  1  0  0  0  0  0  0  0  0  0
    3.0286   -1.3274   -2.5318 O   0  0  0  0  0  0  0  0  0  0  0  0
    5.1860   -2.2245   -1.9541 C   0  0  0  0  0  0  0  0  0  0  0  0
    5.9539   -3.3573   -1.2426 C   0  0  0  0  0  0  0  0  0  0  0  0
    5.2540   -3.7248    0.0727 C   0  0  2  0  0  0  0  0  0  0  0  0
    5.8208   -4.8988    0.8756 C   0  0  1  0  0  0  0  0  0  0  0  0
    6.9025   -4.4516    1.6589 O   0  0  0  0  0  0  0  0  0  0  0  0
    4.6244   -5.4691    1.7005 C   0  0  1  0  0  0  0  0  0  0  0  0
    4.6348   -5.0381    3.1970 C   0  0  0  0  0  0  0  0  0  0  0  0
    4.6704   -6.8919    1.4883 O   0  0  0  0  0  0  0  0  0  0  0  0
    4.0711   -7.8058    2.4141 C   0  0  2  0  0  0  0  0  0  0  0  0
    4.4700   -9.2677    2.0143 C   0  0  1  0  0  0  0  0  0  0  0  0
    5.8829   -9.4451    2.1206 O   0  0  0  0  0  0  0  0  0  0  0  0
    6.3906  -10.6005    1.4573 C   0  0  0  0  0  0  0  0  0  0  0  0
    3.7947  -10.2976    2.9643 C   0  0  0  0  0  0  0  0  0  0  0  0
    2.2698  -10.1647    2.9914 C   0  0  1  0  0  0  0  0  0  0  0  0
    1.6344  -11.2413    3.8912 C   0  0  0  0  0  0  0  0  0  0  0  0
    0.5492   -9.1362    4.9119 H   0  0  0  0  0  0  0  0  0  0  0  0
    0.8125   -7.3565    4.5183 H   0  0  0  0  0  0  0  0  0  0  0  0
    0.6913   -6.8817    2.0796 H   0  0  0  0  0  0  0  0  0  0  0  0
    1.4458   -5.6088    0.1407 H   0  0  0  0  0  0  0  0  0  0  0  0
    3.9490   -4.9645   -1.0329 H   0  0  0  0  0  0  0  0  0  0  0  0
    1.9972   -3.3792   -1.0513 H   0  0  0  0  0  0  0  0  0  0  0  0
    2.9280   -2.2411   -0.0880 H   0  0  0  0  0  0  0  0  0  0  0  0
    3.5388   -3.2601   -2.9009 H   0  0  0  0  0  0  0  0  0  0  0  0
    2.2698   -1.1723   -1.9710 H   0  0  0  0  0  0  0  0  0  0  0  0
    5.6108   -2.0753   -2.9452 H   0  0  0  0  0  0  0  0  0  0  0  0
    5.3262   -1.2946   -1.3997 H   0  0  0  0  0  0  0  0  0  0  0  0
    5.9772   -4.2238   -1.9016 H   0  0  0  0  0  0  0  0  0  0  0  0
    6.9870   -3.0601   -1.0707 H   0  0  0  0  0  0  0  0  0  0  0  0
    5.1875   -2.8413    0.7127 H   0  0  0  0  0  0  0  0  0  0  0  0
    6.1883   -5.6613    0.1835 H   0  0  0  0  0  0  0  0  0  0  0  0
    7.2967   -5.2035    2.0730 H   0  0  0  0  0  0  0  0  0  0  0  0
    4.6637   -3.9517    3.3074 H   0  0  0  0  0  0  0  0  0  0  0  0
    5.4927   -5.4432    3.7335 H   0  0  0  0  0  0  0  0  0  0  0  0
    3.7395   -5.3693    3.7236 H   0  0  0  0  0  0  0  0  0  0  0  0
    4.4719   -7.6254    3.4101 H   0  0  0  0  0  0  0  0  0  0  0  0
    4.1582   -9.4274    0.9771 H   0  0  0  0  0  0  0  0  0  0  0  0
    7.4122  -10.7690    1.7508 H   0  0  0  0  0  0  0  0  0  0  0  0
    6.3544  -10.4622    0.3800 H   0  0  0  0  0  0  0  0  0  0  0  0
    5.8495  -11.5115    1.6994 H   0  0  0  0  0  0  0  0  0  0  0  0
    4.0075  -11.3202    2.6659 H   0  0  0  0  0  0  0  0  0  0  0  0
    4.1991  -10.1731    3.9687 H   0  0  0  0  0  0  0  0  0  0  0  0
    1.9019  -10.3145    1.9754 H   0  0  0  0  0  0  0  0  0  0  0  0
    0.5447  -11.2233    3.8399 H   0  0  0  0  0  0  0  0  0  0  0  0
    1.9314  -11.1249    4.9357 H   0  0  0  0  0  0  0  0  0  0  0  0
    1.9525  -12.2340    3.5735 H   0  0  0  0  0  0  0  0  0  0  0  0
  1  2  2  0
  1 27  1  0
  1 28  1  0
  2 25  1  0
  2  3  1  0
  3 20  1  0
  3  4  2  0
  4  5  1  0
  4 29  1  0
  5  7  1  0
  5  6  1  0
  5 30  1  6
  7  6  1  1
  7 17  1  0
  7  8  1  0
  8 14  1  0
  8  9  1  0
  8 31  1  6
  9 10  1  0
  9 32  1  0
  9 33  1  0
 10 11  1  0
 10 12  1  0
 10 34  1  6
 11 35  1  0
 12 13  1  0
 12 36  1  0
 12 37  1  0
 13 14  1  0
 13 38  1  0
 13 39  1  0
 14 15  1  0
 14 40  1  1
 15 16  1  0
 15 17  1  0
 15 41  1  6
 16 42  1  0
 17 18  1  1
 17 19  1  0
 18 43  1  0
 18 44  1  0
 18 45  1  0
 19 20  1  0
 20 21  1  0
 20 46  1  1
 21 22  1  0
 21 24  1  0
 21 47  1  6
 22 23  1  0
 23 48  1  0
 23 49  1  0
 23 50  1  0
 24 25  1  0
 24 51  1  0
 24 52  1  0
 25 26  1  0
 25 53  1  6
 26 54  1  0
 26 55  1  0
 26 56  1  0
M  END
>  <i_m_ct_stereo_status>  (77) 
1

>  <s_m_source_file>  (77) 
/var/tmp/pbs.5076255.sched01/tmpnv36izql/0kitkh5ys.sdf

>  <i_m_source_file_index>  (77) 
36

>  <i_lp_mmshare_version>  (77) 
48012

>  <i_f3d_flags>  (77) 
0

>  <s_epik_input>  (77) 
W0NIMl09QzFbQ0BIXShbQ0gzXSlbQ0gyXVtDQEhdKE9bQ0gzXSlbQ0BIXShDMT1bQ0hdW0NAQEhdKE8yKVtDQF0yMzQpT1tDQEBdNChbQ0gzXSlbQ0BIXShbT0hdKVtDQEBIXTVbQ0BASF0zW0NIMl1bQ0BASF0oW09IXSlbQ0gyXVtDSDJdNQ==

>  <s_epik_cmdline>  (77) 
J2VwaWtfcHl0aG9uJywgJy1waHQnLCAnMi4wJywgJy1waCcsICc3LjAnLCAnLXRuJywgJzgnLCAnLW1hJywgJzIwMCcsICctaW1hZScsICc8aW5maWxlLm1hZT4nLCAnLW9tYWUnLCAnPG91dGZpbGUubWFlPic=

>  <r_lp_tautomer_probability>  (77) 
1

>  <r_epik_Ionization_Penalty>  (77) 
8.17094e-07

>  <r_epik_Ionization_Penalty_Charging>  (77) 
0

>  <r_epik_Ionization_Penalty_Neutral>  (77) 
8.17094e-07

>  <r_epik_State_Penalty>  (77) 
-0

>  <r_epik_Charging_Adjusted_Penalty>  (77) 
0

>  <i_epik_Tot_Q>  (77) 
0

>  <i_epik_Tot_abs_Q>  (77) 
0

>  <s_lp_Force_Field>  (77) 
OPLS3e

>  <r_lp_Energy>  (77) 
42.734

>  <b_lp_Chiralities_Consistent>  (77) 
1

>  <s_lp_Variant>  (77) 
27:0-1

>  <s_i_glide_gridfile>  (77) 
pfpi4k_grid

>  <i_i_glide_lignum>  (77) 
36

>  <i_i_glide_rotatable_bonds>  (77) 
3

>  <r_i_docking_score>  (77) 
-3.03069

>  <r_i_glide_ligand_efficiency>  (77) 
-0.116565

>  <r_i_glide_ligand_efficiency_sa>  (77) 
-0.345323

>  <r_i_glide_ligand_efficiency_ln>  (77) 
-0.711747

>  <r_i_glide_gscore>  (77) 
-3.03069

>  <r_i_glide_lipo>  (77) 
-0.422861

>  <r_i_glide_hbond>  (77) 
-0.16

>  <r_i_glide_metal>  (77) 
-0

>  <r_i_glide_rewards>  (77) 
-0.937773

>  <r_i_glide_evdw>  (77) 
-22.8129

>  <r_i_glide_ecoul>  (77) 
-2.46271

>  <r_i_glide_erotb>  (77) 
0

>  <r_i_glide_esite>  (77) 
0

>  <r_i_glide_emodel>  (77) 
-28.5842

>  <r_i_glide_energy>  (77) 
-25.2756

>  <r_i_glide_einternal>  (77) 
2.76189

>  <r_i_glide_intrahb_reward>  (77) 
-0

>  <i_i_glide_confnum>  (77) 
2

>  <i_i_glide_posenum>  (77) 
13

>  <r_i_glide_eff_state_penalty>  (77) 
0

>  <ligand_id>  (77) 
27

>  <original_smiles>  (77) 
C=C1C2=CC3OC34C3CC(O)CCC3C(O)C4(C)OC2C(OC)CC1C

>  <smiles>  (77) 
[H]OC1([H])C([H])([H])C([H])([H])C2([H])C([H])(O[H])C3(C([H])([H])[H])OC4([H])C(=C([H])C5([H])OC53C2([H])C1([H])[H])C(=C([H])[H])C([H])(C([H])([H])[H])C([H])([H])C4([H])OC([H])([H])[H]

$$$$
27:0:1
     RDKit          3D

 56 60  0  0  1  0  0  0  0  0999 V2000
    0.3052    3.7019    4.3392 C   0  0  0  0  0  0  0  0  0  0  0  0
   -0.2525    2.4775    4.2686 C   0  0  0  0  0  0  0  0  0  0  0  0
    0.4857    1.3780    3.6752 C   0  0  0  0  0  0  0  0  0  0  0  0
    1.0015    1.5372    2.4327 C   0  0  0  0  0  0  0  0  0  0  0  0
    1.7508    0.6037    1.5609 C   0  0  1  0  0  0  0  0  0  0  0  0
    3.1759    0.6897    1.7074 O   0  0  0  0  0  0  0  0  0  0  0  0
    2.5620   -0.5698    2.0225 C   0  0  2  0  0  0  0  0  0  0  0  0
    2.8280   -1.7631    1.1354 C   0  0  1  0  0  0  0  0  0  0  0  0
    3.5712   -1.5725   -0.2006 C   0  0  0  0  0  0  0  0  0  0  0  0
    3.6531   -2.9339   -0.9328 C   0  0  1  0  0  0  0  0  0  0  0  0
    4.5041   -2.8108   -2.0539 O   0  0  0  0  0  0  0  0  0  0  0  0
    4.1773   -4.0834   -0.0369 C   0  0  0  0  0  0  0  0  0  0  0  0
    3.5063   -4.1281    1.3524 C   0  0  0  0  0  0  0  0  0  0  0  0
    3.5747   -2.7444    2.0169 C   0  0  2  0  0  0  0  0  0  0  0  0
    2.8923   -2.5657    3.3806 C   0  0  1  0  0  0  0  0  0  0  0  0
    3.7269   -3.0286    4.4253 O   0  0  0  0  0  0  0  0  0  0  0  0
    2.5144   -1.0508    3.4632 C   0  0  1  0  0  0  0  0  0  0  0  0
    3.4650   -0.2306    4.3820 C   0  0  0  0  0  0  0  0  0  0  0  0
    1.1265   -1.0138    3.8325 O   0  0  0  0  0  0  0  0  0  0  0  0
    0.5747    0.1067    4.5236 C   0  0  2  0  0  0  0  0  0  0  0  0
   -0.8500   -0.2863    5.0297 C   0  0  1  0  0  0  0  0  0  0  0  0
   -0.8451   -1.2893    6.0511 O   0  0  0  0  0  0  0  0  0  0  0  0
   -0.4767   -2.5961    5.6290 C   0  0  0  0  0  0  0  0  0  0  0  0
   -1.5629    0.9138    5.7040 C   0  0  0  0  0  0  0  0  0  0  0  0
   -1.6512    2.1474    4.7870 C   0  0  1  0  0  0  0  0  0  0  0  0
   -2.3818    3.3211    5.4671 C   0  0  0  0  0  0  0  0  0  0  0  0
   -0.2019    4.5488    4.7673 H   0  0  0  0  0  0  0  0  0  0  0  0
    1.3012    3.8715    3.9530 H   0  0  0  0  0  0  0  0  0  0  0  0
    0.8336    2.4927    1.9539 H   0  0  0  0  0  0  0  0  0  0  0  0
    1.3987    0.5967    0.5369 H   0  0  0  0  0  0  0  0  0  0  0  0
    1.8415   -2.1782    0.9126 H   0  0  0  0  0  0  0  0  0  0  0  0
    3.0425   -0.8574   -0.8314 H   0  0  0  0  0  0  0  0  0  0  0  0
    4.5716   -1.1707   -0.0250 H   0  0  0  0  0  0  0  0  0  0  0  0
    2.6557   -3.1847   -1.2974 H   0  0  0  0  0  0  0  0  0  0  0  0
    4.4435   -3.6117   -2.5558 H   0  0  0  0  0  0  0  0  0  0  0  0
    4.0317   -5.0357   -0.5526 H   0  0  0  0  0  0  0  0  0  0  0  0
    5.2531   -3.9689    0.1006 H   0  0  0  0  0  0  0  0  0  0  0  0
    2.4673   -4.4371    1.2380 H   0  0  0  0  0  0  0  0  0  0  0  0
    3.9897   -4.8808    1.9702 H   0  0  0  0  0  0  0  0  0  0  0  0
    4.6170   -2.4235    2.0891 H   0  0  0  0  0  0  0  0  0  0  0  0
    1.9775   -3.1610    3.3930 H   0  0  0  0  0  0  0  0  0  0  0  0
    4.5380   -2.5418    4.3943 H   0  0  0  0  0  0  0  0  0  0  0  0
    4.5104   -0.3180    4.0774 H   0  0  0  0  0  0  0  0  0  0  0  0
    3.3953   -0.5548    5.4201 H   0  0  0  0  0  0  0  0  0  0  0  0
    3.2352    0.8349    4.3600 H   0  0  0  0  0  0  0  0  0  0  0  0
    1.1695    0.3435    5.4047 H   0  0  0  0  0  0  0  0  0  0  0  0
   -1.4507   -0.6204    4.1789 H   0  0  0  0  0  0  0  0  0  0  0  0
   -0.7488   -3.3270    6.3909 H   0  0  0  0  0  0  0  0  0  0  0  0
    0.5993   -2.6755    5.4868 H   0  0  0  0  0  0  0  0  0  0  0  0
   -0.9794   -2.8689    4.7029 H   0  0  0  0  0  0  0  0  0  0  0  0
   -2.5636    0.6170    6.0165 H   0  0  0  0  0  0  0  0  0  0  0  0
   -1.0259    1.1802    6.6157 H   0  0  0  0  0  0  0  0  0  0  0  0
   -2.2326    1.8739    3.9032 H   0  0  0  0  0  0  0  0  0  0  0  0
   -2.5172    4.1458    4.7685 H   0  0  0  0  0  0  0  0  0  0  0  0
   -1.8357    3.6923    6.3363 H   0  0  0  0  0  0  0  0  0  0  0  0
   -3.3752    3.0231    5.8029 H   0  0  0  0  0  0  0  0  0  0  0  0
  1  2  2  0
  1 27  1  0
  1 28  1  0
  2 25  1  0
  2  3  1  0
  3 20  1  0
  3  4  2  0
  4  5  1  0
  4 29  1  0
  5  7  1  0
  5  6  1  0
  5 30  1  6
  7  6  1  1
  7 17  1  0
  7  8  1  0
  8 14  1  0
  8  9  1  0
  8 31  1  6
  9 10  1  0
  9 32  1  0
  9 33  1  0
 10 11  1  0
 10 12  1  0
 10 34  1  6
 11 35  1  0
 12 13  1  0
 12 36  1  0
 12 37  1  0
 13 14  1  0
 13 38  1  0
 13 39  1  0
 14 15  1  0
 14 40  1  1
 15 16  1  0
 15 17  1  0
 15 41  1  6
 16 42  1  0
 17 18  1  1
 17 19  1  0
 18 43  1  0
 18 44  1  0
 18 45  1  0
 19 20  1  0
 20 21  1  0
 20 46  1  1
 21 22  1  0
 21 24  1  0
 21 47  1  6
 22 23  1  0
 23 48  1  0
 23 49  1  0
 23 50  1  0
 24 25  1  0
 24 51  1  0
 24 52  1  0
 25 26  1  0
 25 53  1  6
 26 54  1  0
 26 55  1  0
 26 56  1  0
M  END
>  <i_m_ct_stereo_status>  (78) 
1

>  <s_m_source_file>  (78) 
/var/tmp/pbs.5076255.sched01/tmpnv36izql/0kitkh5ys.sdf

>  <i_m_source_file_index>  (78) 
36

>  <i_lp_mmshare_version>  (78) 
48012

>  <i_f3d_flags>  (78) 
0

>  <s_epik_input>  (78) 
W0NIMl09QzFbQ0BIXShbQ0gzXSlbQ0gyXVtDQEhdKE9bQ0gzXSlbQ0BIXShDMT1bQ0hdW0NAQEhdKE8yKVtDQF0yMzQpT1tDQEBdNChbQ0gzXSlbQ0BIXShbT0hdKVtDQEBIXTVbQ0BASF0zW0NIMl1bQ0BASF0oW09IXSlbQ0gyXVtDSDJdNQ==

>  <s_epik_cmdline>  (78) 
J2VwaWtfcHl0aG9uJywgJy1waHQnLCAnMi4wJywgJy1waCcsICc3LjAnLCAnLXRuJywgJzgnLCAnLW1hJywgJzIwMCcsICctaW1hZScsICc8aW5maWxlLm1hZT4nLCAnLW9tYWUnLCAnPG91dGZpbGUubWFlPic=

>  <r_lp_tautomer_probability>  (78) 
1

>  <r_epik_Ionization_Penalty>  (78) 
8.17094e-07

>  <r_epik_Ionization_Penalty_Charging>  (78) 
0

>  <r_epik_Ionization_Penalty_Neutral>  (78) 
8.17094e-07

>  <r_epik_State_Penalty>  (78) 
-0

>  <r_epik_Charging_Adjusted_Penalty>  (78) 
0

>  <i_epik_Tot_Q>  (78) 
0

>  <i_epik_Tot_abs_Q>  (78) 
0

>  <s_lp_Force_Field>  (78) 
OPLS3e

>  <r_lp_Energy>  (78) 
42.734

>  <b_lp_Chiralities_Consistent>  (78) 
1

>  <s_lp_Variant>  (78) 
27:0-1

>  <s_i_glide_gridfile>  (78) 
pfpi4k_grid

>  <i_i_glide_lignum>  (78) 
36

>  <i_i_glide_rotatable_bonds>  (78) 
3

>  <r_i_docking_score>  (78) 
-2.50399

>  <r_i_glide_ligand_efficiency>  (78) 
-0.0963072

>  <r_i_glide_ligand_efficiency_sa>  (78) 
-0.28531

>  <r_i_glide_ligand_efficiency_ln>  (78) 
-0.588053

>  <r_i_glide_gscore>  (78) 
-2.50399

>  <r_i_glide_lipo>  (78) 
-0.00642607

>  <r_i_glide_hbond>  (78) 
0

>  <r_i_glide_metal>  (78) 
-0

>  <r_i_glide_rewards>  (78) 
-0.937773

>  <r_i_glide_evdw>  (78) 
-21.4984

>  <r_i_glide_ecoul>  (78) 
-3.23246

>  <r_i_glide_erotb>  (78) 
0

>  <r_i_glide_esite>  (78) 
0

>  <r_i_glide_emodel>  (78) 
-28.693

>  <r_i_glide_energy>  (78) 
-24.7308

>  <r_i_glide_einternal>  (78) 
0.52827

>  <r_i_glide_intrahb_reward>  (78) 
-0

>  <i_i_glide_confnum>  (78) 
2

>  <i_i_glide_posenum>  (78) 
1

>  <r_i_glide_eff_state_penalty>  (78) 
0

>  <ligand_id>  (78) 
27

>  <original_smiles>  (78) 
C=C1C2=CC3OC34C3CC(O)CCC3C(O)C4(C)OC2C(OC)CC1C

>  <smiles>  (78) 
[H]OC1([H])C([H])([H])C([H])([H])C2([H])C([H])(O[H])C3(C([H])([H])[H])OC4([H])C(=C([H])C5([H])OC53C2([H])C1([H])[H])C(=C([H])[H])C([H])(C([H])([H])[H])C([H])([H])C4([H])OC([H])([H])[H]

$$$$
27:0:2
     RDKit          3D

 56 60  0  0  1  0  0  0  0  0999 V2000
    0.2508    3.6730    4.3909 C   0  0  0  0  0  0  0  0  0  0  0  0
   -0.2911    2.4434    4.3224 C   0  0  0  0  0  0  0  0  0  0  0  0
    0.4566    1.3533    3.7196 C   0  0  0  0  0  0  0  0  0  0  0  0
    0.9606    1.5255    2.4748 C   0  0  0  0  0  0  0  0  0  0  0  0
    1.7172    0.6061    1.5948 C   0  0  1  0  0  0  0  0  0  0  0  0
    3.1412    0.7095    1.7312 O   0  0  0  0  0  0  0  0  0  0  0  0
    2.5463   -0.5592    2.0475 C   0  0  2  0  0  0  0  0  0  0  0  0
    2.8212   -1.7463    1.1545 C   0  0  1  0  0  0  0  0  0  0  0  0
    3.5531   -1.5364   -0.1832 C   0  0  0  0  0  0  0  0  0  0  0  0
    3.6481   -2.8901   -0.9255 C   0  0  1  0  0  0  0  0  0  0  0  0
    4.4892   -2.7330   -2.0497 O   0  0  0  0  0  0  0  0  0  0  0  0
    4.1977   -4.0382   -0.0411 C   0  0  0  0  0  0  0  0  0  0  0  0
    3.5350   -4.1016    1.3537 C   0  0  0  0  0  0  0  0  0  0  0  0
    3.5875   -2.7211    2.0256 C   0  0  2  0  0  0  0  0  0  0  0  0
    2.9113   -2.5573    3.3935 C   0  0  1  0  0  0  0  0  0  0  0  0
    3.7582   -3.0133    4.4306 O   0  0  0  0  0  0  0  0  0  0  0  0
    2.5153   -1.0480    3.4862 C   0  0  1  0  0  0  0  0  0  0  0  0
    3.4631   -0.2195    4.4007 C   0  0  0  0  0  0  0  0  0  0  0  0
    1.1291   -1.0317    3.8647 O   0  0  0  0  0  0  0  0  0  0  0  0
    0.5674    0.0801    4.5619 C   0  0  2  0  0  0  0  0  0  0  0  0
   -0.8498   -0.3331    5.0727 C   0  0  1  0  0  0  0  0  0  0  0  0
   -0.8264   -1.3404    6.0887 O   0  0  0  0  0  0  0  0  0  0  0  0
   -0.4559   -2.6435    5.6580 C   0  0  0  0  0  0  0  0  0  0  0  0
   -1.5748    0.8572    5.7549 C   0  0  0  0  0  0  0  0  0  0  0  0
   -1.6829    2.0946    4.8448 C   0  0  1  0  0  0  0  0  0  0  0  0
   -2.4230    3.2564    5.5340 C   0  0  0  0  0  0  0  0  0  0  0  0
   -0.2644    4.5124    4.8255 H   0  0  0  0  0  0  0  0  0  0  0  0
    1.2436    3.8575    4.0007 H   0  0  0  0  0  0  0  0  0  0  0  0
    0.7774    2.4814    2.0009 H   0  0  0  0  0  0  0  0  0  0  0  0
    1.3569    0.6025    0.5738 H   0  0  0  0  0  0  0  0  0  0  0  0
    1.8383   -2.1719    0.9336 H   0  0  0  0  0  0  0  0  0  0  0  0
    3.0143   -0.8225   -0.8047 H   0  0  0  0  0  0  0  0  0  0  0  0
    4.5492   -1.1246   -0.0109 H   0  0  0  0  0  0  0  0  0  0  0  0
    2.6535   -3.1659   -1.2790 H   0  0  0  0  0  0  0  0  0  0  0  0
    4.0455   -2.1797   -2.6753 H   0  0  0  0  0  0  0  0  0  0  0  0
    4.0619   -4.9901   -0.5625 H   0  0  0  0  0  0  0  0  0  0  0  0
    5.2725   -3.9131    0.0891 H   0  0  0  0  0  0  0  0  0  0  0  0
    2.4995   -4.4250    1.2443 H   0  0  0  0  0  0  0  0  0  0  0  0
    4.0325   -4.8504    1.9663 H   0  0  0  0  0  0  0  0  0  0  0  0
    4.6270   -2.3882    2.0938 H   0  0  0  0  0  0  0  0  0  0  0  0
    2.0052   -3.1634    3.4062 H   0  0  0  0  0  0  0  0  0  0  0  0
    4.5638   -2.5184    4.3979 H   0  0  0  0  0  0  0  0  0  0  0  0
    4.5074   -0.2936    4.0886 H   0  0  0  0  0  0  0  0  0  0  0  0
    3.4032   -0.5511    5.4373 H   0  0  0  0  0  0  0  0  0  0  0  0
    3.2173    0.8433    4.3849 H   0  0  0  0  0  0  0  0  0  0  0  0
    1.1640    0.3212    5.4401 H   0  0  0  0  0  0  0  0  0  0  0  0
   -1.4512   -0.6696    4.2229 H   0  0  0  0  0  0  0  0  0  0  0  0
   -0.7114   -3.3764    6.4236 H   0  0  0  0  0  0  0  0  0  0  0  0
    0.6184   -2.7163    5.4970 H   0  0  0  0  0  0  0  0  0  0  0  0
   -0.9720   -2.9212    4.7404 H   0  0  0  0  0  0  0  0  0  0  0  0
   -2.5692    0.5449    6.0730 H   0  0  0  0  0  0  0  0  0  0  0  0
   -1.0362    1.1270    6.6654 H   0  0  0  0  0  0  0  0  0  0  0  0
   -2.2661    1.8137    3.9646 H   0  0  0  0  0  0  0  0  0  0  0  0
   -2.5727    4.0880    4.8457 H   0  0  0  0  0  0  0  0  0  0  0  0
   -1.8781    3.6287    6.4030 H   0  0  0  0  0  0  0  0  0  0  0  0
   -3.4082    2.9424    5.8745 H   0  0  0  0  0  0  0  0  0  0  0  0
  1  2  2  0
  1 27  1  0
  1 28  1  0
  2 25  1  0
  2  3  1  0
  3 20  1  0
  3  4  2  0
  4  5  1  0
  4 29  1  0
  5  7  1  0
  5  6  1  0
  5 30  1  6
  7  6  1  1
  7 17  1  0
  7  8  1  0
  8 14  1  0
  8  9  1  0
  8 31  1  6
  9 10  1  0
  9 32  1  0
  9 33  1  0
 10 11  1  0
 10 12  1  0
 10 34  1  6
 11 35  1  0
 12 13  1  0
 12 36  1  0
 12 37  1  0
 13 14  1  0
 13 38  1  0
 13 39  1  0
 14 15  1  0
 14 40  1  1
 15 16  1  0
 15 17  1  0
 15 41  1  6
 16 42  1  0
 17 18  1  1
 17 19  1  0
 18 43  1  0
 18 44  1  0
 18 45  1  0
 19 20  1  0
 20 21  1  0
 20 46  1  1
 21 22  1  0
 21 24  1  0
 21 47  1  6
 22 23  1  0
 23 48  1  0
 23 49  1  0
 23 50  1  0
 24 25  1  0
 24 51  1  0
 24 52  1  0
 25 26  1  0
 25 53  1  6
 26 54  1  0
 26 55  1  0
 26 56  1  0
M  END
>  <i_m_ct_stereo_status>  (79) 
1

>  <s_m_source_file>  (79) 
/var/tmp/pbs.5076255.sched01/tmpnv36izql/0kitkh5ys.sdf

>  <i_m_source_file_index>  (79) 
36

>  <i_lp_mmshare_version>  (79) 
48012

>  <i_f3d_flags>  (79) 
0

>  <s_epik_input>  (79) 
W0NIMl09QzFbQ0BIXShbQ0gzXSlbQ0gyXVtDQEhdKE9bQ0gzXSlbQ0BIXShDMT1bQ0hdW0NAQEhdKE8yKVtDQF0yMzQpT1tDQEBdNChbQ0gzXSlbQ0BIXShbT0hdKVtDQEBIXTVbQ0BASF0zW0NIMl1bQ0BASF0oW09IXSlbQ0gyXVtDSDJdNQ==

>  <s_epik_cmdline>  (79) 
J2VwaWtfcHl0aG9uJywgJy1waHQnLCAnMi4wJywgJy1waCcsICc3LjAnLCAnLXRuJywgJzgnLCAnLW1hJywgJzIwMCcsICctaW1hZScsICc8aW5maWxlLm1hZT4nLCAnLW9tYWUnLCAnPG91dGZpbGUubWFlPic=

>  <r_lp_tautomer_probability>  (79) 
1

>  <r_epik_Ionization_Penalty>  (79) 
8.17094e-07

>  <r_epik_Ionization_Penalty_Charging>  (79) 
0

>  <r_epik_Ionization_Penalty_Neutral>  (79) 
8.17094e-07

>  <r_epik_State_Penalty>  (79) 
-0

>  <r_epik_Charging_Adjusted_Penalty>  (79) 
0

>  <i_epik_Tot_Q>  (79) 
0

>  <i_epik_Tot_abs_Q>  (79) 
0

>  <s_lp_Force_Field>  (79) 
OPLS3e

>  <r_lp_Energy>  (79) 
42.734

>  <b_lp_Chiralities_Consistent>  (79) 
1

>  <s_lp_Variant>  (79) 
27:0-1

>  <s_i_glide_gridfile>  (79) 
pfpi4k_grid

>  <i_i_glide_lignum>  (79) 
36

>  <i_i_glide_rotatable_bonds>  (79) 
3

>  <r_i_docking_score>  (79) 
-2.3419

>  <r_i_glide_ligand_efficiency>  (79) 
-0.090073

>  <r_i_glide_ligand_efficiency_sa>  (79) 
-0.266841

>  <r_i_glide_ligand_efficiency_ln>  (79) 
-0.549987

>  <r_i_glide_gscore>  (79) 
-2.3419

>  <r_i_glide_lipo>  (79) 
-0.00681786

>  <r_i_glide_hbond>  (79) 
0

>  <r_i_glide_metal>  (79) 
-0

>  <r_i_glide_rewards>  (79) 
-0.937773

>  <r_i_glide_evdw>  (79) 
-21.4441

>  <r_i_glide_ecoul>  (79) 
-2.16734

>  <r_i_glide_erotb>  (79) 
0

>  <r_i_glide_esite>  (79) 
0

>  <r_i_glide_emodel>  (79) 
-27.2586

>  <r_i_glide_energy>  (79) 
-23.6115

>  <r_i_glide_einternal>  (79) 
0.543452

>  <r_i_glide_intrahb_reward>  (79) 
-0

>  <i_i_glide_confnum>  (79) 
1

>  <i_i_glide_posenum>  (79) 
15

>  <r_i_glide_eff_state_penalty>  (79) 
0

>  <ligand_id>  (79) 
27

>  <original_smiles>  (79) 
C=C1C2=CC3OC34C3CC(O)CCC3C(O)C4(C)OC2C(OC)CC1C

>  <smiles>  (79) 
[H]OC1([H])C([H])([H])C([H])([H])C2([H])C([H])(O[H])C3(C([H])([H])[H])OC4([H])C(=C([H])C5([H])OC53C2([H])C1([H])[H])C(=C([H])[H])C([H])(C([H])([H])[H])C([H])([H])C4([H])OC([H])([H])[H]

$$$$
28:0:0
     RDKit          3D

 64 68  0  0  1  0  0  0  0  0999 V2000
    5.3495   -5.9681    5.6242 C   0  0  0  0  0  0  0  0  0  0  0  0
    5.4738   -6.2443    4.1119 C   0  0  0  0  0  0  0  0  0  0  0  0
    4.2725   -5.7636    3.2213 C   0  0  1  0  0  0  0  0  0  0  0  0
    4.1741   -4.2898    3.3241 C   0  0  0  0  0  0  0  0  0  0  0  0
    5.1888   -3.5250    2.8370 C   0  0  0  0  0  0  0  0  0  0  0  0
    6.2030   -3.9106    1.6907 C   0  0  1  0  0  0  0  0  0  0  0  0
    6.6370   -5.4293    1.3870 C   0  0  1  0  0  0  0  0  0  0  0  0
    7.9054   -5.9474    2.1275 C   0  0  0  0  0  0  0  0  0  0  0  0
    5.4917   -6.4831    1.1572 C   0  0  0  0  0  0  0  0  0  0  0  0
    4.1605   -5.9072    1.6364 C   0  0  2  0  0  0  0  0  0  0  0  0
    3.6799   -4.8582    0.4974 C   0  0  0  0  0  0  0  0  0  0  0  0
    4.1521   -3.3756    0.2276 C   0  0  2  0  0  0  0  0  0  0  0  0
    3.5450   -2.7752   -1.1200 C   0  0  0  0  0  0  0  0  0  0  0  0
    2.0953   -3.2569   -1.3629 C   0  0  0  0  0  0  0  0  0  0  0  0
    3.4509   -1.2264   -1.0882 C   0  0  0  0  0  0  0  0  0  0  0  0
    4.3588   -3.1991   -2.3565 C   0  0  0  0  0  0  0  0  0  0  0  0
    5.8530   -2.9209   -2.2182 C   0  0  0  0  0  0  0  0  0  0  0  0
    6.3907   -3.5690   -0.9351 C   0  0  0  0  0  0  0  0  0  0  0  0
    5.7020   -3.1416    0.3963 C   0  0  2  0  0  0  0  0  0  0  0  0
    6.0470   -1.6356    0.6360 C   0  0  0  0  0  0  0  0  0  0  0  0
    2.8990   -6.5906    1.6172 O   0  0  0  0  0  0  0  0  0  0  0  0
    2.0672   -6.1561    2.7433 C   0  0  2  0  0  0  0  0  0  0  0  0
    1.8148   -4.6393    2.9736 C   0  0  0  0  0  0  0  0  0  0  0  0
    2.8053   -3.7759    3.3426 C   0  0  0  0  0  0  0  0  0  0  0  0
    3.0475   -6.5368    3.7949 C   0  0  1  0  0  0  0  0  0  0  0  0
    3.1487   -8.0792    3.9310 C   0  0  0  0  0  0  0  0  0  0  0  0
    6.2784   -6.2483    6.1171 H   0  0  0  0  0  0  0  0  0  0  0  0
    4.5427   -6.5122    6.1177 H   0  0  0  0  0  0  0  0  0  0  0  0
    5.2123   -4.9016    5.8143 H   0  0  0  0  0  0  0  0  0  0  0  0
    6.3528   -5.6689    3.8954 H   0  0  0  0  0  0  0  0  0  0  0  0
    5.7054   -7.2968    3.9475 H   0  0  0  0  0  0  0  0  0  0  0  0
    5.0044   -2.4649    2.8700 H   0  0  0  0  0  0  0  0  0  0  0  0
    7.1340   -3.4449    1.9801 H   0  0  0  0  0  0  0  0  0  0  0  0
    7.1346   -5.4275    0.4294 H   0  0  0  0  0  0  0  0  0  0  0  0
    8.2575   -5.2541    2.8895 H   0  0  0  0  0  0  0  0  0  0  0  0
    8.7488   -6.0884    1.4528 H   0  0  0  0  0  0  0  0  0  0  0  0
    7.7436   -6.9145    2.6041 H   0  0  0  0  0  0  0  0  0  0  0  0
    5.4133   -6.7191    0.0976 H   0  0  0  0  0  0  0  0  0  0  0  0
    5.7160   -7.4323    1.6509 H   0  0  0  0  0  0  0  0  0  0  0  0
    3.8022   -5.3869   -0.4466 H   0  0  0  0  0  0  0  0  0  0  0  0
    2.6036   -4.7410    0.5686 H   0  0  0  0  0  0  0  0  0  0  0  0
    3.6474   -2.7795    0.9875 H   0  0  0  0  0  0  0  0  0  0  0  0
    1.6538   -2.7604   -2.2279 H   0  0  0  0  0  0  0  0  0  0  0  0
    1.4700   -3.0614   -0.4943 H   0  0  0  0  0  0  0  0  0  0  0  0
    2.0212   -4.3220   -1.5547 H   0  0  0  0  0  0  0  0  0  0  0  0
    2.7665   -0.8681   -1.8594 H   0  0  0  0  0  0  0  0  0  0  0  0
    4.3914   -0.7323   -1.3010 H   0  0  0  0  0  0  0  0  0  0  0  0
    3.0846   -0.8631   -0.1275 H   0  0  0  0  0  0  0  0  0  0  0  0
    4.2248   -4.2627   -2.5135 H   0  0  0  0  0  0  0  0  0  0  0  0
    3.9669   -2.7204   -3.2531 H   0  0  0  0  0  0  0  0  0  0  0  0
    6.3641   -3.3673   -3.0723 H   0  0  0  0  0  0  0  0  0  0  0  0
    6.0599   -1.8566   -2.2742 H   0  0  0  0  0  0  0  0  0  0  0  0
    6.1799   -4.6197   -1.0980 H   0  0  0  0  0  0  0  0  0  0  0  0
    7.4735   -3.4620   -0.8722 H   0  0  0  0  0  0  0  0  0  0  0  0
    6.2058   -1.0898   -0.2850 H   0  0  0  0  0  0  0  0  0  0  0  0
    6.9756   -1.4961    1.1921 H   0  0  0  0  0  0  0  0  0  0  0  0
    5.2604   -1.1173    1.1813 H   0  0  0  0  0  0  0  0  0  0  0  0
    1.1355   -6.7233    2.8045 H   0  0  0  0  0  0  0  0  0  0  0  0
    0.7896   -4.3032    2.9053 H   0  0  0  0  0  0  0  0  0  0  0  0
    2.6026   -2.7339    3.5185 H   0  0  0  0  0  0  0  0  0  0  0  0
    2.7356   -6.1446    4.7653 H   0  0  0  0  0  0  0  0  0  0  0  0
    3.5243   -8.5561    3.0265 H   0  0  0  0  0  0  0  0  0  0  0  0
    2.1689   -8.5108    4.1391 H   0  0  0  0  0  0  0  0  0  0  0  0
    3.7948   -8.3706    4.7572 H   0  0  0  0  0  0  0  0  0  0  0  0
  1  2  1  0
  1 27  1  0
  1 28  1  0
  1 29  1  0
  3  2  1  1
  2 30  1  0
  2 31  1  0
  3 10  1  0
  3 25  1  0
  3  4  1  0
  4 24  1  0
  4  5  2  0
  5  6  1  0
  5 32  1  0
  6 19  1  0
  6  7  1  0
  6 33  1  1
  7  8  1  0
  7  9  1  0
  7 34  1  6
  8 35  1  0
  8 36  1  0
  8 37  1  0
  9 10  1  0
  9 38  1  0
  9 39  1  0
 10 11  1  0
 10 21  1  1
 11 12  1  0
 11 40  1  0
 11 41  1  0
 12 19  1  0
 12 13  1  0
 12 42  1  1
 13 14  1  0
 13 15  1  0
 13 16  1  0
 14 43  1  0
 14 44  1  0
 14 45  1  0
 15 46  1  0
 15 47  1  0
 15 48  1  0
 16 17  1  0
 16 49  1  0
 16 50  1  0
 17 18  1  0
 17 51  1  0
 17 52  1  0
 18 19  1  0
 18 53  1  0
 18 54  1  0
 19 20  1  1
 20 55  1  0
 20 56  1  0
 20 57  1  0
 21 22  1  0
 22 23  1  0
 22 25  1  0
 22 58  1  1
 23 24  2  0
 23 59  1  0
 24 60  1  0
 25 26  1  0
 25 61  1  1
 26 62  1  0
 26 63  1  0
 26 64  1  0
M  END
>  <i_m_ct_stereo_status>  (80) 
1

>  <s_m_source_file>  (80) 
/var/tmp/pbs.5076255.sched01/tmpnv36izql/0kitkh5ys.sdf

>  <i_m_source_file_index>  (80) 
37

>  <i_lp_mmshare_version>  (80) 
48012

>  <i_f3d_flags>  (80) 
0

>  <s_epik_input>  (80) 
W0NIM11bQ0BASF0xW0NASF0oTzIpW0NIXT1bQ0hdQyhbQ0BAXTEoW0NAXTIzNClbQ0gyXVtDSDNdKT1bQ0hdW0NAQEhdKFtDQEBIXShbQ0gzXSlbQ0gyXTMpW0NAXTUoW0NIM10pW0NASF0oW0NIMl00KUMoW0NIM10pKFtDSDNdKVtDSDJdW0NIMl1bQ0gyXTU=

>  <s_epik_cmdline>  (80) 
J2VwaWtfcHl0aG9uJywgJy1waHQnLCAnMi4wJywgJy1waCcsICc3LjAnLCAnLXRuJywgJzgnLCAnLW1hJywgJzIwMCcsICctaW1hZScsICc8aW5maWxlLm1hZT4nLCAnLW9tYWUnLCAnPG91dGZpbGUubWFlPic=

>  <r_lp_tautomer_probability>  (80) 
1

>  <r_epik_Ionization_Penalty>  (80) 
1.41908e-11

>  <r_epik_Ionization_Penalty_Charging>  (80) 
0

>  <r_epik_Ionization_Penalty_Neutral>  (80) 
1.41908e-11

>  <r_epik_State_Penalty>  (80) 
-0

>  <r_epik_Charging_Adjusted_Penalty>  (80) 
0

>  <i_epik_Tot_Q>  (80) 
0

>  <i_epik_Tot_abs_Q>  (80) 
0

>  <s_lp_Force_Field>  (80) 
OPLS3e

>  <r_lp_Energy>  (80) 
176.045

>  <b_lp_Chiralities_Consistent>  (80) 
1

>  <s_lp_Variant>  (80) 
28:0-1

>  <s_i_glide_gridfile>  (80) 
pfpi4k_grid

>  <i_i_glide_lignum>  (80) 
37

>  <i_i_glide_rotatable_bonds>  (80) 
1

>  <r_i_docking_score>  (80) 
-2.69929

>  <r_i_glide_ligand_efficiency>  (80) 
-0.103819

>  <r_i_glide_ligand_efficiency_sa>  (80) 
-0.307563

>  <r_i_glide_ligand_efficiency_ln>  (80) 
-0.633921

>  <r_i_glide_gscore>  (80) 
-2.69929

>  <r_i_glide_lipo>  (80) 
-0.756579

>  <r_i_glide_hbond>  (80) 
0

>  <r_i_glide_metal>  (80) 
-0

>  <r_i_glide_rewards>  (80) 
-0.991578

>  <r_i_glide_evdw>  (80) 
-17.1281

>  <r_i_glide_ecoul>  (80) 
-0.631546

>  <r_i_glide_erotb>  (80) 
0

>  <r_i_glide_esite>  (80) 
0

>  <r_i_glide_emodel>  (80) 
-19.9427

>  <r_i_glide_energy>  (80) 
-17.7597

>  <r_i_glide_einternal>  (80) 
0.00566969

>  <r_i_glide_intrahb_reward>  (80) 
-0

>  <i_i_glide_confnum>  (80) 
2

>  <i_i_glide_posenum>  (80) 
4

>  <r_i_glide_eff_state_penalty>  (80) 
0

>  <ligand_id>  (80) 
28

>  <original_smiles>  (80) 
CCC12C3=CC4C(C)CC1(CC1C(C)(C)CCCC41C)OC(C=C3)C2C

>  <smiles>  (80) 
[H]C1=C([H])C2([H])OC34C([H])([H])C([H])(C([H])([H])[H])C([H])(C([H])=C1C3(C([H])([H])C([H])([H])[H])C2([H])C([H])([H])[H])C1(C([H])([H])[H])C([H])([H])C([H])([H])C([H])([H])C(C([H])([H])[H])(C([H])([H])[H])C1([H])C4([H])[H]

$$$$
28:0:1
     RDKit          3D

 64 68  0  0  1  0  0  0  0  0999 V2000
    6.1087   -5.0163    5.1119 C   0  0  0  0  0  0  0  0  0  0  0  0
    6.0339   -5.5474    3.6628 C   0  0  0  0  0  0  0  0  0  0  0  0
    4.7136   -5.2193    2.8782 C   0  0  1  0  0  0  0  0  0  0  0  0
    4.5082   -3.7453    2.8707 C   0  0  0  0  0  0  0  0  0  0  0  0
    5.3896   -2.9467    2.2140 C   0  0  0  0  0  0  0  0  0  0  0  0
    6.3126   -3.3428    0.9926 C   0  0  1  0  0  0  0  0  0  0  0  0
    6.8302   -4.8384    0.7569 C   0  0  1  0  0  0  0  0  0  0  0  0
    8.2244   -5.1980    1.3585 C   0  0  0  0  0  0  0  0  0  0  0  0
    5.7610   -5.9944    0.7460 C   0  0  0  0  0  0  0  0  0  0  0  0
    4.4410   -5.4967    1.3340 C   0  0  2  0  0  0  0  0  0  0  0  0
    3.7456   -4.5917    0.1823 C   0  0  0  0  0  0  0  0  0  0  0  0
    4.0610   -3.1131   -0.2650 C   0  0  2  0  0  0  0  0  0  0  0  0
    3.2554   -2.6933   -1.5768 C   0  0  0  0  0  0  0  0  0  0  0  0
    1.8353   -3.3040   -1.6279 C   0  0  0  0  0  0  0  0  0  0  0  0
    3.0654   -1.1566   -1.6614 C   0  0  0  0  0  0  0  0  0  0  0  0
    3.9466   -3.1708   -2.8540 C   0  0  0  0  0  0  0  0  0  0  0  0
    5.3940   -2.7461   -2.9157 C   0  0  0  0  0  0  0  0  0  0  0  0
    6.1626   -3.1971   -1.6642 C   0  0  0  0  0  0  0  0  0  0  0  0
    5.5947   -2.7298   -0.2888 C   0  0  2  0  0  0  0  0  0  0  0  0
    5.8178   -1.1915   -0.2152 C   0  0  0  0  0  0  0  0  0  0  0  0
    3.2496   -6.2759    1.5089 O   0  0  0  0  0  0  0  0  0  0  0  0
    2.5128   -5.8111    2.6886 C   0  0  2  0  0  0  0  0  0  0  0  0
    2.1565   -4.3003    2.8336 C   0  0  0  0  0  0  0  0  0  0  0  0
    3.1084   -3.3401    3.0107 C   0  0  0  0  0  0  0  0  0  0  0  0
    3.6272   -6.0232    3.6493 C   0  0  1  0  0  0  0  0  0  0  0  0
    3.8763   -7.5383    3.8891 C   0  0  0  0  0  0  0  0  0  0  0  0
    7.1122   -5.1882    5.4958 H   0  0  0  0  0  0  0  0  0  0  0  0
    5.3981   -5.4828    5.7968 H   0  0  0  0  0  0  0  0  0  0  0  0
    5.9673   -3.9334    5.1434 H   0  0  0  0  0  0  0  0  0  0  0  0
    6.8664   -5.0433    3.2398 H   0  0  0  0  0  0  0  0  0  0  0  0
    6.2883   -6.6087    3.6227 H   0  0  0  0  0  0  0  0  0  0  0  0
    5.1194   -1.9051    2.1860 H   0  0  0  0  0  0  0  0  0  0  0  0
    7.2271   -2.7726    1.1504 H   0  0  0  0  0  0  0  0  0  0  0  0
    7.2033   -4.8642   -0.2557 H   0  0  0  0  0  0  0  0  0  0  0  0
    8.5892   -4.4211    2.0364 H   0  0  0  0  0  0  0  0  0  0  0  0
    8.9879   -5.3256    0.5954 H   0  0  0  0  0  0  0  0  0  0  0  0
    8.2055   -6.1366    1.9109 H   0  0  0  0  0  0  0  0  0  0  0  0
    5.5814   -6.2938   -0.2812 H   0  0  0  0  0  0  0  0  0  0  0  0
    6.1178   -6.8816    1.2687 H   0  0  0  0  0  0  0  0  0  0  0  0
    3.7988   -5.1918   -0.7157 H   0  0  0  0  0  0  0  0  0  0  0  0
    2.6768   -4.5499    0.3722 H   0  0  0  0  0  0  0  0  0  0  0  0
    3.5893   -2.4902    0.4963 H   0  0  0  0  0  0  0  0  0  0  0  0
    1.2662   -2.9224   -2.4732 H   0  0  0  0  0  0  0  0  0  0  0  0
    1.3085   -3.0605   -0.7206 H   0  0  0  0  0  0  0  0  0  0  0  0
    1.8215   -4.3914   -1.7143 H   0  0  0  0  0  0  0  0  0  0  0  0
    2.2407   -0.8902   -2.3219 H   0  0  0  0  0  0  0  0  0  0  0  0
    3.9099   -0.6061   -2.0518 H   0  0  0  0  0  0  0  0  0  0  0  0
    2.8715   -0.7345   -0.6748 H   0  0  0  0  0  0  0  0  0  0  0  0
    3.9094   -4.2507   -2.9168 H   0  0  0  0  0  0  0  0  0  0  0  0
    3.4184   -2.8098   -3.7311 H   0  0  0  0  0  0  0  0  0  0  0  0
    5.8522   -3.2342   -3.7785 H   0  0  0  0  0  0  0  0  0  0  0  0
    5.3975   -1.6793   -3.0793 H   0  0  0  0  0  0  0  0  0  0  0  0
    6.0193   -4.2608   -1.7280 H   0  0  0  0  0  0  0  0  0  0  0  0
    7.2324   -2.9895   -1.7547 H   0  0  0  0  0  0  0  0  0  0  0  0
    5.8089   -0.7223   -1.1914 H   0  0  0  0  0  0  0  0  0  0  0  0
    6.7867   -0.9264    0.2094 H   0  0  0  0  0  0  0  0  0  0  0  0
    5.0506   -0.6920    0.3777 H   0  0  0  0  0  0  0  0  0  0  0  0
    1.6484   -6.4392    2.9007 H   0  0  0  0  0  0  0  0  0  0  0  0
    1.1068   -4.0577    2.8452 H   0  0  0  0  0  0  0  0  0  0  0  0
    2.8310   -2.3009    3.1199 H   0  0  0  0  0  0  0  0  0  0  0  0
    3.3990   -5.5722    4.6173 H   0  0  0  0  0  0  0  0  0  0  0  0
    4.1919   -8.0624    2.9860 H   0  0  0  0  0  0  0  0  0  0  0  0
    2.9670   -8.0254    4.2416 H   0  0  0  0  0  0  0  0  0  0  0  0
    4.6292   -7.7056    4.6591 H   0  0  0  0  0  0  0  0  0  0  0  0
  1  2  1  0
  1 27  1  0
  1 28  1  0
  1 29  1  0
  3  2  1  1
  2 30  1  0
  2 31  1  0
  3 10  1  0
  3 25  1  0
  3  4  1  0
  4 24  1  0
  4  5  2  0
  5  6  1  0
  5 32  1  0
  6 19  1  0
  6  7  1  0
  6 33  1  1
  7  8  1  0
  7  9  1  0
  7 34  1  6
  8 35  1  0
  8 36  1  0
  8 37  1  0
  9 10  1  0
  9 38  1  0
  9 39  1  0
 10 11  1  0
 10 21  1  1
 11 12  1  0
 11 40  1  0
 11 41  1  0
 12 19  1  0
 12 13  1  0
 12 42  1  1
 13 14  1  0
 13 15  1  0
 13 16  1  0
 14 43  1  0
 14 44  1  0
 14 45  1  0
 15 46  1  0
 15 47  1  0
 15 48  1  0
 16 17  1  0
 16 49  1  0
 16 50  1  0
 17 18  1  0
 17 51  1  0
 17 52  1  0
 18 19  1  0
 18 53  1  0
 18 54  1  0
 19 20  1  1
 20 55  1  0
 20 56  1  0
 20 57  1  0
 21 22  1  0
 22 23  1  0
 22 25  1  0
 22 58  1  1
 23 24  2  0
 23 59  1  0
 24 60  1  0
 25 26  1  0
 25 61  1  1
 26 62  1  0
 26 63  1  0
 26 64  1  0
M  END
>  <i_m_ct_stereo_status>  (81) 
1

>  <s_m_source_file>  (81) 
/var/tmp/pbs.5076255.sched01/tmpnv36izql/0kitkh5ys.sdf

>  <i_m_source_file_index>  (81) 
37

>  <i_lp_mmshare_version>  (81) 
48012

>  <i_f3d_flags>  (81) 
0

>  <s_epik_input>  (81) 
W0NIM11bQ0BASF0xW0NASF0oTzIpW0NIXT1bQ0hdQyhbQ0BAXTEoW0NAXTIzNClbQ0gyXVtDSDNdKT1bQ0hdW0NAQEhdKFtDQEBIXShbQ0gzXSlbQ0gyXTMpW0NAXTUoW0NIM10pW0NASF0oW0NIMl00KUMoW0NIM10pKFtDSDNdKVtDSDJdW0NIMl1bQ0gyXTU=

>  <s_epik_cmdline>  (81) 
J2VwaWtfcHl0aG9uJywgJy1waHQnLCAnMi4wJywgJy1waCcsICc3LjAnLCAnLXRuJywgJzgnLCAnLW1hJywgJzIwMCcsICctaW1hZScsICc8aW5maWxlLm1hZT4nLCAnLW9tYWUnLCAnPG91dGZpbGUubWFlPic=

>  <r_lp_tautomer_probability>  (81) 
1

>  <r_epik_Ionization_Penalty>  (81) 
1.41908e-11

>  <r_epik_Ionization_Penalty_Charging>  (81) 
0

>  <r_epik_Ionization_Penalty_Neutral>  (81) 
1.41908e-11

>  <r_epik_State_Penalty>  (81) 
-0

>  <r_epik_Charging_Adjusted_Penalty>  (81) 
0

>  <i_epik_Tot_Q>  (81) 
0

>  <i_epik_Tot_abs_Q>  (81) 
0

>  <s_lp_Force_Field>  (81) 
OPLS3e

>  <r_lp_Energy>  (81) 
176.045

>  <b_lp_Chiralities_Consistent>  (81) 
1

>  <s_lp_Variant>  (81) 
28:0-1

>  <s_i_glide_gridfile>  (81) 
pfpi4k_grid

>  <i_i_glide_lignum>  (81) 
37

>  <i_i_glide_rotatable_bonds>  (81) 
1

>  <r_i_docking_score>  (81) 
-2.69057

>  <r_i_glide_ligand_efficiency>  (81) 
-0.103483

>  <r_i_glide_ligand_efficiency_sa>  (81) 
-0.306569

>  <r_i_glide_ligand_efficiency_ln>  (81) 
-0.631871

>  <r_i_glide_gscore>  (81) 
-2.69057

>  <r_i_glide_lipo>  (81) 
-0.767927

>  <r_i_glide_hbond>  (81) 
0

>  <r_i_glide_metal>  (81) 
-0

>  <r_i_glide_rewards>  (81) 
-0.991578

>  <r_i_glide_evdw>  (81) 
-17.1365

>  <r_i_glide_ecoul>  (81) 
-0.49492

>  <r_i_glide_erotb>  (81) 
0

>  <r_i_glide_esite>  (81) 
0

>  <r_i_glide_emodel>  (81) 
-19.0666

>  <r_i_glide_energy>  (81) 
-17.6314

>  <r_i_glide_einternal>  (81) 
0.217088

>  <r_i_glide_intrahb_reward>  (81) 
-0

>  <i_i_glide_confnum>  (81) 
2

>  <i_i_glide_posenum>  (81) 
7

>  <r_i_glide_eff_state_penalty>  (81) 
0

>  <ligand_id>  (81) 
28

>  <original_smiles>  (81) 
CCC12C3=CC4C(C)CC1(CC1C(C)(C)CCCC41C)OC(C=C3)C2C

>  <smiles>  (81) 
[H]C1=C([H])C2([H])OC34C([H])([H])C([H])(C([H])([H])[H])C([H])(C([H])=C1C3(C([H])([H])C([H])([H])[H])C2([H])C([H])([H])[H])C1(C([H])([H])[H])C([H])([H])C([H])([H])C([H])([H])C(C([H])([H])[H])(C([H])([H])[H])C1([H])C4([H])[H]

$$$$
28:0:2
     RDKit          3D

 64 68  0  0  1  0  0  0  0  0999 V2000
    4.0184   -7.8355    5.5500 C   0  0  0  0  0  0  0  0  0  0  0  0
    4.7809   -7.4746    4.2608 C   0  0  0  0  0  0  0  0  0  0  0  0
    3.9158   -6.9226    3.0769 C   0  0  1  0  0  0  0  0  0  0  0  0
    3.3077   -5.6338    3.4916 C   0  0  0  0  0  0  0  0  0  0  0  0
    4.1182   -4.5792    3.7419 C   0  0  0  0  0  0  0  0  0  0  0  0
    5.5541   -4.3253    3.1425 C   0  0  1  0  0  0  0  0  0  0  0  0
    6.5474   -5.5084    2.6997 C   0  0  1  0  0  0  0  0  0  0  0  0
    7.5320   -6.0261    3.7837 C   0  0  0  0  0  0  0  0  0  0  0  0
    5.9904   -6.5899    1.7060 C   0  0  0  0  0  0  0  0  0  0  0  0
    4.4674   -6.4809    1.6494 C   0  0  2  0  0  0  0  0  0  0  0  0
    4.1250   -5.1983    0.7127 C   0  0  0  0  0  0  0  0  0  0  0  0
    4.1457   -3.6633    1.0817 C   0  0  2  0  0  0  0  0  0  0  0  0
    3.9352   -2.7255   -0.1884 C   0  0  0  0  0  0  0  0  0  0  0  0
    2.8961   -3.3092   -1.1711 C   0  0  0  0  0  0  0  0  0  0  0  0
    3.3773   -1.3363    0.1954 C   0  0  0  0  0  0  0  0  0  0  0  0
    5.2429   -2.5294   -0.9881 C   0  0  0  0  0  0  0  0  0  0  0  0
    6.3959   -2.0537   -0.1061 C   0  0  0  0  0  0  0  0  0  0  0  0
    6.5877   -3.0258    1.0578 C   0  0  0  0  0  0  0  0  0  0  0  0
    5.3576   -3.2428    1.9943 C   0  0  2  0  0  0  0  0  0  0  0  0
    5.0898   -1.8950    2.7368 C   0  0  0  0  0  0  0  0  0  0  0  0
    3.6076   -7.3311    0.8827 O   0  0  0  0  0  0  0  0  0  0  0  0
    2.3185   -7.5005    1.5589 C   0  0  2  0  0  0  0  0  0  0  0  0
    1.5158   -6.2517    2.0124 C   0  0  0  0  0  0  0  0  0  0  0  0
    1.9504   -5.4211    3.0052 C   0  0  0  0  0  0  0  0  0  0  0  0
    2.8889   -8.0606    2.8045 C   0  0  1  0  0  0  0  0  0  0  0  0
    3.4252   -9.4976    2.5653 C   0  0  0  0  0  0  0  0  0  0  0  0
    4.7320   -8.1049    6.3267 H   0  0  0  0  0  0  0  0  0  0  0  0
    3.3274   -8.6727    5.4415 H   0  0  0  0  0  0  0  0  0  0  0  0
    3.4616   -6.9752    5.9240 H   0  0  0  0  0  0  0  0  0  0  0  0
    5.4258   -6.7089    4.6418 H   0  0  0  0  0  0  0  0  0  0  0  0
    5.3977   -8.3196    3.9488 H   0  0  0  0  0  0  0  0  0  0  0  0
    3.6111   -3.6505    3.9577 H   0  0  0  0  0  0  0  0  0  0  0  0
    6.0589   -3.8497    3.9779 H   0  0  0  0  0  0  0  0  0  0  0  0
    7.3385   -5.0572    2.1202 H   0  0  0  0  0  0  0  0  0  0  0  0
    7.3128   -5.6149    4.7718 H   0  0  0  0  0  0  0  0  0  0  0  0
    8.5653   -5.7483    3.5653 H   0  0  0  0  0  0  0  0  0  0  0  0
    7.5292   -7.1146    3.8649 H   0  0  0  0  0  0  0  0  0  0  0  0
    6.4159   -6.4272    0.7169 H   0  0  0  0  0  0  0  0  0  0  0  0
    6.3015   -7.5965    1.9889 H   0  0  0  0  0  0  0  0  0  0  0  0
    4.7529   -5.3086   -0.1712 H   0  0  0  0  0  0  0  0  0  0  0  0
    3.1275   -5.3228    0.3023 H   0  0  0  0  0  0  0  0  0  0  0  0
    3.2303   -3.4916    1.6458 H   0  0  0  0  0  0  0  0  0  0  0  0
    2.6856   -2.6185   -1.9907 H   0  0  0  0  0  0  0  0  0  0  0  0
    1.9467   -3.5344   -0.6820 H   0  0  0  0  0  0  0  0  0  0  0  0
    3.2727   -4.2194   -1.6314 H   0  0  0  0  0  0  0  0  0  0  0  0
    3.0041   -0.8313   -0.6917 H   0  0  0  0  0  0  0  0  0  0  0  0
    4.1147   -0.6447    0.5860 H   0  0  0  0  0  0  0  0  0  0  0  0
    2.5620   -1.4138    0.9187 H   0  0  0  0  0  0  0  0  0  0  0  0
    5.5325   -3.4697   -1.4542 H   0  0  0  0  0  0  0  0  0  0  0  0
    5.0846   -1.8223   -1.8059 H   0  0  0  0  0  0  0  0  0  0  0  0
    7.3067   -2.0433   -0.7024 H   0  0  0  0  0  0  0  0  0  0  0  0
    6.2517   -1.0269    0.2182 H   0  0  0  0  0  0  0  0  0  0  0  0
    6.8513   -3.9485    0.5449 H   0  0  0  0  0  0  0  0  0  0  0  0
    7.4138   -2.7083    1.6663 H   0  0  0  0  0  0  0  0  0  0  0  0
    5.4057   -1.0240    2.1739 H   0  0  0  0  0  0  0  0  0  0  0  0
    5.6433   -1.8079    3.6716 H   0  0  0  0  0  0  0  0  0  0  0  0
    4.0362   -1.7529    2.9734 H   0  0  0  0  0  0  0  0  0  0  0  0
    1.6684   -8.2026    1.0337 H   0  0  0  0  0  0  0  0  0  0  0  0
    0.5519   -6.1270    1.5454 H   0  0  0  0  0  0  0  0  0  0  0  0
    1.3734   -4.5670    3.3243 H   0  0  0  0  0  0  0  0  0  0  0  0
    2.1236   -8.1217    3.5813 H   0  0  0  0  0  0  0  0  0  0  0  0
    4.2412   -9.5316    1.8430 H   0  0  0  0  0  0  0  0  0  0  0  0
    2.6352  -10.1417    2.1779 H   0  0  0  0  0  0  0  0  0  0  0  0
    3.7741   -9.9585    3.4872 H   0  0  0  0  0  0  0  0  0  0  0  0
  1  2  1  0
  1 27  1  0
  1 28  1  0
  1 29  1  0
  3  2  1  1
  2 30  1  0
  2 31  1  0
  3 10  1  0
  3 25  1  0
  3  4  1  0
  4 24  1  0
  4  5  2  0
  5  6  1  0
  5 32  1  0
  6 19  1  0
  6  7  1  0
  6 33  1  1
  7  8  1  0
  7  9  1  0
  7 34  1  6
  8 35  1  0
  8 36  1  0
  8 37  1  0
  9 10  1  0
  9 38  1  0
  9 39  1  0
 10 11  1  0
 10 21  1  6
 11 12  1  0
 11 40  1  0
 11 41  1  0
 12 19  1  0
 12 13  1  0
 12 42  1  1
 13 14  1  0
 13 15  1  0
 13 16  1  0
 14 43  1  0
 14 44  1  0
 14 45  1  0
 15 46  1  0
 15 47  1  0
 15 48  1  0
 16 17  1  0
 16 49  1  0
 16 50  1  0
 17 18  1  0
 17 51  1  0
 17 52  1  0
 18 19  1  0
 18 53  1  0
 18 54  1  0
 19 20  1  1
 20 55  1  0
 20 56  1  0
 20 57  1  0
 21 22  1  0
 22 23  1  0
 22 25  1  0
 22 58  1  6
 23 24  2  0
 23 59  1  0
 24 60  1  0
 25 26  1  0
 25 61  1  1
 26 62  1  0
 26 63  1  0
 26 64  1  0
M  END
>  <i_m_ct_stereo_status>  (82) 
1

>  <s_m_source_file>  (82) 
/var/tmp/pbs.5076255.sched01/tmpnv36izql/0kitkh5ys.sdf

>  <i_m_source_file_index>  (82) 
37

>  <i_lp_mmshare_version>  (82) 
48012

>  <i_f3d_flags>  (82) 
0

>  <s_epik_input>  (82) 
W0NIM11bQ0BASF0xW0NASF0oTzIpW0NIXT1bQ0hdQyhbQ0BAXTEoW0NAXTIzNClbQ0gyXVtDSDNdKT1bQ0hdW0NAQEhdKFtDQEBIXShbQ0gzXSlbQ0gyXTMpW0NAXTUoW0NIM10pW0NASF0oW0NIMl00KUMoW0NIM10pKFtDSDNdKVtDSDJdW0NIMl1bQ0gyXTU=

>  <s_epik_cmdline>  (82) 
J2VwaWtfcHl0aG9uJywgJy1waHQnLCAnMi4wJywgJy1waCcsICc3LjAnLCAnLXRuJywgJzgnLCAnLW1hJywgJzIwMCcsICctaW1hZScsICc8aW5maWxlLm1hZT4nLCAnLW9tYWUnLCAnPG91dGZpbGUubWFlPic=

>  <r_lp_tautomer_probability>  (82) 
1

>  <r_epik_Ionization_Penalty>  (82) 
1.41908e-11

>  <r_epik_Ionization_Penalty_Charging>  (82) 
0

>  <r_epik_Ionization_Penalty_Neutral>  (82) 
1.41908e-11

>  <r_epik_State_Penalty>  (82) 
-0

>  <r_epik_Charging_Adjusted_Penalty>  (82) 
0

>  <i_epik_Tot_Q>  (82) 
0

>  <i_epik_Tot_abs_Q>  (82) 
0

>  <s_lp_Force_Field>  (82) 
OPLS3e

>  <r_lp_Energy>  (82) 
176.045

>  <b_lp_Chiralities_Consistent>  (82) 
1

>  <s_lp_Variant>  (82) 
28:0-1

>  <s_i_glide_gridfile>  (82) 
pfpi4k_grid

>  <i_i_glide_lignum>  (82) 
37

>  <i_i_glide_rotatable_bonds>  (82) 
1

>  <r_i_docking_score>  (82) 
-2.28173

>  <r_i_glide_ligand_efficiency>  (82) 
-0.0877589

>  <r_i_glide_ligand_efficiency_sa>  (82) 
-0.259985

>  <r_i_glide_ligand_efficiency_ln>  (82) 
-0.535857

>  <r_i_glide_gscore>  (82) 
-2.28173

>  <r_i_glide_lipo>  (82) 
-0.486016

>  <r_i_glide_hbond>  (82) 
0

>  <r_i_glide_metal>  (82) 
-0

>  <r_i_glide_rewards>  (82) 
-0.991578

>  <r_i_glide_evdw>  (82) 
-16.0367

>  <r_i_glide_ecoul>  (82) 
-0.0153434

>  <r_i_glide_erotb>  (82) 
0

>  <r_i_glide_esite>  (82) 
0

>  <r_i_glide_emodel>  (82) 
-17.8666

>  <r_i_glide_energy>  (82) 
-16.0521

>  <r_i_glide_einternal>  (82) 
0.0010575

>  <r_i_glide_intrahb_reward>  (82) 
-0

>  <i_i_glide_confnum>  (82) 
1

>  <i_i_glide_posenum>  (82) 
15

>  <r_i_glide_eff_state_penalty>  (82) 
0

>  <ligand_id>  (82) 
28

>  <original_smiles>  (82) 
CCC12C3=CC4C(C)CC1(CC1C(C)(C)CCCC41C)OC(C=C3)C2C

>  <smiles>  (82) 
[H]C1=C([H])C2([H])OC34C([H])([H])C([H])(C([H])([H])[H])C([H])(C([H])=C1C3(C([H])([H])C([H])([H])[H])C2([H])C([H])([H])[H])C1(C([H])([H])[H])C([H])([H])C([H])([H])C([H])([H])C(C([H])([H])[H])(C([H])([H])[H])C1([H])C4([H])[H]

$$$$
29:0:0
     RDKit          3D

 68 74  0  0  1  0  0  0  0  0999 V2000
    1.4017   -1.1573    2.3745 C   0  0  0  0  0  0  0  0  0  0  0  0
    2.5223   -1.6005    2.9742 C   0  0  0  0  0  0  0  0  0  0  0  0
    3.6765   -2.1660    2.6155 C   0  0  0  0  0  0  0  0  0  0  0  0
    4.2605   -1.8797    3.7993 C   0  0  0  0  0  0  0  0  0  0  0  0
    2.8886   -1.6682    4.4319 C   0  0  2  0  0  0  0  0  0  0  0  0
    2.4806   -3.0217    5.0895 C   0  0  1  0  0  0  0  0  0  0  0  0
    1.7430   -2.9285    6.4607 C   0  0  0  0  0  0  0  0  0  0  0  0
    0.9836   -4.2789    6.6587 C   0  0  1  0  0  0  0  0  0  0  0  0
   -0.5352   -4.0818    6.8184 C   0  0  0  0  0  0  0  0  0  0  0  0
    1.3133   -5.0061    5.3694 C   0  0  1  0  0  0  0  0  0  0  0  0
    2.5536   -5.6759    5.0294 O   0  0  0  0  0  0  0  0  0  0  0  0
    1.9432   -5.4266    3.7512 C   0  0  1  0  0  0  0  0  0  0  0  0
    0.5825   -5.8939    4.3726 C   0  0  1  0  0  0  0  0  0  0  0  0
    0.3374   -7.3486    4.8058 C   0  0  0  0  0  0  0  0  0  0  0  0
    1.6196   -4.0075    4.2710 C   0  0  2  0  0  0  0  0  0  0  0  0
    2.5942   -5.8709    2.4197 C   0  0  2  0  0  0  0  0  0  0  0  0
    1.9177   -7.0156    1.9520 O   0  0  0  0  0  0  0  0  0  0  0  0
    3.9354   -6.1520    2.6556 O   0  0  0  0  0  0  0  0  0  0  0  0
    4.6688   -4.9877    2.4824 C   0  0  1  0  0  0  0  0  0  0  0  0
    6.0346   -5.2180    2.3597 O   0  0  0  0  0  0  0  0  0  0  0  0
    6.6062   -5.8204    3.5110 C   0  0  0  0  0  0  0  0  0  0  0  0
    4.0691   -4.2782    1.2204 C   0  0  2  0  0  0  0  0  0  0  0  0
    4.8082   -4.7833   -0.0761 C   0  0  1  0  0  0  0  0  0  0  0  0
    4.5995   -6.1610   -0.3143 O   0  0  0  0  0  0  0  0  0  0  0  0
    4.4644   -3.9854   -1.3561 C   0  0  0  0  0  0  0  0  0  0  0  0
    4.5918   -2.4560   -1.2021 C   0  0  0  0  0  0  0  0  0  0  0  0
    6.0858   -2.0380   -1.1082 C   0  0  0  0  0  0  0  0  0  0  0  0
    3.9968   -1.7625   -2.4469 C   0  0  0  0  0  0  0  0  0  0  0  0
    3.8021   -2.0103    0.0478 C   0  0  0  0  0  0  0  0  0  0  0  0
    4.2769   -2.7226    1.3338 C   0  0  1  0  0  0  0  0  0  0  0  0
    2.5850   -4.7334    1.3498 C   0  0  1  0  0  0  0  0  0  0  0  0
    1.9210   -5.0781    0.1451 O   0  0  0  0  0  0  0  0  0  0  0  0
    0.6115   -0.7271    2.9559 H   0  0  0  0  0  0  0  0  0  0  0  0
    1.3259   -1.1379    1.2996 H   0  0  0  0  0  0  0  0  0  0  0  0
    5.2667   -1.9387    4.1783 H   0  0  0  0  0  0  0  0  0  0  0  0
    2.7622   -0.7589    5.0289 H   0  0  0  0  0  0  0  0  0  0  0  0
    3.4296   -3.5046    5.3588 H   0  0  0  0  0  0  0  0  0  0  0  0
    2.4327   -2.7246    7.2877 H   0  0  0  0  0  0  0  0  0  0  0  0
    1.0324   -2.1024    6.4014 H   0  0  0  0  0  0  0  0  0  0  0  0
    1.3793   -4.8292    7.5215 H   0  0  0  0  0  0  0  0  0  0  0  0
   -0.9493   -3.5330    5.9758 H   0  0  0  0  0  0  0  0  0  0  0  0
   -0.7752   -3.5282    7.7190 H   0  0  0  0  0  0  0  0  0  0  0  0
   -1.0541   -5.0348    6.8672 H   0  0  0  0  0  0  0  0  0  0  0  0
   -0.2860   -5.4361    3.9175 H   0  0  0  0  0  0  0  0  0  0  0  0
    1.2224   -7.7860    5.2741 H   0  0  0  0  0  0  0  0  0  0  0  0
    0.0733   -8.0037    3.9734 H   0  0  0  0  0  0  0  0  0  0  0  0
   -0.4628   -7.4284    5.5484 H   0  0  0  0  0  0  0  0  0  0  0  0
    0.7266   -3.5699    3.8183 H   0  0  0  0  0  0  0  0  0  0  0  0
    2.3241   -7.2697    1.1393 H   0  0  0  0  0  0  0  0  0  0  0  0
    4.5099   -4.4254    3.4037 H   0  0  0  0  0  0  0  0  0  0  0  0
    7.6645   -5.9979    3.3339 H   0  0  0  0  0  0  0  0  0  0  0  0
    6.1395   -6.7789    3.7342 H   0  0  0  0  0  0  0  0  0  0  0  0
    6.5091   -5.1747    4.3834 H   0  0  0  0  0  0  0  0  0  0  0  0
    5.8806   -4.6684    0.0698 H   0  0  0  0  0  0  0  0  0  0  0  0
    4.0323   -6.2599   -1.0898 H   0  0  0  0  0  0  0  0  0  0  0  0
    5.0877   -4.3339   -2.1808 H   0  0  0  0  0  0  0  0  0  0  0  0
    3.4412   -4.1938   -1.6555 H   0  0  0  0  0  0  0  0  0  0  0  0
    6.1709   -0.9815   -0.8429 H   0  0  0  0  0  0  0  0  0  0  0  0
    6.6152   -2.2089   -2.0512 H   0  0  0  0  0  0  0  0  0  0  0  0
    6.6271   -2.6002   -0.3446 H   0  0  0  0  0  0  0  0  0  0  0  0
    4.0578   -0.6769   -2.3616 H   0  0  0  0  0  0  0  0  0  0  0  0
    2.9420   -2.0167   -2.5645 H   0  0  0  0  0  0  0  0  0  0  0  0
    4.5094   -2.0581   -3.3639 H   0  0  0  0  0  0  0  0  0  0  0  0
    3.8497   -0.9272    0.1519 H   0  0  0  0  0  0  0  0  0  0  0  0
    2.7538   -2.2444   -0.1113 H   0  0  0  0  0  0  0  0  0  0  0  0
    5.3457   -2.5332    1.4401 H   0  0  0  0  0  0  0  0  0  0  0  0
    1.9692   -3.9212    1.7372 H   0  0  0  0  0  0  0  0  0  0  0  0
    2.5604   -5.4474   -0.4476 H   0  0  0  0  0  0  0  0  0  0  0  0
  1  2  2  0
  1 33  1  0
  1 34  1  0
  2  5  1  0
  2  3  1  0
  3 30  1  0
  3  4  2  0
  4  5  1  0
  4 35  1  0
  5  6  1  0
  5 36  1  1
  6 15  1  0
  6  7  1  0
  6 37  1  1
  7  8  1  0
  7 38  1  0
  7 39  1  0
  8  9  1  0
  8 10  1  0
  8 40  1  1
  9 41  1  0
  9 42  1  0
  9 43  1  0
 10 13  1  0
 10 15  1  0
 10 11  1  1
 12 11  1  1
 12 13  1  0
 12 15  1  0
 12 16  1  0
 13 14  1  0
 13 44  1  6
 14 45  1  0
 14 46  1  0
 14 47  1  0
 15 48  1  6
 16 31  1  0
 16 17  1  6
 16 18  1  0
 17 49  1  0
 18 19  1  0
 19 20  1  0
 22 19  1  1
 19 50  1  1
 20 21  1  0
 21 51  1  0
 21 52  1  0
 21 53  1  0
 22 30  1  0
 22 23  1  0
 22 31  1  0
 23 24  1  0
 23 25  1  0
 23 54  1  1
 24 55  1  0
 25 26  1  0
 25 56  1  0
 25 57  1  0
 26 27  1  0
 26 28  1  0
 26 29  1  0
 27 58  1  0
 27 59  1  0
 27 60  1  0
 28 61  1  0
 28 62  1  0
 28 63  1  0
 29 30  1  0
 29 64  1  0
 29 65  1  0
 30 66  1  1
 31 32  1  0
 31 67  1  1
 32 68  1  0
M  END
>  <i_m_ct_stereo_status>  (83) 
1

>  <s_m_source_file>  (83) 
/var/tmp/pbs.5076255.sched01/tmpnv36izql/0kitkh5ys.sdf

>  <i_m_source_file_index>  (83) 
38

>  <i_lp_mmshare_version>  (83) 
48012

>  <i_f3d_flags>  (83) 
0

>  <s_epik_input>  (83) 
W0NIM11bQ0BASF0xW0NIMl1bQ0BASF0yW0NASF0oQzM9W0NIMl0pW0NIXT1DM1tDQEhdKFtDSDJdQyhbQ0gzXSkoW0NIM10pW0NIMl1bQ0BASF00W09IXSlbQ0BdNChbQ0BIXTVbT0hdKVtDQEhdKE9bQ0gzXSlPW0NAQF01KFtPSF0pW0NAQF0oTzYpKFtDQEhdMltDQF0xNjcpW0NASF03W0NIM10=

>  <s_epik_cmdline>  (83) 
J2VwaWtfcHl0aG9uJywgJy1waHQnLCAnMi4wJywgJy1waCcsICc3LjAnLCAnLXRuJywgJzgnLCAnLW1hJywgJzIwMCcsICctaW1hZScsICc8aW5maWxlLm1hZT4nLCAnLW9tYWUnLCAnPG91dGZpbGUubWFlPic=

>  <r_lp_tautomer_probability>  (83) 
1

>  <r_epik_Ionization_Penalty>  (83) 
1.15642e-06

>  <r_epik_Ionization_Penalty_Charging>  (83) 
0

>  <r_epik_Ionization_Penalty_Neutral>  (83) 
1.15642e-06

>  <r_epik_State_Penalty>  (83) 
-0

>  <r_epik_Charging_Adjusted_Penalty>  (83) 
0

>  <i_epik_Tot_Q>  (83) 
0

>  <i_epik_Tot_abs_Q>  (83) 
0

>  <s_epik_Chemistry_Notes>  (83) 
This compound contains an acetal/aminal-like group ( X-CH(R)-Y where X, Y are N, S, or O) that may be acid/base labile, releasing an aldehyde.

>  <s_lp_Force_Field>  (83) 
OPLS3e

>  <r_lp_Energy>  (83) 
145.756

>  <b_lp_Chiralities_Consistent>  (83) 
1

>  <s_lp_Variant>  (83) 
29:0-1

>  <s_i_glide_gridfile>  (83) 
pfpi4k_grid

>  <i_i_glide_lignum>  (83) 
38

>  <i_i_glide_rotatable_bonds>  (83) 
4

>  <r_i_docking_score>  (83) 
-2.49108

>  <r_i_glide_ligand_efficiency>  (83) 
-0.0778463

>  <r_i_glide_ligand_efficiency_sa>  (83) 
-0.247147

>  <r_i_glide_ligand_efficiency_ln>  (83) 
-0.557821

>  <r_i_glide_gscore>  (83) 
-2.49108

>  <r_i_glide_lipo>  (83) 
-0.0549369

>  <r_i_glide_hbond>  (83) 
0

>  <r_i_glide_metal>  (83) 
-0

>  <r_i_glide_rewards>  (83) 
-0.385184

>  <r_i_glide_evdw>  (83) 
-19.7096

>  <r_i_glide_ecoul>  (83) 
-7.05697

>  <r_i_glide_erotb>  (83) 
0

>  <r_i_glide_esite>  (83) 
-0.00693697

>  <r_i_glide_emodel>  (83) 
-28.9758

>  <r_i_glide_energy>  (83) 
-26.7665

>  <r_i_glide_einternal>  (83) 
1.65327

>  <r_i_glide_intrahb_reward>  (83) 
-0

>  <i_i_glide_confnum>  (83) 
2

>  <i_i_glide_posenum>  (83) 
6

>  <r_i_glide_eff_state_penalty>  (83) 
0

>  <ligand_id>  (83) 
29

>  <original_smiles>  (83) 
C=C1C2=CC1C1CC(C)C34OC(C3C)(C14)C1(O)OC(OC)C3(C(O)CC(C)(C)CC23)C1O

>  <smiles>  (83) 
[H]OC1([H])C([H])([H])C(C([H])([H])[H])(C([H])([H])[H])C([H])([H])C2([H])C3=C([H])C([H])(C3=C([H])[H])C3([H])C([H])([H])C([H])(C([H])([H])[H])C45OC(C6(O[H])OC([H])(OC([H])([H])[H])C12C6([H])O[H])(C4([H])C([H])([H])[H])C35[H]

$$$$
29:0:1
     RDKit          3D

 68 74  0  0  1  0  0  0  0  0999 V2000
    1.4011   -1.3153    2.6593 C   0  0  0  0  0  0  0  0  0  0  0  0
    2.5114   -1.8025    3.2466 C   0  0  0  0  0  0  0  0  0  0  0  0
    3.6644   -2.3475    2.8650 C   0  0  0  0  0  0  0  0  0  0  0  0
    4.2358   -2.1457    4.0678 C   0  0  0  0  0  0  0  0  0  0  0  0
    2.8624   -1.9673    4.7014 C   0  0  2  0  0  0  0  0  0  0  0  0
    2.4443   -3.3616    5.2669 C   0  0  1  0  0  0  0  0  0  0  0  0
    1.6955   -3.3569    6.6336 C   0  0  0  0  0  0  0  0  0  0  0  0
    0.9255   -4.7130    6.7352 C   0  0  1  0  0  0  0  0  0  0  0  0
   -0.5939   -4.5135    6.8962 C   0  0  0  0  0  0  0  0  0  0  0  0
    1.2635   -5.3548    5.4004 C   0  0  1  0  0  0  0  0  0  0  0  0
    2.5009   -6.0089    5.0223 O   0  0  0  0  0  0  0  0  0  0  0  0
    1.9015   -5.6734    3.7633 C   0  0  1  0  0  0  0  0  0  0  0  0
    0.5327   -6.1707    4.3421 C   0  0  1  0  0  0  0  0  0  0  0  0
    0.2796   -7.6511    4.6770 C   0  0  0  0  0  0  0  0  0  0  0  0
    1.5856   -4.2881    4.3768 C   0  0  2  0  0  0  0  0  0  0  0  0
    2.5633   -6.0289    2.4121 C   0  0  2  0  0  0  0  0  0  0  0  0
    1.8866   -7.1296    1.8464 O   0  0  0  0  0  0  0  0  0  0  0  0
    3.9014   -6.3317    2.6375 O   0  0  0  0  0  0  0  0  0  0  0  0
    4.6418   -5.1644    2.5551 C   0  0  1  0  0  0  0  0  0  0  0  0
    6.0090   -5.3866    2.4268 O   0  0  0  0  0  0  0  0  0  0  0  0
    6.5766   -6.0409    3.5519 C   0  0  0  0  0  0  0  0  0  0  0  0
    4.0592   -4.3707    1.3354 C   0  0  2  0  0  0  0  0  0  0  0  0
    4.8092   -4.7855    0.0190 C   0  0  1  0  0  0  0  0  0  0  0  0
    4.6221   -6.1567   -0.3163 O   0  0  0  0  0  0  0  0  0  0  0  0
    4.4755   -3.9121   -1.2142 C   0  0  0  0  0  0  0  0  0  0  0  0
    4.6154   -2.3928   -0.9560 C   0  0  0  0  0  0  0  0  0  0  0  0
    6.1074   -1.9868   -0.8208 C   0  0  0  0  0  0  0  0  0  0  0  0
    4.0364   -1.6127   -2.1553 C   0  0  0  0  0  0  0  0  0  0  0  0
    3.8175   -2.0253    0.3140 C   0  0  0  0  0  0  0  0  0  0  0  0
    4.2772   -2.8221    1.5541 C   0  0  1  0  0  0  0  0  0  0  0  0
    2.5710   -4.8155    1.4265 C   0  0  1  0  0  0  0  0  0  0  0  0
    1.9184   -5.0666    0.1880 O   0  0  0  0  0  0  0  0  0  0  0  0
    0.6057   -0.9194    3.2668 H   0  0  0  0  0  0  0  0  0  0  0  0
    1.3272   -1.2254    1.5916 H   0  0  0  0  0  0  0  0  0  0  0  0
    5.2433   -2.2355    4.4548 H   0  0  0  0  0  0  0  0  0  0  0  0
    2.7355   -1.1005    5.3578 H   0  0  0  0  0  0  0  0  0  0  0  0
    3.3875   -3.8680    5.5100 H   0  0  0  0  0  0  0  0  0  0  0  0
    2.3771   -3.2144    7.4804 H   0  0  0  0  0  0  0  0  0  0  0  0
    0.9909   -2.5245    6.6254 H   0  0  0  0  0  0  0  0  0  0  0  0
    1.3111   -5.3195    7.5642 H   0  0  0  0  0  0  0  0  0  0  0  0
   -0.9978   -3.9064    6.0910 H   0  0  0  0  0  0  0  0  0  0  0  0
   -0.8401   -4.0229    7.8349 H   0  0  0  0  0  0  0  0  0  0  0  0
   -1.1205   -5.4634    6.8745 H   0  0  0  0  0  0  0  0  0  0  0  0
   -0.3283   -5.6736    3.9096 H   0  0  0  0  0  0  0  0  0  0  0  0
    1.1577   -8.1200    5.1259 H   0  0  0  0  0  0  0  0  0  0  0  0
    0.0167   -8.2495    3.8044 H   0  0  0  0  0  0  0  0  0  0  0  0
   -0.5253   -7.7723    5.4051 H   0  0  0  0  0  0  0  0  0  0  0  0
    0.6976   -3.8150    3.9464 H   0  0  0  0  0  0  0  0  0  0  0  0
    1.9284   -7.8496    2.4689 H   0  0  0  0  0  0  0  0  0  0  0  0
    4.4765   -4.6638    3.5056 H   0  0  0  0  0  0  0  0  0  0  0  0
    7.6376   -6.2145    3.3716 H   0  0  0  0  0  0  0  0  0  0  0  0
    6.1064   -7.0076    3.7333 H   0  0  0  0  0  0  0  0  0  0  0  0
    6.4804   -5.4328    4.4520 H   0  0  0  0  0  0  0  0  0  0  0  0
    5.8760   -4.6837    0.1768 H   0  0  0  0  0  0  0  0  0  0  0  0
    4.0282   -6.2378   -1.0553 H   0  0  0  0  0  0  0  0  0  0  0  0
    5.1097   -4.2072   -2.0506 H   0  0  0  0  0  0  0  0  0  0  0  0
    3.4564   -4.0954   -1.5426 H   0  0  0  0  0  0  0  0  0  0  0  0
    6.1942   -0.9505   -0.4873 H   0  0  0  0  0  0  0  0  0  0  0  0
    6.6433   -2.0993   -1.7675 H   0  0  0  0  0  0  0  0  0  0  0  0
    6.6413   -2.5990   -0.0928 H   0  0  0  0  0  0  0  0  0  0  0  0
    4.1057   -0.5353   -1.9980 H   0  0  0  0  0  0  0  0  0  0  0  0
    2.9793   -1.8489   -2.2973 H   0  0  0  0  0  0  0  0  0  0  0  0
    4.5547   -1.8486   -3.0867 H   0  0  0  0  0  0  0  0  0  0  0  0
    3.8709   -0.9516    0.4922 H   0  0  0  0  0  0  0  0  0  0  0  0
    2.7665   -2.2405    0.1296 H   0  0  0  0  0  0  0  0  0  0  0  0
    5.3467   -2.6503    1.6819 H   0  0  0  0  0  0  0  0  0  0  0  0
    1.9561   -4.0301    1.8616 H   0  0  0  0  0  0  0  0  0  0  0  0
    2.5232   -5.5136   -0.3709 H   0  0  0  0  0  0  0  0  0  0  0  0
  1  2  2  0
  1 33  1  0
  1 34  1  0
  2  5  1  0
  2  3  1  0
  3 30  1  0
  3  4  2  0
  4  5  1  0
  4 35  1  0
  5  6  1  0
  5 36  1  1
  6 15  1  0
  6  7  1  0
  6 37  1  1
  7  8  1  0
  7 38  1  0
  7 39  1  0
  8  9  1  0
  8 10  1  0
  8 40  1  1
  9 41  1  0
  9 42  1  0
  9 43  1  0
 10 13  1  0
 10 15  1  0
 10 11  1  1
 12 11  1  1
 12 13  1  0
 12 15  1  0
 12 16  1  0
 13 14  1  0
 13 44  1  6
 14 45  1  0
 14 46  1  0
 14 47  1  0
 15 48  1  6
 16 31  1  0
 16 17  1  6
 16 18  1  0
 17 49  1  0
 18 19  1  0
 19 20  1  0
 22 19  1  1
 19 50  1  1
 20 21  1  0
 21 51  1  0
 21 52  1  0
 21 53  1  0
 22 30  1  0
 22 23  1  0
 22 31  1  0
 23 24  1  0
 23 25  1  0
 23 54  1  1
 24 55  1  0
 25 26  1  0
 25 56  1  0
 25 57  1  0
 26 27  1  0
 26 28  1  0
 26 29  1  0
 27 58  1  0
 27 59  1  0
 27 60  1  0
 28 61  1  0
 28 62  1  0
 28 63  1  0
 29 30  1  0
 29 64  1  0
 29 65  1  0
 30 66  1  1
 31 32  1  0
 31 67  1  1
 32 68  1  0
M  END
>  <i_m_ct_stereo_status>  (84) 
1

>  <s_m_source_file>  (84) 
/var/tmp/pbs.5076255.sched01/tmpnv36izql/0kitkh5ys.sdf

>  <i_m_source_file_index>  (84) 
38

>  <i_lp_mmshare_version>  (84) 
48012

>  <i_f3d_flags>  (84) 
0

>  <s_epik_input>  (84) 
W0NIM11bQ0BASF0xW0NIMl1bQ0BASF0yW0NASF0oQzM9W0NIMl0pW0NIXT1DM1tDQEhdKFtDSDJdQyhbQ0gzXSkoW0NIM10pW0NIMl1bQ0BASF00W09IXSlbQ0BdNChbQ0BIXTVbT0hdKVtDQEhdKE9bQ0gzXSlPW0NAQF01KFtPSF0pW0NAQF0oTzYpKFtDQEhdMltDQF0xNjcpW0NASF03W0NIM10=

>  <s_epik_cmdline>  (84) 
J2VwaWtfcHl0aG9uJywgJy1waHQnLCAnMi4wJywgJy1waCcsICc3LjAnLCAnLXRuJywgJzgnLCAnLW1hJywgJzIwMCcsICctaW1hZScsICc8aW5maWxlLm1hZT4nLCAnLW9tYWUnLCAnPG91dGZpbGUubWFlPic=

>  <r_lp_tautomer_probability>  (84) 
1

>  <r_epik_Ionization_Penalty>  (84) 
1.15642e-06

>  <r_epik_Ionization_Penalty_Charging>  (84) 
0

>  <r_epik_Ionization_Penalty_Neutral>  (84) 
1.15642e-06

>  <r_epik_State_Penalty>  (84) 
-0

>  <r_epik_Charging_Adjusted_Penalty>  (84) 
0

>  <i_epik_Tot_Q>  (84) 
0

>  <i_epik_Tot_abs_Q>  (84) 
0

>  <s_epik_Chemistry_Notes>  (84) 
This compound contains an acetal/aminal-like group ( X-CH(R)-Y where X, Y are N, S, or O) that may be acid/base labile, releasing an aldehyde.

>  <s_lp_Force_Field>  (84) 
OPLS3e

>  <r_lp_Energy>  (84) 
145.756

>  <b_lp_Chiralities_Consistent>  (84) 
1

>  <s_lp_Variant>  (84) 
29:0-1

>  <s_i_glide_gridfile>  (84) 
pfpi4k_grid

>  <i_i_glide_lignum>  (84) 
38

>  <i_i_glide_rotatable_bonds>  (84) 
4

>  <r_i_docking_score>  (84) 
-2.47543

>  <r_i_glide_ligand_efficiency>  (84) 
-0.0773573

>  <r_i_glide_ligand_efficiency_sa>  (84) 
-0.245594

>  <r_i_glide_ligand_efficiency_ln>  (84) 
-0.554317

>  <r_i_glide_gscore>  (84) 
-2.47543

>  <r_i_glide_lipo>  (84) 
-0.0610105

>  <r_i_glide_hbond>  (84) 
0

>  <r_i_glide_metal>  (84) 
-0

>  <r_i_glide_rewards>  (84) 
-0.381403

>  <r_i_glide_evdw>  (84) 
-20.0811

>  <r_i_glide_ecoul>  (84) 
-6.81284

>  <r_i_glide_erotb>  (84) 
0

>  <r_i_glide_esite>  (84) 
-0.00704035

>  <r_i_glide_emodel>  (84) 
-29.1971

>  <r_i_glide_energy>  (84) 
-26.8939

>  <r_i_glide_einternal>  (84) 
1.41296

>  <r_i_glide_intrahb_reward>  (84) 
-0

>  <i_i_glide_confnum>  (84) 
1

>  <i_i_glide_posenum>  (84) 
33

>  <r_i_glide_eff_state_penalty>  (84) 
0

>  <ligand_id>  (84) 
29

>  <original_smiles>  (84) 
C=C1C2=CC1C1CC(C)C34OC(C3C)(C14)C1(O)OC(OC)C3(C(O)CC(C)(C)CC23)C1O

>  <smiles>  (84) 
[H]OC1([H])C([H])([H])C(C([H])([H])[H])(C([H])([H])[H])C([H])([H])C2([H])C3=C([H])C([H])(C3=C([H])[H])C3([H])C([H])([H])C([H])(C([H])([H])[H])C45OC(C6(O[H])OC([H])(OC([H])([H])[H])C12C6([H])O[H])(C4([H])C([H])([H])[H])C35[H]

$$$$
29:0:2
     RDKit          3D

 68 74  0  0  1  0  0  0  0  0999 V2000
    1.0723   -4.4121    5.1119 C   0  0  0  0  0  0  0  0  0  0  0  0
    2.2941   -4.8745    5.3708 C   0  0  0  0  0  0  0  0  0  0  0  0
    3.4949   -4.8954    4.7764 C   0  0  0  0  0  0  0  0  0  0  0  0
    4.1370   -5.2246    5.9146 C   0  0  0  0  0  0  0  0  0  0  0  0
    2.8224   -5.6897    6.5272 C   0  0  2  0  0  0  0  0  0  0  0  0
    2.7229   -7.2215    6.2858 C   0  0  1  0  0  0  0  0  0  0  0  0
    2.1271   -8.0702    7.4451 C   0  0  0  0  0  0  0  0  0  0  0  0
    1.6390   -9.4141    6.8195 C   0  0  1  0  0  0  0  0  0  0  0  0
    0.1315   -9.6457    7.0298 C   0  0  0  0  0  0  0  0  0  0  0  0
    1.9501   -9.1939    5.3472 C   0  0  1  0  0  0  0  0  0  0  0  0
    3.2426   -9.3028    4.6897 O   0  0  0  0  0  0  0  0  0  0  0  0
    2.4712   -8.5032    3.7957 C   0  0  1  0  0  0  0  0  0  0  0  0
    1.2785   -9.4838    4.0135 C   0  0  1  0  0  0  0  0  0  0  0  0
    1.3276  -10.9461    3.5359 C   0  0  0  0  0  0  0  0  0  0  0  0
    1.9655   -7.7191    5.0257 C   0  0  2  0  0  0  0  0  0  0  0  0
    3.0454   -7.9587    2.4597 C   0  0  2  0  0  0  0  0  0  0  0  0
    2.5486   -8.7370    1.3905 O   0  0  0  0  0  0  0  0  0  0  0  0
    4.4278   -8.0495    2.5036 O   0  0  0  0  0  0  0  0  0  0  0  0
    4.9326   -6.8871    3.0532 C   0  0  1  0  0  0  0  0  0  0  0  0
    6.2996   -6.7296    2.8321 O   0  0  0  0  0  0  0  0  0  0  0  0
    7.0827   -7.7645    3.4066 C   0  0  0  0  0  0  0  0  0  0  0  0
    4.0988   -5.7212    2.4225 C   0  0  2  0  0  0  0  0  0  0  0  0
    4.7667   -5.2431    1.0792 C   0  0  1  0  0  0  0  0  0  0  0  0
    4.8086   -6.2520    0.0822 O   0  0  0  0  0  0  0  0  0  0  0  0
    4.1670   -3.9471    0.4848 C   0  0  0  0  0  0  0  0  0  0  0  0
    4.0594   -2.7857    1.5008 C   0  0  0  0  0  0  0  0  0  0  0  0
    5.4592   -2.2067    1.8440 C   0  0  0  0  0  0  0  0  0  0  0  0
    3.2294   -1.6433    0.8808 C   0  0  0  0  0  0  0  0  0  0  0  0
    3.3368   -3.2956    2.7704 C   0  0  0  0  0  0  0  0  0  0  0  0
    4.0531   -4.4979    3.4139 C   0  0  1  0  0  0  0  0  0  0  0  0
    2.7254   -6.4390    2.2652 C   0  0  1  0  0  0  0  0  0  0  0  0
    1.9912   -6.1132    1.1010 O   0  0  0  0  0  0  0  0  0  0  0  0
    0.2769   -4.5554    5.8307 H   0  0  0  0  0  0  0  0  0  0  0  0
    0.8713   -3.8101    4.2386 H   0  0  0  0  0  0  0  0  0  0  0  0
    5.1744   -5.3043    6.2045 H   0  0  0  0  0  0  0  0  0  0  0  0
    2.6113   -5.3284    7.5363 H   0  0  0  0  0  0  0  0  0  0  0  0
    3.7603   -7.5756    6.2390 H   0  0  0  0  0  0  0  0  0  0  0  0
    2.8553   -8.2496    8.2504 H   0  0  0  0  0  0  0  0  0  0  0  0
    1.2797   -7.5230    7.8682 H   0  0  0  0  0  0  0  0  0  0  0  0
    2.2072  -10.2588    7.2161 H   0  0  0  0  0  0  0  0  0  0  0  0
   -0.4681   -8.8277    6.6421 H   0  0  0  0  0  0  0  0  0  0  0  0
   -0.1113   -9.7603    8.0827 H   0  0  0  0  0  0  0  0  0  0  0  0
   -0.1924  -10.5493    6.5218 H   0  0  0  0  0  0  0  0  0  0  0  0
    0.2937   -9.0322    3.8894 H   0  0  0  0  0  0  0  0  0  0  0  0
    2.3198  -11.3858    3.6720 H   0  0  0  0  0  0  0  0  0  0  0  0
    1.0823  -11.0460    2.4855 H   0  0  0  0  0  0  0  0  0  0  0  0
    0.6343  -11.5864    4.0869 H   0  0  0  0  0  0  0  0  0  0  0  0
    0.9606   -7.2891    4.9086 H   0  0  0  0  0  0  0  0  0  0  0  0
    2.7295   -9.6442    1.5849 H   0  0  0  0  0  0  0  0  0  0  0  0
    4.7842   -6.9910    4.1273 H   0  0  0  0  0  0  0  0  0  0  0  0
    8.1365   -7.5958    3.1786 H   0  0  0  0  0  0  0  0  0  0  0  0
    6.8096   -8.7394    3.0021 H   0  0  0  0  0  0  0  0  0  0  0  0
    6.9690   -7.7952    4.4912 H   0  0  0  0  0  0  0  0  0  0  0  0
    5.8103   -5.0116    1.2877 H   0  0  0  0  0  0  0  0  0  0  0  0
    4.0575   -6.1869   -0.4912 H   0  0  0  0  0  0  0  0  0  0  0  0
    4.7671   -3.6328   -0.3702 H   0  0  0  0  0  0  0  0  0  0  0  0
    3.1759   -4.1441    0.0786 H   0  0  0  0  0  0  0  0  0  0  0  0
    5.3960   -1.4867    2.6644 H   0  0  0  0  0  0  0  0  0  0  0  0
    5.9083   -1.6965    0.9863 H   0  0  0  0  0  0  0  0  0  0  0  0
    6.1660   -2.9803    2.1498 H   0  0  0  0  0  0  0  0  0  0  0  0
    3.1168   -0.8067    1.5749 H   0  0  0  0  0  0  0  0  0  0  0  0
    2.2268   -1.9881    0.6223 H   0  0  0  0  0  0  0  0  0  0  0  0
    3.6863   -1.2536   -0.0333 H   0  0  0  0  0  0  0  0  0  0  0  0
    3.2164   -2.4793    3.4824 H   0  0  0  0  0  0  0  0  0  0  0  0
    2.3293   -3.5977    2.4905 H   0  0  0  0  0  0  0  0  0  0  0  0
    5.0793   -4.2003    3.6284 H   0  0  0  0  0  0  0  0  0  0  0  0
    2.0299   -6.1370    3.0440 H   0  0  0  0  0  0  0  0  0  0  0  0
    2.4983   -6.4319    0.3697 H   0  0  0  0  0  0  0  0  0  0  0  0
  1  2  2  0
  1 33  1  0
  1 34  1  0
  2  5  1  0
  2  3  1  0
  3 30  1  0
  3  4  2  0
  4  5  1  0
  4 35  1  0
  5  6  1  0
  5 36  1  1
  6 15  1  0
  6  7  1  0
  6 37  1  6
  7  8  1  0
  7 38  1  0
  7 39  1  0
  8  9  1  0
  8 10  1  0
  8 40  1  1
  9 41  1  0
  9 42  1  0
  9 43  1  0
 10 13  1  0
 10 15  1  0
 10 11  1  6
 12 11  1  1
 12 13  1  0
 12 15  1  0
 12 16  1  0
 13 14  1  0
 13 44  1  1
 14 45  1  0
 14 46  1  0
 14 47  1  0
 15 48  1  6
 16 31  1  0
 16 17  1  6
 16 18  1  0
 17 49  1  0
 18 19  1  0
 19 20  1  0
 22 19  1  1
 19 50  1  1
 20 21  1  0
 21 51  1  0
 21 52  1  0
 21 53  1  0
 22 30  1  0
 22 23  1  0
 22 31  1  0
 23 24  1  0
 23 25  1  0
 23 54  1  1
 24 55  1  0
 25 26  1  0
 25 56  1  0
 25 57  1  0
 26 27  1  0
 26 28  1  0
 26 29  1  0
 27 58  1  0
 27 59  1  0
 27 60  1  0
 28 61  1  0
 28 62  1  0
 28 63  1  0
 29 30  1  0
 29 64  1  0
 29 65  1  0
 30 66  1  1
 31 32  1  0
 31 67  1  1
 32 68  1  0
M  END
>  <i_m_ct_stereo_status>  (85) 
1

>  <s_m_source_file>  (85) 
/var/tmp/pbs.5076255.sched01/tmpnv36izql/0kitkh5ys.sdf

>  <i_m_source_file_index>  (85) 
38

>  <i_lp_mmshare_version>  (85) 
48012

>  <i_f3d_flags>  (85) 
0

>  <s_epik_input>  (85) 
W0NIM11bQ0BASF0xW0NIMl1bQ0BASF0yW0NASF0oQzM9W0NIMl0pW0NIXT1DM1tDQEhdKFtDSDJdQyhbQ0gzXSkoW0NIM10pW0NIMl1bQ0BASF00W09IXSlbQ0BdNChbQ0BIXTVbT0hdKVtDQEhdKE9bQ0gzXSlPW0NAQF01KFtPSF0pW0NAQF0oTzYpKFtDQEhdMltDQF0xNjcpW0NASF03W0NIM10=

>  <s_epik_cmdline>  (85) 
J2VwaWtfcHl0aG9uJywgJy1waHQnLCAnMi4wJywgJy1waCcsICc3LjAnLCAnLXRuJywgJzgnLCAnLW1hJywgJzIwMCcsICctaW1hZScsICc8aW5maWxlLm1hZT4nLCAnLW9tYWUnLCAnPG91dGZpbGUubWFlPic=

>  <r_lp_tautomer_probability>  (85) 
1

>  <r_epik_Ionization_Penalty>  (85) 
1.15642e-06

>  <r_epik_Ionization_Penalty_Charging>  (85) 
0

>  <r_epik_Ionization_Penalty_Neutral>  (85) 
1.15642e-06

>  <r_epik_State_Penalty>  (85) 
-0

>  <r_epik_Charging_Adjusted_Penalty>  (85) 
0

>  <i_epik_Tot_Q>  (85) 
0

>  <i_epik_Tot_abs_Q>  (85) 
0

>  <s_epik_Chemistry_Notes>  (85) 
This compound contains an acetal/aminal-like group ( X-CH(R)-Y where X, Y are N, S, or O) that may be acid/base labile, releasing an aldehyde.

>  <s_lp_Force_Field>  (85) 
OPLS3e

>  <r_lp_Energy>  (85) 
145.756

>  <b_lp_Chiralities_Consistent>  (85) 
1

>  <s_lp_Variant>  (85) 
29:0-1

>  <s_i_glide_gridfile>  (85) 
pfpi4k_grid

>  <i_i_glide_lignum>  (85) 
38

>  <i_i_glide_rotatable_bonds>  (85) 
4

>  <r_i_docking_score>  (85) 
-2.23312

>  <r_i_glide_ligand_efficiency>  (85) 
-0.0697849

>  <r_i_glide_ligand_efficiency_sa>  (85) 
-0.221553

>  <r_i_glide_ligand_efficiency_ln>  (85) 
-0.500056

>  <r_i_glide_gscore>  (85) 
-2.23312

>  <r_i_glide_lipo>  (85) 
-0.32354

>  <r_i_glide_hbond>  (85) 
0

>  <r_i_glide_metal>  (85) 
-0

>  <r_i_glide_rewards>  (85) 
-0.377997

>  <r_i_glide_evdw>  (85) 
-19.6115

>  <r_i_glide_ecoul>  (85) 
-3.63975

>  <r_i_glide_erotb>  (85) 
0

>  <r_i_glide_esite>  (85) 
-0.00504486

>  <r_i_glide_emodel>  (85) 
-25.6775

>  <r_i_glide_energy>  (85) 
-23.2512

>  <r_i_glide_einternal>  (85) 
0.481822

>  <r_i_glide_intrahb_reward>  (85) 
-0

>  <i_i_glide_confnum>  (85) 
1

>  <i_i_glide_posenum>  (85) 
17

>  <r_i_glide_eff_state_penalty>  (85) 
0

>  <ligand_id>  (85) 
29

>  <original_smiles>  (85) 
C=C1C2=CC1C1CC(C)C34OC(C3C)(C14)C1(O)OC(OC)C3(C(O)CC(C)(C)CC23)C1O

>  <smiles>  (85) 
[H]OC1([H])C([H])([H])C(C([H])([H])[H])(C([H])([H])[H])C([H])([H])C2([H])C3=C([H])C([H])(C3=C([H])[H])C3([H])C([H])([H])C([H])(C([H])([H])[H])C45OC(C6(O[H])OC([H])(OC([H])([H])[H])C12C6([H])O[H])(C4([H])C([H])([H])[H])C35[H]

$$$$
30:0:0
     RDKit          3D

 43 49  0  0  1  0  0  0  0  0999 V2000
    6.8379   -4.9602    0.4813 O   0  0  0  0  0  0  0  0  0  0  0  0
    6.0000   -3.8415    0.2694 C   0  0  2  0  0  0  0  0  0  0  0  0
    5.5598   -3.2190    1.6103 C   0  0  1  0  0  0  0  0  0  0  0  0
    5.4629   -1.6313    1.5660 C   0  0  1  0  0  0  0  0  0  0  0  0
    5.2092   -1.0905    0.1436 C   0  0  0  0  0  0  0  0  0  0  0  0
    3.8108   -1.6498   -0.1739 C   0  0  1  0  0  0  0  0  0  0  0  0
    3.9110   -2.9762   -1.0028 C   0  0  0  0  0  0  0  0  0  0  0  0
    4.6527   -4.2171   -0.4012 C   0  0  2  0  0  0  0  0  0  0  0  0
    3.8514   -4.8713    0.7363 C   0  0  2  0  0  0  0  0  0  0  0  0
    4.2297   -6.3696    1.0216 C   0  0  0  0  0  0  0  0  0  0  0  0
    2.9035   -6.9605    1.3592 C   0  0  0  0  0  0  0  0  0  0  0  0
    2.5572   -8.1940    1.9305 C   0  0  0  0  0  0  0  0  0  0  0  0
    1.1713   -8.4328    2.0950 C   0  0  0  0  0  0  0  0  0  0  0  0
    0.2472   -7.4467    1.6715 C   0  0  0  0  0  0  0  0  0  0  0  0
    0.6018   -6.2623    1.1183 N   0  0  0  0  0  0  0  0  0  0  0  0
    1.9259   -6.0625    0.9926 C   0  0  0  0  0  0  0  0  0  0  0  0
    2.4276   -4.9038    0.4800 O   0  0  0  0  0  0  0  0  0  0  0  0
    4.1945   -3.9472    1.9236 C   0  0  2  0  0  0  0  0  0  0  0  0
    3.1131   -2.9068    2.1613 C   0  0  1  0  0  0  0  0  0  0  0  0
    3.4575   -1.9486    3.2956 C   0  0  0  0  0  0  0  0  0  0  0  0
    4.1662   -1.1588    2.2119 C   0  0  2  0  0  0  0  0  0  0  0  0
    3.1285   -1.6766    1.2246 C   0  0  1  0  0  0  0  0  0  0  0  0
    6.3787   -5.5895    1.0144 H   0  0  0  0  0  0  0  0  0  0  0  0
    6.6176   -3.1956   -0.3471 H   0  0  0  0  0  0  0  0  0  0  0  0
    6.2564   -3.4699    2.4067 H   0  0  0  0  0  0  0  0  0  0  0  0
    6.3378   -1.1583    2.0153 H   0  0  0  0  0  0  0  0  0  0  0  0
    5.1424   -0.0011    0.1950 H   0  0  0  0  0  0  0  0  0  0  0  0
    5.9666   -1.2822   -0.6082 H   0  0  0  0  0  0  0  0  0  0  0  0
    3.2956   -0.9290   -0.8119 H   0  0  0  0  0  0  0  0  0  0  0  0
    2.9083   -3.2679   -1.3140 H   0  0  0  0  0  0  0  0  0  0  0  0
    4.4238   -2.7227   -1.9309 H   0  0  0  0  0  0  0  0  0  0  0  0
    4.8193   -4.9276   -1.2128 H   0  0  0  0  0  0  0  0  0  0  0  0
    4.5847   -6.8735    0.1245 H   0  0  0  0  0  0  0  0  0  0  0  0
    4.9595   -6.5096    1.8136 H   0  0  0  0  0  0  0  0  0  0  0  0
    3.2976   -8.9309    2.2217 H   0  0  0  0  0  0  0  0  0  0  0  0
    0.8146   -9.3640    2.5065 H   0  0  0  0  0  0  0  0  0  0  0  0
   -0.8118   -7.6183    1.7720 H   0  0  0  0  0  0  0  0  0  0  0  0
    4.2928   -4.5460    2.8286 H   0  0  0  0  0  0  0  0  0  0  0  0
    2.1071   -3.3031    2.3023 H   0  0  0  0  0  0  0  0  0  0  0  0
    2.5995   -1.4340    3.7271 H   0  0  0  0  0  0  0  0  0  0  0  0
    4.1343   -2.3576    4.0507 H   0  0  0  0  0  0  0  0  0  0  0  0
    4.0840   -0.0803    2.3668 H   0  0  0  0  0  0  0  0  0  0  0  0
    2.1930   -1.1157    1.2905 H   0  0  0  0  0  0  0  0  0  0  0  0
  1  2  1  0
  1 23  1  0
  2  8  1  0
  2  3  1  0
  2 24  1  6
  3 18  1  0
  3  4  1  0
  3 25  1  1
  4 21  1  0
  4  5  1  0
  4 26  1  1
  5  6  1  0
  5 27  1  0
  5 28  1  0
  6 22  1  0
  6  7  1  0
  6 29  1  6
  7  8  1  0
  7 30  1  0
  7 31  1  0
  8  9  1  0
  8 32  1  6
  9 17  1  6
  9 10  1  0
  9 18  1  0
 10 11  1  0
 10 33  1  0
 10 34  1  0
 11 16  2  0
 11 12  1  0
 12 13  2  0
 12 35  1  0
 13 14  1  0
 13 36  1  0
 14 15  2  0
 14 37  1  0
 15 16  1  0
 16 17  1  0
 18 19  1  0
 18 38  1  1
 19 22  1  0
 19 20  1  0
 19 39  1  1
 20 21  1  0
 20 40  1  0
 20 41  1  0
 21 22  1  0
 21 42  1  1
 22 43  1  6
M  END
>  <i_m_ct_stereo_status>  (86) 
1

>  <s_m_source_file>  (86) 
/var/tmp/pbs.5076255.sched01/tmpnv36izql/0kitkh5ys.sdf

>  <i_m_source_file_index>  (86) 
39

>  <i_lp_mmshare_version>  (86) 
48012

>  <i_f3d_flags>  (86) 
0

>  <s_epik_input>  (86) 
W0NIMl0xW0NAQEhdKFtDSDJdMilbQ0BASF0oW0NAQEhdKFtDQEhdMzQpW0NIMl01KVtDQEBIXTVbQ0BIXTFbQ0BASF0zW0NAQEhdKFtPSF0pW0NASF0yW0NAQF00NltDSDJdYzdjKE82KW5bY0hdW2NIXVtjSF03

>  <s_epik_cmdline>  (86) 
J2VwaWtfcHl0aG9uJywgJy1waHQnLCAnMi4wJywgJy1waCcsICc3LjAnLCAnLXRuJywgJzgnLCAnLW1hJywgJzIwMCcsICctaW1hZScsICc8aW5maWxlLm1hZT4nLCAnLW9tYWUnLCAnPG91dGZpbGUubWFlPic=

>  <r_lp_tautomer_probability>  (86) 
1

>  <r_epik_Ionization_Penalty>  (86) 
0.000899606

>  <r_epik_Ionization_Penalty_Charging>  (86) 
0

>  <r_epik_Ionization_Penalty_Neutral>  (86) 
0.000899606

>  <r_epik_State_Penalty>  (86) 
0.000582031

>  <r_epik_Charging_Adjusted_Penalty>  (86) 
0.000582031

>  <i_epik_Tot_Q>  (86) 
0

>  <i_epik_Tot_abs_Q>  (86) 
0

>  <s_lp_Force_Field>  (86) 
OPLS3e

>  <r_lp_Energy>  (86) 
82.2884

>  <b_lp_Chiralities_Consistent>  (86) 
1

>  <s_lp_Variant>  (86) 
30:0-1

>  <s_i_glide_gridfile>  (86) 
pfpi4k_grid

>  <i_i_glide_lignum>  (86) 
39

>  <i_i_glide_rotatable_bonds>  (86) 
1

>  <r_i_docking_score>  (86) 
-3.98083

>  <r_i_glide_ligand_efficiency>  (86) 
-0.180947

>  <r_i_glide_ligand_efficiency_sa>  (86) 
-0.50702

>  <r_i_glide_ligand_efficiency_ln>  (86) 
-0.973061

>  <r_i_glide_gscore>  (86) 
-3.98083

>  <r_i_glide_lipo>  (86) 
-0.471069

>  <r_i_glide_hbond>  (86) 
-0.16

>  <r_i_glide_metal>  (86) 
-0

>  <r_i_glide_rewards>  (86) 
-1.39517

>  <r_i_glide_evdw>  (86) 
-24.1599

>  <r_i_glide_ecoul>  (86) 
-4.97735

>  <r_i_glide_erotb>  (86) 
0

>  <r_i_glide_esite>  (86) 
0

>  <r_i_glide_emodel>  (86) 
-37.0246

>  <r_i_glide_energy>  (86) 
-29.1372

>  <r_i_glide_einternal>  (86) 
0.000249102

>  <r_i_glide_intrahb_reward>  (86) 
-0

>  <i_i_glide_confnum>  (86) 
1

>  <i_i_glide_posenum>  (86) 
20

>  <r_i_glide_eff_state_penalty>  (86) 
0

>  <ligand_id>  (86) 
30

>  <original_smiles>  (86) 
OC1C2C3CC4CC1C1(Cc5cccnc5O1)C2C1CC3C41

>  <smiles>  (86) 
[H]OC1([H])C2([H])C3([H])C([H])([H])C4([H])C([H])([H])C1([H])C1(Oc5nc([H])c([H])c([H])c5C1([H])[H])C2([H])C1([H])C([H])([H])C3([H])C41[H]

$$$$
30:0:1
     RDKit          3D

 43 49  0  0  1  0  0  0  0  0999 V2000
    6.8050   -4.9864    0.5129 O   0  0  0  0  0  0  0  0  0  0  0  0
    6.0067   -3.8502    0.2518 C   0  0  2  0  0  0  0  0  0  0  0  0
    5.5560   -3.2053    1.5785 C   0  0  1  0  0  0  0  0  0  0  0  0
    5.4624   -1.6215    1.5077 C   0  0  1  0  0  0  0  0  0  0  0  0
    5.2124   -1.1035    0.0763 C   0  0  0  0  0  0  0  0  0  0  0  0
    3.8149   -1.6673   -0.2401 C   0  0  1  0  0  0  0  0  0  0  0  0
    3.9244   -3.0067   -1.0477 C   0  0  0  0  0  0  0  0  0  0  0  0
    4.6648   -4.2351   -0.4229 C   0  0  2  0  0  0  0  0  0  0  0  0
    3.8571   -4.8746    0.7181 C   0  0  2  0  0  0  0  0  0  0  0  0
    4.2334   -6.3676    1.0274 C   0  0  0  0  0  0  0  0  0  0  0  0
    2.9021   -6.9564    1.3656 C   0  0  0  0  0  0  0  0  0  0  0  0
    2.5488   -8.1808    1.9548 C   0  0  0  0  0  0  0  0  0  0  0  0
    1.1670   -8.4154    2.1125 C   0  0  0  0  0  0  0  0  0  0  0  0
    0.2437   -7.4331    1.6709 C   0  0  0  0  0  0  0  0  0  0  0  0
    0.6048   -6.2580    1.1031 N   0  0  0  0  0  0  0  0  0  0  0  0
    1.9285   -6.0618    0.9839 C   0  0  0  0  0  0  0  0  0  0  0  0
    2.4346   -4.9108    0.4499 O   0  0  0  0  0  0  0  0  0  0  0  0
    4.1930   -3.9336    1.8925 C   0  0  2  0  0  0  0  0  0  0  0  0
    3.1097   -2.8927    2.1087 C   0  0  1  0  0  0  0  0  0  0  0  0
    3.4489   -1.9158    3.2312 C   0  0  0  0  0  0  0  0  0  0  0  0
    4.1649   -1.1395    2.1412 C   0  0  2  0  0  0  0  0  0  0  0  0
    3.1301   -1.6726    1.1553 C   0  0  1  0  0  0  0  0  0  0  0  0
    7.5718   -4.7034    0.9874 H   0  0  0  0  0  0  0  0  0  0  0  0
    6.6379   -3.2221   -0.3738 H   0  0  0  0  0  0  0  0  0  0  0  0
    6.2471   -3.4467    2.3833 H   0  0  0  0  0  0  0  0  0  0  0  0
    6.3347   -1.1447    1.9548 H   0  0  0  0  0  0  0  0  0  0  0  0
    5.1496   -0.0144    0.1107 H   0  0  0  0  0  0  0  0  0  0  0  0
    5.9758   -1.3075   -0.6686 H   0  0  0  0  0  0  0  0  0  0  0  0
    3.3048   -0.9566   -0.8919 H   0  0  0  0  0  0  0  0  0  0  0  0
    2.9238   -3.3050   -1.3617 H   0  0  0  0  0  0  0  0  0  0  0  0
    4.4416   -2.7670   -1.9783 H   0  0  0  0  0  0  0  0  0  0  0  0
    4.8363   -4.9596   -1.2210 H   0  0  0  0  0  0  0  0  0  0  0  0
    4.5944   -6.8851    0.1399 H   0  0  0  0  0  0  0  0  0  0  0  0
    4.9666   -6.4931    1.8221 H   0  0  0  0  0  0  0  0  0  0  0  0
    3.2869   -8.9118    2.2613 H   0  0  0  0  0  0  0  0  0  0  0  0
    0.8040   -9.3401    2.5393 H   0  0  0  0  0  0  0  0  0  0  0  0
   -0.8176   -7.6058    1.7675 H   0  0  0  0  0  0  0  0  0  0  0  0
    4.2854   -4.5192    2.8058 H   0  0  0  0  0  0  0  0  0  0  0  0
    2.1005   -3.2870    2.2504 H   0  0  0  0  0  0  0  0  0  0  0  0
    2.5872   -1.3931    3.6520 H   0  0  0  0  0  0  0  0  0  0  0  0
    4.1179   -2.3126    3.9981 H   0  0  0  0  0  0  0  0  0  0  0  0
    4.0824   -0.0598    2.2774 H   0  0  0  0  0  0  0  0  0  0  0  0
    2.1932   -1.1062    1.2049 H   0  0  0  0  0  0  0  0  0  0  0  0
  1  2  1  0
  1 23  1  0
  2  8  1  0
  2  3  1  0
  2 24  1  6
  3 18  1  0
  3  4  1  0
  3 25  1  1
  4 21  1  0
  4  5  1  0
  4 26  1  1
  5  6  1  0
  5 27  1  0
  5 28  1  0
  6 22  1  0
  6  7  1  0
  6 29  1  6
  7  8  1  0
  7 30  1  0
  7 31  1  0
  8  9  1  0
  8 32  1  6
  9 17  1  6
  9 10  1  0
  9 18  1  0
 10 11  1  0
 10 33  1  0
 10 34  1  0
 11 16  2  0
 11 12  1  0
 12 13  2  0
 12 35  1  0
 13 14  1  0
 13 36  1  0
 14 15  2  0
 14 37  1  0
 15 16  1  0
 16 17  1  0
 18 19  1  0
 18 38  1  1
 19 22  1  0
 19 20  1  0
 19 39  1  1
 20 21  1  0
 20 40  1  0
 20 41  1  0
 21 22  1  0
 21 42  1  1
 22 43  1  6
M  END
>  <i_m_ct_stereo_status>  (87) 
1

>  <s_m_source_file>  (87) 
/var/tmp/pbs.5076255.sched01/tmpnv36izql/0kitkh5ys.sdf

>  <i_m_source_file_index>  (87) 
39

>  <i_lp_mmshare_version>  (87) 
48012

>  <i_f3d_flags>  (87) 
0

>  <s_epik_input>  (87) 
W0NIMl0xW0NAQEhdKFtDSDJdMilbQ0BASF0oW0NAQEhdKFtDQEhdMzQpW0NIMl01KVtDQEBIXTVbQ0BIXTFbQ0BASF0zW0NAQEhdKFtPSF0pW0NASF0yW0NAQF00NltDSDJdYzdjKE82KW5bY0hdW2NIXVtjSF03

>  <s_epik_cmdline>  (87) 
J2VwaWtfcHl0aG9uJywgJy1waHQnLCAnMi4wJywgJy1waCcsICc3LjAnLCAnLXRuJywgJzgnLCAnLW1hJywgJzIwMCcsICctaW1hZScsICc8aW5maWxlLm1hZT4nLCAnLW9tYWUnLCAnPG91dGZpbGUubWFlPic=

>  <r_lp_tautomer_probability>  (87) 
1

>  <r_epik_Ionization_Penalty>  (87) 
0.000899606

>  <r_epik_Ionization_Penalty_Charging>  (87) 
0

>  <r_epik_Ionization_Penalty_Neutral>  (87) 
0.000899606

>  <r_epik_State_Penalty>  (87) 
0.000582031

>  <r_epik_Charging_Adjusted_Penalty>  (87) 
0.000582031

>  <i_epik_Tot_Q>  (87) 
0

>  <i_epik_Tot_abs_Q>  (87) 
0

>  <s_lp_Force_Field>  (87) 
OPLS3e

>  <r_lp_Energy>  (87) 
82.2884

>  <b_lp_Chiralities_Consistent>  (87) 
1

>  <s_lp_Variant>  (87) 
30:0-1

>  <s_i_glide_gridfile>  (87) 
pfpi4k_grid

>  <i_i_glide_lignum>  (87) 
39

>  <i_i_glide_rotatable_bonds>  (87) 
1

>  <r_i_docking_score>  (87) 
-3.93901

>  <r_i_glide_ligand_efficiency>  (87) 
-0.179046

>  <r_i_glide_ligand_efficiency_sa>  (87) 
-0.501693

>  <r_i_glide_ligand_efficiency_ln>  (87) 
-0.962837

>  <r_i_glide_gscore>  (87) 
-3.93901

>  <r_i_glide_lipo>  (87) 
-0.458161

>  <r_i_glide_hbond>  (87) 
-0.16

>  <r_i_glide_metal>  (87) 
-0

>  <r_i_glide_rewards>  (87) 
-1.39517

>  <r_i_glide_evdw>  (87) 
-24.2431

>  <r_i_glide_ecoul>  (87) 
-4.75683

>  <r_i_glide_erotb>  (87) 
0

>  <r_i_glide_esite>  (87) 
0

>  <r_i_glide_emodel>  (87) 
-36.6396

>  <r_i_glide_energy>  (87) 
-28.9999

>  <r_i_glide_einternal>  (87) 
0.348967

>  <r_i_glide_intrahb_reward>  (87) 
-0

>  <i_i_glide_confnum>  (87) 
1

>  <i_i_glide_posenum>  (87) 
1

>  <r_i_glide_eff_state_penalty>  (87) 
0

>  <ligand_id>  (87) 
30

>  <original_smiles>  (87) 
OC1C2C3CC4CC1C1(Cc5cccnc5O1)C2C1CC3C41

>  <smiles>  (87) 
[H]OC1([H])C2([H])C3([H])C([H])([H])C4([H])C([H])([H])C1([H])C1(Oc5nc([H])c([H])c([H])c5C1([H])[H])C2([H])C1([H])C([H])([H])C3([H])C41[H]

$$$$
30:0:2
     RDKit          3D

 43 49  0  0  1  0  0  0  0  0999 V2000
    6.7059   -5.0900    0.5833 O   0  0  0  0  0  0  0  0  0  0  0  0
    5.9268   -3.9379    0.3355 C   0  0  2  0  0  0  0  0  0  0  0  0
    5.5098   -3.2941    1.6738 C   0  0  1  0  0  0  0  0  0  0  0  0
    5.4329   -1.7080    1.6129 C   0  0  1  0  0  0  0  0  0  0  0  0
    5.1732   -1.1797    0.1871 C   0  0  0  0  0  0  0  0  0  0  0  0
    3.7655   -1.7247   -0.1136 C   0  0  1  0  0  0  0  0  0  0  0  0
    3.8405   -3.0601   -0.9296 C   0  0  0  0  0  0  0  0  0  0  0  0
    4.5701   -4.3010   -0.3189 C   0  0  2  0  0  0  0  0  0  0  0  0
    3.7745   -4.9360    0.8326 C   0  0  2  0  0  0  0  0  0  0  0  0
    4.1324   -6.4360    1.1322 C   0  0  0  0  0  0  0  0  0  0  0  0
    2.8010   -7.0004    1.4876 C   0  0  0  0  0  0  0  0  0  0  0  0
    2.4367   -8.2251    2.0718 C   0  0  0  0  0  0  0  0  0  0  0  0
    1.0507   -8.4398    2.2473 C   0  0  0  0  0  0  0  0  0  0  0  0
    0.1388   -7.4442    1.8236 C   0  0  0  0  0  0  0  0  0  0  0  0
    0.5076   -6.2651    1.2615 N   0  0  0  0  0  0  0  0  0  0  0  0
    1.8332   -6.0932    1.1250 C   0  0  0  0  0  0  0  0  0  0  0  0
    2.3500   -4.9522    0.5824 O   0  0  0  0  0  0  0  0  0  0  0  0
    4.1392   -4.0030    2.0058 C   0  0  2  0  0  0  0  0  0  0  0  0
    3.0687   -2.9486    2.2405 C   0  0  1  0  0  0  0  0  0  0  0  0
    3.4387   -1.9819    3.3617 C   0  0  0  0  0  0  0  0  0  0  0  0
    4.1473   -1.2098    2.2638 C   0  0  2  0  0  0  0  0  0  0  0  0
    3.0928   -1.7260    1.2888 C   0  0  1  0  0  0  0  0  0  0  0  0
    6.8190   -5.5530   -0.2347 H   0  0  0  0  0  0  0  0  0  0  0  0
    6.5589   -3.3203   -0.2977 H   0  0  0  0  0  0  0  0  0  0  0  0
    6.2218   -3.5516    2.4556 H   0  0  0  0  0  0  0  0  0  0  0  0
    6.3176   -1.2462    2.0499 H   0  0  0  0  0  0  0  0  0  0  0  0
    5.1252   -0.0888    0.2253 H   0  0  0  0  0  0  0  0  0  0  0  0
    5.9232   -1.3909   -0.5694 H   0  0  0  0  0  0  0  0  0  0  0  0
    3.2549   -1.0043   -0.7543 H   0  0  0  0  0  0  0  0  0  0  0  0
    2.8313   -3.3416   -1.2302 H   0  0  0  0  0  0  0  0  0  0  0  0
    4.3506   -2.8239   -1.8641 H   0  0  0  0  0  0  0  0  0  0  0  0
    4.7136   -5.0247   -1.1233 H   0  0  0  0  0  0  0  0  0  0  0  0
    4.4748   -6.9551    0.2382 H   0  0  0  0  0  0  0  0  0  0  0  0
    4.8745   -6.5732    1.9157 H   0  0  0  0  0  0  0  0  0  0  0  0
    3.1651   -8.9662    2.3658 H   0  0  0  0  0  0  0  0  0  0  0  0
    0.6838   -9.3623    2.6749 H   0  0  0  0  0  0  0  0  0  0  0  0
   -0.9244   -7.5981    1.9341 H   0  0  0  0  0  0  0  0  0  0  0  0
    4.2369   -4.5926    2.9165 H   0  0  0  0  0  0  0  0  0  0  0  0
    2.0585   -3.3347    2.3942 H   0  0  0  0  0  0  0  0  0  0  0  0
    2.5914   -1.4505    3.7969 H   0  0  0  0  0  0  0  0  0  0  0  0
    4.1119   -2.3902    4.1199 H   0  0  0  0  0  0  0  0  0  0  0  0
    4.0865   -0.1293    2.4070 H   0  0  0  0  0  0  0  0  0  0  0  0
    2.1624   -1.1508    1.3481 H   0  0  0  0  0  0  0  0  0  0  0  0
  1  2  1  0
  1 23  1  0
  2  8  1  0
  2  3  1  0
  2 24  1  6
  3 18  1  0
  3  4  1  0
  3 25  1  1
  4 21  1  0
  4  5  1  0
  4 26  1  1
  5  6  1  0
  5 27  1  0
  5 28  1  0
  6 22  1  0
  6  7  1  0
  6 29  1  6
  7  8  1  0
  7 30  1  0
  7 31  1  0
  8  9  1  0
  8 32  1  6
  9 17  1  6
  9 10  1  0
  9 18  1  0
 10 11  1  0
 10 33  1  0
 10 34  1  0
 11 16  2  0
 11 12  1  0
 12 13  2  0
 12 35  1  0
 13 14  1  0
 13 36  1  0
 14 15  2  0
 14 37  1  0
 15 16  1  0
 16 17  1  0
 18 19  1  0
 18 38  1  1
 19 22  1  0
 19 20  1  0
 19 39  1  1
 20 21  1  0
 20 40  1  0
 20 41  1  0
 21 22  1  0
 21 42  1  1
 22 43  1  6
M  END
>  <i_m_ct_stereo_status>  (88) 
1

>  <s_m_source_file>  (88) 
/var/tmp/pbs.5076255.sched01/tmpnv36izql/0kitkh5ys.sdf

>  <i_m_source_file_index>  (88) 
39

>  <i_lp_mmshare_version>  (88) 
48012

>  <i_f3d_flags>  (88) 
0

>  <s_epik_input>  (88) 
W0NIMl0xW0NAQEhdKFtDSDJdMilbQ0BASF0oW0NAQEhdKFtDQEhdMzQpW0NIMl01KVtDQEBIXTVbQ0BIXTFbQ0BASF0zW0NAQEhdKFtPSF0pW0NASF0yW0NAQF00NltDSDJdYzdjKE82KW5bY0hdW2NIXVtjSF03

>  <s_epik_cmdline>  (88) 
J2VwaWtfcHl0aG9uJywgJy1waHQnLCAnMi4wJywgJy1waCcsICc3LjAnLCAnLXRuJywgJzgnLCAnLW1hJywgJzIwMCcsICctaW1hZScsICc8aW5maWxlLm1hZT4nLCAnLW9tYWUnLCAnPG91dGZpbGUubWFlPic=

>  <r_lp_tautomer_probability>  (88) 
1

>  <r_epik_Ionization_Penalty>  (88) 
0.000899606

>  <r_epik_Ionization_Penalty_Charging>  (88) 
0

>  <r_epik_Ionization_Penalty_Neutral>  (88) 
0.000899606

>  <r_epik_State_Penalty>  (88) 
0.000582031

>  <r_epik_Charging_Adjusted_Penalty>  (88) 
0.000582031

>  <i_epik_Tot_Q>  (88) 
0

>  <i_epik_Tot_abs_Q>  (88) 
0

>  <s_lp_Force_Field>  (88) 
OPLS3e

>  <r_lp_Energy>  (88) 
82.2884

>  <b_lp_Chiralities_Consistent>  (88) 
1

>  <s_lp_Variant>  (88) 
30:0-1

>  <s_i_glide_gridfile>  (88) 
pfpi4k_grid

>  <i_i_glide_lignum>  (88) 
39

>  <i_i_glide_rotatable_bonds>  (88) 
1

>  <r_i_docking_score>  (88) 
-3.77698

>  <r_i_glide_ligand_efficiency>  (88) 
-0.171681

>  <r_i_glide_ligand_efficiency_sa>  (88) 
-0.481057

>  <r_i_glide_ligand_efficiency_ln>  (88) 
-0.923232

>  <r_i_glide_gscore>  (88) 
-3.77698

>  <r_i_glide_lipo>  (88) 
-0.417657

>  <r_i_glide_hbond>  (88) 
-0.161044

>  <r_i_glide_metal>  (88) 
-0

>  <r_i_glide_rewards>  (88) 
-1.39517

>  <r_i_glide_evdw>  (88) 
-23.743

>  <r_i_glide_ecoul>  (88) 
-4.10639

>  <r_i_glide_erotb>  (88) 
0

>  <r_i_glide_esite>  (88) 
0

>  <r_i_glide_emodel>  (88) 
-35.1125

>  <r_i_glide_energy>  (88) 
-27.8494

>  <r_i_glide_einternal>  (88) 
0.456014

>  <r_i_glide_intrahb_reward>  (88) 
-0

>  <i_i_glide_confnum>  (88) 
2

>  <i_i_glide_posenum>  (88) 
36

>  <r_i_glide_eff_state_penalty>  (88) 
0

>  <ligand_id>  (88) 
30

>  <original_smiles>  (88) 
OC1C2C3CC4CC1C1(Cc5cccnc5O1)C2C1CC3C41

>  <smiles>  (88) 
[H]OC1([H])C2([H])C3([H])C([H])([H])C4([H])C([H])([H])C1([H])C1(Oc5nc([H])c([H])c([H])c5C1([H])[H])C2([H])C1([H])C([H])([H])C3([H])C41[H]

$$$$
31:0:0
     RDKit          3D

 79 84  0  0  1  0  0  0  0  0999 V2000
   -0.8149   -8.7264    2.0641 C   0  0  0  0  0  0  0  0  0  0  0  0
    0.3087   -7.9244    2.4021 O   0  0  0  0  0  0  0  0  0  0  0  0
    1.5223   -8.2956    1.7463 C   0  0  0  0  0  0  0  0  0  0  0  0
    2.7103   -7.3338    2.1017 C   0  0  2  0  0  0  0  0  0  0  0  0
    3.9830   -8.2658    2.2556 C   0  0  0  0  0  0  0  0  0  0  0  0
    5.0521   -7.3659    2.8701 C   0  0  1  0  0  0  0  0  0  0  0  0
    5.8124   -7.0091    1.5819 C   0  0  0  0  0  0  0  0  0  0  0  0
    6.8769   -5.9331    1.5424 C   0  0  0  0  0  0  0  0  0  0  0  0
    6.4555   -4.7040    2.3179 C   0  0  2  0  0  0  0  0  0  0  0  0
    6.1382   -5.1077    3.8031 C   0  0  1  0  0  0  0  0  0  0  0  0
    4.6514   -5.1175    4.0897 C   0  0  0  0  0  0  0  0  0  0  0  0
    4.1206   -6.4910    3.7778 C   0  0  1  0  0  0  0  0  0  0  0  0
    2.6171   -6.7579    3.5279 C   0  0  2  0  0  0  0  0  0  0  0  0
    2.0632   -7.6871    4.6470 C   0  0  0  0  0  0  0  0  0  0  0  0
    1.7173   -5.5227    3.4568 C   0  0  0  0  0  0  0  0  0  0  0  0
    1.4867   -5.2564    1.9864 C   0  0  0  0  0  0  0  0  0  0  0  0
    2.5402   -5.9976    1.1492 C   0  0  1  0  0  0  0  0  0  0  0  0
    3.4439   -4.8934    0.3307 C   0  0  0  0  0  0  0  0  0  0  0  0
    4.4397   -5.4214   -0.7247 C   0  0  0  0  0  0  0  0  0  0  0  0
    2.3457   -4.2578   -0.6501 C   0  0  0  0  0  0  0  0  0  0  0  0
    4.1561   -3.6149    1.0085 C   0  0  1  0  0  0  0  0  0  0  0  0
    3.2073   -2.5419    1.6565 C   0  0  0  0  0  0  0  0  0  0  0  0
    3.7121   -1.0871    1.6654 C   0  0  0  0  0  0  0  0  0  0  0  0
    3.6283   -0.4487    0.2915 C   0  0  0  0  0  0  0  0  0  0  0  0
    2.8502   -0.3055    2.6705 C   0  0  0  0  0  0  0  0  0  0  0  0
    5.1662   -0.9982    2.0923 C   0  0  0  0  0  0  0  0  0  0  0  0
    5.7397   -2.3256    2.5638 C   0  0  0  0  0  0  0  0  0  0  0  0
    5.6873   -3.5195    1.5531 C   0  0  1  0  0  0  0  0  0  0  0  0
    6.6299   -3.0770    0.3823 C   0  0  0  0  0  0  0  0  0  0  0  0
    6.7607   -6.3634    4.2386 O   0  0  0  0  0  0  0  0  0  0  0  0
    6.2159   -7.6611    3.8219 C   0  0  0  0  0  0  0  0  0  0  0  0
   -1.6489   -8.5246    2.7393 H   0  0  0  0  0  0  0  0  0  0  0  0
   -0.5908   -9.7936    2.1363 H   0  0  0  0  0  0  0  0  0  0  0  0
   -1.1901   -8.5348    1.0535 H   0  0  0  0  0  0  0  0  0  0  0  0
    1.7288   -9.3293    2.0319 H   0  0  0  0  0  0  0  0  0  0  0  0
    1.4039   -8.3357    0.6615 H   0  0  0  0  0  0  0  0  0  0  0  0
    3.8014   -9.0805    2.9518 H   0  0  0  0  0  0  0  0  0  0  0  0
    4.2460   -8.7515    1.3124 H   0  0  0  0  0  0  0  0  0  0  0  0
    6.2953   -7.9056    1.1808 H   0  0  0  0  0  0  0  0  0  0  0  0
    5.0535   -6.8193    0.8957 H   0  0  0  0  0  0  0  0  0  0  0  0
    7.7807   -6.3497    1.9860 H   0  0  0  0  0  0  0  0  0  0  0  0
    7.2107   -5.7232    0.5243 H   0  0  0  0  0  0  0  0  0  0  0  0
    7.4527   -4.2918    2.3641 H   0  0  0  0  0  0  0  0  0  0  0  0
    6.5428   -4.3657    4.4766 H   0  0  0  0  0  0  0  0  0  0  0  0
    4.4541   -4.8632    5.1343 H   0  0  0  0  0  0  0  0  0  0  0  0
    4.1309   -4.3874    3.4962 H   0  0  0  0  0  0  0  0  0  0  0  0
    4.2424   -6.9118    4.7724 H   0  0  0  0  0  0  0  0  0  0  0  0
    2.1895   -7.1895    5.6119 H   0  0  0  0  0  0  0  0  0  0  0  0
    2.6105   -8.6203    4.7415 H   0  0  0  0  0  0  0  0  0  0  0  0
    1.0096   -7.9298    4.4923 H   0  0  0  0  0  0  0  0  0  0  0  0
    0.7555   -5.7068    3.9268 H   0  0  0  0  0  0  0  0  0  0  0  0
    2.1207   -4.6481    3.9551 H   0  0  0  0  0  0  0  0  0  0  0  0
    0.5029   -5.6007    1.6970 H   0  0  0  0  0  0  0  0  0  0  0  0
    1.4409   -4.2025    1.8175 H   0  0  0  0  0  0  0  0  0  0  0  0
    2.0009   -6.4182    0.3002 H   0  0  0  0  0  0  0  0  0  0  0  0
    4.4367   -4.8377   -1.6437 H   0  0  0  0  0  0  0  0  0  0  0  0
    4.2652   -6.4703   -0.9785 H   0  0  0  0  0  0  0  0  0  0  0  0
    5.4613   -5.3159   -0.4221 H   0  0  0  0  0  0  0  0  0  0  0  0
    2.7522   -3.5318   -1.3548 H   0  0  0  0  0  0  0  0  0  0  0  0
    1.5299   -3.7020   -0.1965 H   0  0  0  0  0  0  0  0  0  0  0  0
    1.8222   -5.0023   -1.2681 H   0  0  0  0  0  0  0  0  0  0  0  0
    4.3191   -3.0920    0.0724 H   0  0  0  0  0  0  0  0  0  0  0  0
    2.2563   -2.4418    1.1525 H   0  0  0  0  0  0  0  0  0  0  0  0
    2.9782   -2.8295    2.6821 H   0  0  0  0  0  0  0  0  0  0  0  0
    3.9289    0.5885    0.3748 H   0  0  0  0  0  0  0  0  0  0  0  0
    2.6227   -0.4977   -0.0559 H   0  0  0  0  0  0  0  0  0  0  0  0
    4.2591   -0.9448   -0.4399 H   0  0  0  0  0  0  0  0  0  0  0  0
    3.1417    0.7414    2.7075 H   0  0  0  0  0  0  0  0  0  0  0  0
    2.9727   -0.7190    3.6774 H   0  0  0  0  0  0  0  0  0  0  0  0
    1.7993   -0.3664    2.4016 H   0  0  0  0  0  0  0  0  0  0  0  0
    5.7882   -0.5926    1.2885 H   0  0  0  0  0  0  0  0  0  0  0  0
    5.2750   -0.2819    2.9096 H   0  0  0  0  0  0  0  0  0  0  0  0
    6.7400   -2.0333    2.7795 H   0  0  0  0  0  0  0  0  0  0  0  0
    5.2415   -2.5485    3.5136 H   0  0  0  0  0  0  0  0  0  0  0  0
    6.3024   -2.1630   -0.0966 H   0  0  0  0  0  0  0  0  0  0  0  0
    6.7370   -3.7885   -0.4211 H   0  0  0  0  0  0  0  0  0  0  0  0
    7.6386   -2.9008    0.7415 H   0  0  0  0  0  0  0  0  0  0  0  0
    5.8906   -8.2237    4.6983 H   0  0  0  0  0  0  0  0  0  0  0  0
    7.0002   -8.2586    3.3475 H   0  0  0  0  0  0  0  0  0  0  0  0
  1  2  1  0
  1 32  1  0
  1 33  1  0
  1 34  1  0
  2  3  1  0
  4  3  1  6
  3 35  1  0
  3 36  1  0
  4 13  1  0
  4 17  1  0
  4  5  1  0
  6  5  1  6
  5 37  1  0
  5 38  1  0
  6 12  1  0
  6 31  1  0
  6  7  1  0
  7  8  1  0
  7 39  1  0
  7 40  1  0
  8  9  1  0
  8 41  1  0
  8 42  1  0
  9 28  1  0
  9 10  1  0
  9 43  1  1
 10 11  1  0
 10 30  1  0
 10 44  1  1
 11 12  1  0
 11 45  1  0
 11 46  1  0
 12 13  1  0
 12 47  1  1
 13 14  1  1
 13 15  1  0
 14 48  1  0
 14 49  1  0
 14 50  1  0
 15 16  1  0
 15 51  1  0
 15 52  1  0
 16 17  1  0
 16 53  1  0
 16 54  1  0
 17 18  1  0
 17 55  1  6
 18 19  1  0
 18 20  1  0
 18 21  1  0
 19 56  1  0
 19 57  1  0
 19 58  1  0
 20 59  1  0
 20 60  1  0
 20 61  1  0
 21 28  1  0
 21 22  1  0
 21 62  1  6
 22 23  1  0
 22 63  1  0
 22 64  1  0
 23 24  1  0
 23 25  1  0
 23 26  1  0
 24 65  1  0
 24 66  1  0
 24 67  1  0
 25 68  1  0
 25 69  1  0
 25 70  1  0
 26 27  1  0
 26 71  1  0
 26 72  1  0
 27 28  1  0
 27 73  1  0
 27 74  1  0
 28 29  1  6
 29 75  1  0
 29 76  1  0
 29 77  1  0
 30 31  1  0
 31 78  1  0
 31 79  1  0
M  END
>  <i_m_ct_stereo_status>  (89) 
1

>  <s_m_source_file>  (89) 
/var/tmp/pbs.5076255.sched01/tmpnv36izql/0kitkh5ys.sdf

>  <i_m_source_file_index>  (89) 
40

>  <i_lp_mmshare_version>  (89) 
48012

>  <i_f3d_flags>  (89) 
0

>  <s_epik_input>  (89) 
W0NIM11PW0NIMl1bQ0BdKFtDSDJdMSkoW0NAXTIoW0NASF0zW0NAQF0xNDUpW0NIM10pW0NIXShbQ0gyXVtDSDJdMilDKFtDSDNdKShbQ0gzXSlbQ0BIXTZbQ0BdKFtDSDNdKShbQ0BIXShbQ0gyXVtDSDJdNClbQ0BASF0oW0NIMl0zKU9bQ0gyXTUpW0NIMl1bQ0gyXUMoW0NIMl02KShbQ0gzXSlbQ0gzXQ==

>  <s_epik_cmdline>  (89) 
J2VwaWtfcHl0aG9uJywgJy1waHQnLCAnMi4wJywgJy1waCcsICc3LjAnLCAnLXRuJywgJzgnLCAnLW1hJywgJzIwMCcsICctaW1hZScsICc8aW5maWxlLm1hZT4nLCAnLW9tYWUnLCAnPG91dGZpbGUubWFlPic=

>  <r_lp_tautomer_probability>  (89) 
1

>  <r_epik_Ionization_Penalty>  (89) 
1.59181e-10

>  <r_epik_Ionization_Penalty_Charging>  (89) 
0

>  <r_epik_Ionization_Penalty_Neutral>  (89) 
1.59181e-10

>  <r_epik_State_Penalty>  (89) 
-0

>  <r_epik_Charging_Adjusted_Penalty>  (89) 
0

>  <i_epik_Tot_Q>  (89) 
0

>  <i_epik_Tot_abs_Q>  (89) 
0

>  <s_lp_Force_Field>  (89) 
OPLS3e

>  <r_lp_Energy>  (89) 
227.205

>  <b_lp_Chiralities_Consistent>  (89) 
1

>  <s_lp_Variant>  (89) 
31:0-1

>  <s_i_glide_gridfile>  (89) 
pfpi4k_grid

>  <i_i_glide_lignum>  (89) 
40

>  <i_i_glide_rotatable_bonds>  (89) 
2

>  <r_i_docking_score>  (89) 
-1.04488

>  <r_i_glide_ligand_efficiency>  (89) 
-0.0337057

>  <r_i_glide_ligand_efficiency_sa>  (89) 
-0.105882

>  <r_i_glide_ligand_efficiency_ln>  (89) 
-0.235652

>  <r_i_glide_gscore>  (89) 
-1.04488

>  <r_i_glide_lipo>  (89) 
-0.521124

>  <r_i_glide_hbond>  (89) 
0

>  <r_i_glide_metal>  (89) 
-0

>  <r_i_glide_rewards>  (89) 
-0.486203

>  <r_i_glide_evdw>  (89) 
-0.926397

>  <r_i_glide_ecoul>  (89) 
-0.662188

>  <r_i_glide_erotb>  (89) 
0.108099

>  <r_i_glide_esite>  (89) 
0

>  <r_i_glide_emodel>  (89) 
1.60319

>  <r_i_glide_energy>  (89) 
-1.58859

>  <r_i_glide_einternal>  (89) 
5.16439

>  <r_i_glide_intrahb_reward>  (89) 
-0

>  <i_i_glide_confnum>  (89) 
3

>  <i_i_glide_posenum>  (89) 
29

>  <r_i_glide_eff_state_penalty>  (89) 
0

>  <ligand_id>  (89) 
31

>  <original_smiles>  (89) 
COCC12CC34CCC5C(CC3C1(C)CCC2C(C)(C)C1CC(C)(C)CCC51C)OC4

>  <smiles>  (89) 
[H]C([H])([H])OC([H])([H])C12C([H])([H])C34C([H])([H])OC5([H])C([H])([H])C3([H])C1(C([H])([H])[H])C([H])([H])C([H])([H])C2([H])C(C([H])([H])[H])(C([H])([H])[H])C1([H])C([H])([H])C(C([H])([H])[H])(C([H])([H])[H])C([H])([H])C([H])([H])C1(C([H])([H])[H])C5([H])C([H])([H])C4([H])[H]

$$$$
33:0:0
     RDKit          3D

 76 82  0  0  1  0  0  0  0  0999 V2000
    6.5397   -2.2914   -0.2828 C   0  0  0  0  0  0  0  0  0  0  0  0
    5.4276   -2.7972    0.6136 C   0  0  0  0  0  0  0  0  0  0  0  0
    4.2053   -2.2293    0.6424 C   0  0  0  0  0  0  0  0  0  0  0  0
    3.0306   -2.7304    1.4777 C   0  0  2  0  0  0  0  0  0  0  0  0
    2.7173   -1.6891    2.5650 C   0  0  0  0  0  0  0  0  0  0  0  0
    1.6069   -2.1476    3.5199 C   0  0  0  0  0  0  0  0  0  0  0  0
    1.9208   -3.5022    4.1988 C   0  0  1  0  0  0  0  0  0  0  0  0
    3.1099   -3.3006    5.1832 C   0  0  0  0  0  0  0  0  0  0  0  0
    0.6977   -3.9215    5.0324 C   0  0  0  0  0  0  0  0  0  0  0  0
    1.0119   -5.1484    5.8893 C   0  0  0  0  0  0  0  0  0  0  0  0
    1.5056   -6.3908    5.1054 C   0  0  2  0  0  0  0  0  0  0  0  0
    0.3164   -7.2302    4.8029 C   0  0  0  0  0  0  0  0  0  0  0  0
    1.0129   -8.5795    4.3674 C   0  0  2  0  0  0  0  0  0  0  0  0
    0.5807   -9.3940    5.6103 C   0  0  0  0  0  0  0  0  0  0  0  0
    1.2917   -8.5391    6.7746 C   0  0  0  0  0  0  0  0  0  0  0  0
    2.2832   -7.3946    6.1643 C   0  0  1  0  0  0  0  0  0  0  0  0
    3.4232   -8.1915    5.4800 C   0  0  0  0  0  0  0  0  0  0  0  0
    4.6072   -7.2851    5.0404 C   0  0  0  0  0  0  0  0  0  0  0  0
    4.1122   -9.2168    6.4352 C   0  0  0  0  0  0  0  0  0  0  0  0
    2.5932   -8.9279    4.3815 C   0  0  2  0  0  0  0  0  0  0  0  0
    3.1171   -9.1773    2.9587 C   0  0  0  0  0  0  0  0  0  0  0  0
    1.8174   -9.5046    2.2312 C   0  0  0  0  0  0  0  0  0  0  0  0
    0.8114   -8.5253    2.8480 C   0  0  2  0  0  0  0  0  0  0  0  0
    1.2303   -7.0329    2.4314 C   0  0  0  0  0  0  0  0  0  0  0  0
    2.0021   -6.1119    3.5497 C   0  0  1  0  0  0  0  0  0  0  0  0
    2.1163   -4.5855    3.0768 C   0  0  2  0  0  0  0  0  0  0  0  0
    3.2384   -4.1985    2.0037 C   0  0  1  0  0  0  0  0  0  0  0  0
    3.1210   -5.1173    0.7596 C   0  0  0  0  0  0  0  0  0  0  0  0
    4.6979   -4.3146    2.5310 C   0  0  0  0  0  0  0  0  0  0  0  0
    5.7650   -4.0179    1.4582 C   0  0  0  0  0  0  0  0  0  0  0  0
    6.8970   -3.0897   -0.9344 H   0  0  0  0  0  0  0  0  0  0  0  0
    7.3804   -1.9360    0.3135 H   0  0  0  0  0  0  0  0  0  0  0  0
    6.1945   -1.4717   -0.9127 H   0  0  0  0  0  0  0  0  0  0  0  0
    3.9984   -1.3716    0.0170 H   0  0  0  0  0  0  0  0  0  0  0  0
    2.1726   -2.7378    0.8034 H   0  0  0  0  0  0  0  0  0  0  0  0
    3.6235   -1.4326    3.1104 H   0  0  0  0  0  0  0  0  0  0  0  0
    2.4045   -0.7577    2.0915 H   0  0  0  0  0  0  0  0  0  0  0  0
    1.4408   -1.3803    4.2779 H   0  0  0  0  0  0  0  0  0  0  0  0
    0.6706   -2.2196    2.9628 H   0  0  0  0  0  0  0  0  0  0  0  0
    3.6174   -4.2353    5.4063 H   0  0  0  0  0  0  0  0  0  0  0  0
    2.7644   -2.8866    6.1323 H   0  0  0  0  0  0  0  0  0  0  0  0
    3.8630   -2.5972    4.8454 H   0  0  0  0  0  0  0  0  0  0  0  0
    0.3900   -3.1041    5.6841 H   0  0  0  0  0  0  0  0  0  0  0  0
   -0.1618   -4.1211    4.3933 H   0  0  0  0  0  0  0  0  0  0  0  0
    1.7490   -4.8820    6.6420 H   0  0  0  0  0  0  0  0  0  0  0  0
    0.1297   -5.3839    6.4833 H   0  0  0  0  0  0  0  0  0  0  0  0
   -0.3902   -7.2879    5.6335 H   0  0  0  0  0  0  0  0  0  0  0  0
   -0.4018   -6.7913    4.1111 H   0  0  0  0  0  0  0  0  0  0  0  0
   -0.5024   -9.4436    5.7396 H   0  0  0  0  0  0  0  0  0  0  0  0
    0.8981  -10.4385    5.6138 H   0  0  0  0  0  0  0  0  0  0  0  0
    0.5337   -8.0562    7.3892 H   0  0  0  0  0  0  0  0  0  0  0  0
    1.7765   -9.1972    7.4922 H   0  0  0  0  0  0  0  0  0  0  0  0
    2.7164   -6.8220    6.9868 H   0  0  0  0  0  0  0  0  0  0  0  0
    5.0144   -7.5621    4.0694 H   0  0  0  0  0  0  0  0  0  0  0  0
    5.4417   -7.3283    5.7408 H   0  0  0  0  0  0  0  0  0  0  0  0
    4.3438   -6.2337    5.0281 H   0  0  0  0  0  0  0  0  0  0  0  0
    5.0185   -9.6269    5.9875 H   0  0  0  0  0  0  0  0  0  0  0  0
    3.5047  -10.0836    6.6927 H   0  0  0  0  0  0  0  0  0  0  0  0
    4.4041   -8.7381    7.3718 H   0  0  0  0  0  0  0  0  0  0  0  0
    2.6582   -9.9731    4.6861 H   0  0  0  0  0  0  0  0  0  0  0  0
    3.5954   -8.3102    2.5104 H   0  0  0  0  0  0  0  0  0  0  0  0
    3.8319  -10.0036    2.9059 H   0  0  0  0  0  0  0  0  0  0  0  0
    1.9088   -9.4096    1.1491 H   0  0  0  0  0  0  0  0  0  0  0  0
    1.5096  -10.5304    2.4449 H   0  0  0  0  0  0  0  0  0  0  0  0
   -0.2090   -8.7626    2.5466 H   0  0  0  0  0  0  0  0  0  0  0  0
    1.7847   -7.1093    1.5038 H   0  0  0  0  0  0  0  0  0  0  0  0
    0.3187   -6.5197    2.1282 H   0  0  0  0  0  0  0  0  0  0  0  0
    3.0150   -6.4419    3.4478 H   0  0  0  0  0  0  0  0  0  0  0  0
    1.1990   -4.4716    2.5006 H   0  0  0  0  0  0  0  0  0  0  0  0
    3.5319   -6.1067    0.9623 H   0  0  0  0  0  0  0  0  0  0  0  0
    3.6778   -4.7470   -0.1005 H   0  0  0  0  0  0  0  0  0  0  0  0
    2.0921   -5.2086    0.4146 H   0  0  0  0  0  0  0  0  0  0  0  0
    4.8760   -3.5951    3.3211 H   0  0  0  0  0  0  0  0  0  0  0  0
    4.8893   -5.2931    2.9664 H   0  0  0  0  0  0  0  0  0  0  0  0
    5.8764   -4.8741    0.7922 H   0  0  0  0  0  0  0  0  0  0  0  0
    6.7321   -3.8703    1.9381 H   0  0  0  0  0  0  0  0  0  0  0  0
  1  2  1  0
  1 31  1  0
  1 32  1  0
  1 33  1  0
  2 30  1  0
  2  3  2  0
  3  4  1  0
  3 34  1  0
  4 27  1  0
  4  5  1  0
  4 35  1  6
  5  6  1  0
  5 36  1  0
  5 37  1  0
  6  7  1  0
  6 38  1  0
  6 39  1  0
  7 26  1  0
  7  8  1  1
  7  9  1  0
  8 40  1  0
  8 41  1  0
  8 42  1  0
  9 10  1  0
  9 43  1  0
  9 44  1  0
 11 10  1  1
 10 45  1  0
 10 46  1  0
 11 16  1  0
 11 25  1  0
 11 12  1  0
 12 13  1  0
 12 47  1  0
 12 48  1  0
 13 20  1  0
 13 23  1  0
 13 14  1  1
 14 15  1  0
 14 49  1  0
 14 50  1  0
 15 16  1  0
 15 51  1  0
 15 52  1  0
 16 17  1  0
 16 53  1  1
 17 18  1  0
 17 19  1  0
 17 20  1  0
 18 54  1  0
 18 55  1  0
 18 56  1  0
 19 57  1  0
 19 58  1  0
 19 59  1  0
 20 21  1  0
 20 60  1  1
 21 22  1  0
 21 61  1  0
 21 62  1  0
 22 23  1  0
 22 63  1  0
 22 64  1  0
 23 24  1  0
 23 65  1  1
 24 25  1  0
 24 66  1  0
 24 67  1  0
 25 26  1  0
 25 68  1  1
 26 27  1  0
 26 69  1  6
 27 28  1  6
 27 29  1  0
 28 70  1  0
 28 71  1  0
 28 72  1  0
 29 30  1  0
 29 73  1  0
 29 74  1  0
 30 75  1  0
 30 76  1  0
M  END
>  <i_m_ct_stereo_status>  (90) 
1

>  <s_m_source_file>  (90) 
/var/tmp/pbs.5076255.sched01/tmpdonsa7tf/408ubvndgu.sdf

>  <i_m_source_file_index>  (90) 
4

>  <i_lp_mmshare_version>  (90) 
48012

>  <i_f3d_flags>  (90) 
0

>  <s_epik_input>  (90) 
W0NIM11DKD1bQ0hdMSlbQ0gyXVtDSDJdW0NAXTIoW0NIM10pW0NASF0xW0NIMl1bQ0gyXVtDQEBdKFtDSDNdKShbQ0gyXVtDSDJdMylbQ0BASF0yW0NAQEhdNFtDSDJdW0NASF01W0NIMl1bQ0gyXVtDQEBIXShDNihbQ0gzXSlbQ0gzXSlDNShbQ0gyXTcpW0NIMl1bQ0gyXVtDQEBIXTZbQ0BAXTM0Nw==

>  <s_epik_cmdline>  (90) 
J2VwaWtfcHl0aG9uJywgJy1waHQnLCAnMi4wJywgJy1waCcsICc3LjAnLCAnLXRuJywgJzgnLCAnLW1hJywgJzIwMCcsICctaW1hZScsICc8aW5maWxlLm1hZT4nLCAnLW9tYWUnLCAnPG91dGZpbGUubWFlPic=

>  <r_lp_tautomer_probability>  (90) 
1

>  <r_epik_Ionization_Penalty>  (90) 
0

>  <r_epik_Ionization_Penalty_Charging>  (90) 
0

>  <r_epik_Ionization_Penalty_Neutral>  (90) 
0

>  <r_epik_State_Penalty>  (90) 
-0

>  <r_epik_Charging_Adjusted_Penalty>  (90) 
0

>  <i_epik_Tot_Q>  (90) 
0

>  <i_epik_Tot_abs_Q>  (90) 
0

>  <s_lp_Force_Field>  (90) 
OPLS3e

>  <r_lp_Energy>  (90) 
234.721

>  <b_lp_Chiralities_Consistent>  (90) 
1

>  <s_lp_Variant>  (90) 
33:0-1

>  <s_i_glide_gridfile>  (90) 
pfpi4k_grid

>  <i_i_glide_lignum>  (90) 
4

>  <i_i_glide_rotatable_bonds>  (90) 
0

>  <r_i_docking_score>  (90) 
-2.23821

>  <r_i_glide_ligand_efficiency>  (90) 
-0.0746071

>  <r_i_glide_ligand_efficiency_sa>  (90) 
-0.231822

>  <r_i_glide_ligand_efficiency_ln>  (90) 
-0.508546

>  <r_i_glide_gscore>  (90) 
-2.23821

>  <r_i_glide_lipo>  (90) 
-0.234426

>  <r_i_glide_hbond>  (90) 
0

>  <r_i_glide_metal>  (90) 
-0

>  <r_i_glide_rewards>  (90) 
-0.63623

>  <r_i_glide_evdw>  (90) 
-26.5272

>  <r_i_glide_ecoul>  (90) 
-0.274637

>  <r_i_glide_erotb>  (90) 
0

>  <r_i_glide_esite>  (90) 
0

>  <r_i_glide_emodel>  (90) 
-30.3719

>  <r_i_glide_energy>  (90) 
-26.8019

>  <r_i_glide_einternal>  (90) 
0

>  <r_i_glide_intrahb_reward>  (90) 
-0

>  <i_i_glide_confnum>  (90) 
1

>  <i_i_glide_posenum>  (90) 
2

>  <r_i_glide_eff_state_penalty>  (90) 
0

>  <ligand_id>  (90) 
33

>  <original_smiles>  (90) 
CC1=CC2CCC3(C)CCC45CC67CCC4C(C)(C)C6CCC7CC5C3C2(C)CC1

>  <smiles>  (90) 
[H]C1=C(C([H])([H])[H])C([H])([H])C([H])([H])C2(C([H])([H])[H])C1([H])C([H])([H])C([H])([H])C1(C([H])([H])[H])C([H])([H])C([H])([H])C34C([H])([H])C56C([H])([H])C([H])([H])C3([H])C(C([H])([H])[H])(C([H])([H])[H])C5([H])C([H])([H])C([H])([H])C6([H])C([H])([H])C4([H])C12[H]

$$$$
33:0:1
     RDKit          3D

 76 82  0  0  1  0  0  0  0  0999 V2000
    3.7296   -1.7921   -4.1749 C   0  0  0  0  0  0  0  0  0  0  0  0
    3.9516   -2.1573   -2.7319 C   0  0  0  0  0  0  0  0  0  0  0  0
    3.8895   -1.2713   -1.7437 C   0  0  0  0  0  0  0  0  0  0  0  0
    3.9304   -1.6097   -0.2644 C   0  0  2  0  0  0  0  0  0  0  0  0
    5.2213   -1.0506    0.3194 C   0  0  0  0  0  0  0  0  0  0  0  0
    5.3899   -1.4182    1.7947 C   0  0  0  0  0  0  0  0  0  0  0  0
    5.2968   -2.9454    2.0605 C   0  0  1  0  0  0  0  0  0  0  0  0
    6.5174   -3.6368    1.3935 C   0  0  0  0  0  0  0  0  0  0  0  0
    5.3337   -3.1903    3.5697 C   0  0  0  0  0  0  0  0  0  0  0  0
    5.4974   -4.6725    3.8875 C   0  0  0  0  0  0  0  0  0  0  0  0
    4.3706   -5.5668    3.3330 C   0  0  2  0  0  0  0  0  0  0  0  0
    3.3338   -5.6951    4.3954 C   0  0  0  0  0  0  0  0  0  0  0  0
    2.4779   -6.8988    3.8195 C   0  0  2  0  0  0  0  0  0  0  0  0
    2.9120   -7.9212    4.8956 C   0  0  0  0  0  0  0  0  0  0  0  0
    4.4965   -7.9455    4.6493 C   0  0  0  0  0  0  0  0  0  0  0  0
    4.9217   -7.1224    3.3183 C   0  0  1  0  0  0  0  0  0  0  0  0
    4.2868   -7.9292    2.1671 C   0  0  0  0  0  0  0  0  0  0  0  0
    4.7762   -7.4379    0.7994 C   0  0  0  0  0  0  0  0  0  0  0  0
    4.7232   -9.4303    2.1588 C   0  0  0  0  0  0  0  0  0  0  0  0
    2.7903   -7.7793    2.5077 C   0  0  2  0  0  0  0  0  0  0  0  0
    1.6994   -7.5991    1.4437 C   0  0  0  0  0  0  0  0  0  0  0  0
    0.5457   -7.0907    2.2990 C   0  0  0  0  0  0  0  0  0  0  0  0
    1.2587   -6.1635    3.2951 C   0  0  2  0  0  0  0  0  0  0  0  0
    1.8587   -4.9035    2.4978 C   0  0  0  0  0  0  0  0  0  0  0  0
    3.4600   -4.8909    2.1546 C   0  0  1  0  0  0  0  0  0  0  0  0
    3.9200   -3.4711    1.5604 C   0  0  2  0  0  0  0  0  0  0  0  0
    3.6869   -3.1368    0.0220 C   0  0  1  0  0  0  0  0  0  0  0  0
    2.2288   -3.3930   -0.3127 C   0  0  0  0  0  0  0  0  0  0  0  0
    4.4857   -3.9732   -1.0028 C   0  0  0  0  0  0  0  0  0  0  0  0
    4.1444   -3.6205   -2.4596 C   0  0  0  0  0  0  0  0  0  0  0  0
    2.9147   -2.3587   -4.6286 H   0  0  0  0  0  0  0  0  0  0  0  0
    4.6038   -2.0798   -4.7043 H   0  0  0  0  0  0  0  0  0  0  0  0
    3.5644   -0.7212   -4.3259 H   0  0  0  0  0  0  0  0  0  0  0  0
    3.7359   -0.2490   -2.0018 H   0  0  0  0  0  0  0  0  0  0  0  0
    3.1018   -1.0419    0.1666 H   0  0  0  0  0  0  0  0  0  0  0  0
    6.0581   -1.3920   -0.2789 H   0  0  0  0  0  0  0  0  0  0  0  0
    5.2171    0.0322    0.2204 H   0  0  0  0  0  0  0  0  0  0  0  0
    6.3451   -1.0326    2.1541 H   0  0  0  0  0  0  0  0  0  0  0  0
    4.6172   -0.9047    2.3742 H   0  0  0  0  0  0  0  0  0  0  0  0
    6.3583   -4.6923    1.2105 H   0  0  0  0  0  0  0  0  0  0  0  0
    7.3913   -3.5710    2.0429 H   0  0  0  0  0  0  0  0  0  0  0  0
    6.8607   -3.1829    0.4730 H   0  0  0  0  0  0  0  0  0  0  0  0
    6.1578   -2.6493    4.0069 H   0  0  0  0  0  0  0  0  0  0  0  0
    4.4458   -2.7906    4.0530 H   0  0  0  0  0  0  0  0  0  0  0  0
    6.4550   -5.0484    3.5435 H   0  0  0  0  0  0  0  0  0  0  0  0
    5.5496   -4.7565    4.9681 H   0  0  0  0  0  0  0  0  0  0  0  0
    3.7495   -5.8209    5.3959 H   0  0  0  0  0  0  0  0  0  0  0  0
    2.7988   -4.7724    4.6431 H   0  0  0  0  0  0  0  0  0  0  0  0
    2.6560   -7.6054    5.9070 H   0  0  0  0  0  0  0  0  0  0  0  0
    2.4608   -8.9094    4.7871 H   0  0  0  0  0  0  0  0  0  0  0  0
    5.0125   -7.5082    5.5048 H   0  0  0  0  0  0  0  0  0  0  0  0
    4.8752   -8.9683    4.6536 H   0  0  0  0  0  0  0  0  0  0  0  0
    5.9979   -7.1426    3.1980 H   0  0  0  0  0  0  0  0  0  0  0  0
    4.0047   -7.4269    0.0332 H   0  0  0  0  0  0  0  0  0  0  0  0
    5.5536   -8.1168    0.4754 H   0  0  0  0  0  0  0  0  0  0  0  0
    5.2728   -6.4768    0.8169 H   0  0  0  0  0  0  0  0  0  0  0  0
    4.4326   -9.9092    1.2233 H   0  0  0  0  0  0  0  0  0  0  0  0
    4.2937  -10.0465    2.9446 H   0  0  0  0  0  0  0  0  0  0  0  0
    5.8084   -9.5190    2.2306 H   0  0  0  0  0  0  0  0  0  0  0  0
    2.5028   -8.7993    2.7620 H   0  0  0  0  0  0  0  0  0  0  0  0
    1.9412   -6.8664    0.6785 H   0  0  0  0  0  0  0  0  0  0  0  0
    1.4553   -8.5332    0.9290 H   0  0  0  0  0  0  0  0  0  0  0  0
   -0.2326   -6.6108    1.7054 H   0  0  0  0  0  0  0  0  0  0  0  0
    0.0823   -7.9293    2.8278 H   0  0  0  0  0  0  0  0  0  0  0  0
    0.5853   -5.8598    4.0948 H   0  0  0  0  0  0  0  0  0  0  0  0
    1.3549   -4.8715    1.5630 H   0  0  0  0  0  0  0  0  0  0  0  0
    1.5859   -3.9980    3.0383 H   0  0  0  0  0  0  0  0  0  0  0  0
    3.4938   -5.4861    1.2662 H   0  0  0  0  0  0  0  0  0  0  0  0
    3.2325   -2.7993    2.0713 H   0  0  0  0  0  0  0  0  0  0  0  0
    1.9754   -4.4510   -0.3426 H   0  0  0  0  0  0  0  0  0  0  0  0
    1.9253   -2.9792   -1.2684 H   0  0  0  0  0  0  0  0  0  0  0  0
    1.6854   -2.8271    0.4353 H   0  0  0  0  0  0  0  0  0  0  0  0
    5.5471   -3.7909   -0.9229 H   0  0  0  0  0  0  0  0  0  0  0  0
    4.3289   -5.0375   -0.8160 H   0  0  0  0  0  0  0  0  0  0  0  0
    3.1627   -3.9988   -2.7071 H   0  0  0  0  0  0  0  0  0  0  0  0
    4.8592   -4.0715   -3.1339 H   0  0  0  0  0  0  0  0  0  0  0  0
  1  2  1  0
  1 31  1  0
  1 32  1  0
  1 33  1  0
  2 30  1  0
  2  3  2  0
  3  4  1  0
  3 34  1  0
  4 27  1  0
  4  5  1  0
  4 35  1  1
  5  6  1  0
  5 36  1  0
  5 37  1  0
  6  7  1  0
  6 38  1  0
  6 39  1  0
  7 26  1  0
  7  8  1  6
  7  9  1  0
  8 40  1  0
  8 41  1  0
  8 42  1  0
  9 10  1  0
  9 43  1  0
  9 44  1  0
 11 10  1  1
 10 45  1  0
 10 46  1  0
 11 16  1  0
 11 25  1  0
 11 12  1  0
 12 13  1  0
 12 47  1  0
 12 48  1  0
 13 20  1  0
 13 23  1  0
 13 14  1  1
 14 15  1  0
 14 49  1  0
 14 50  1  0
 15 16  1  0
 15 51  1  0
 15 52  1  0
 16 17  1  0
 16 53  1  6
 17 18  1  0
 17 19  1  0
 17 20  1  0
 18 54  1  0
 18 55  1  0
 18 56  1  0
 19 57  1  0
 19 58  1  0
 19 59  1  0
 20 21  1  0
 20 60  1  1
 21 22  1  0
 21 61  1  0
 21 62  1  0
 22 23  1  0
 22 63  1  0
 22 64  1  0
 23 24  1  0
 23 65  1  1
 24 25  1  0
 24 66  1  0
 24 67  1  0
 25 26  1  0
 25 68  1  6
 26 27  1  0
 26 69  1  1
 27 28  1  6
 27 29  1  0
 28 70  1  0
 28 71  1  0
 28 72  1  0
 29 30  1  0
 29 73  1  0
 29 74  1  0
 30 75  1  0
 30 76  1  0
M  END
>  <i_m_ct_stereo_status>  (91) 
1

>  <s_m_source_file>  (91) 
/var/tmp/pbs.5076255.sched01/tmpdonsa7tf/408ubvndgu.sdf

>  <i_m_source_file_index>  (91) 
4

>  <i_lp_mmshare_version>  (91) 
48012

>  <i_f3d_flags>  (91) 
0

>  <s_epik_input>  (91) 
W0NIM11DKD1bQ0hdMSlbQ0gyXVtDSDJdW0NAXTIoW0NIM10pW0NASF0xW0NIMl1bQ0gyXVtDQEBdKFtDSDNdKShbQ0gyXVtDSDJdMylbQ0BASF0yW0NAQEhdNFtDSDJdW0NASF01W0NIMl1bQ0gyXVtDQEBIXShDNihbQ0gzXSlbQ0gzXSlDNShbQ0gyXTcpW0NIMl1bQ0gyXVtDQEBIXTZbQ0BAXTM0Nw==

>  <s_epik_cmdline>  (91) 
J2VwaWtfcHl0aG9uJywgJy1waHQnLCAnMi4wJywgJy1waCcsICc3LjAnLCAnLXRuJywgJzgnLCAnLW1hJywgJzIwMCcsICctaW1hZScsICc8aW5maWxlLm1hZT4nLCAnLW9tYWUnLCAnPG91dGZpbGUubWFlPic=

>  <r_lp_tautomer_probability>  (91) 
1

>  <r_epik_Ionization_Penalty>  (91) 
0

>  <r_epik_Ionization_Penalty_Charging>  (91) 
0

>  <r_epik_Ionization_Penalty_Neutral>  (91) 
0

>  <r_epik_State_Penalty>  (91) 
-0

>  <r_epik_Charging_Adjusted_Penalty>  (91) 
0

>  <i_epik_Tot_Q>  (91) 
0

>  <i_epik_Tot_abs_Q>  (91) 
0

>  <s_lp_Force_Field>  (91) 
OPLS3e

>  <r_lp_Energy>  (91) 
234.721

>  <b_lp_Chiralities_Consistent>  (91) 
1

>  <s_lp_Variant>  (91) 
33:0-1

>  <s_i_glide_gridfile>  (91) 
pfpi4k_grid

>  <i_i_glide_lignum>  (91) 
4

>  <i_i_glide_rotatable_bonds>  (91) 
0

>  <r_i_docking_score>  (91) 
-2.07934

>  <r_i_glide_ligand_efficiency>  (91) 
-0.0693112

>  <r_i_glide_ligand_efficiency_sa>  (91) 
-0.215366

>  <r_i_glide_ligand_efficiency_ln>  (91) 
-0.472448

>  <r_i_glide_gscore>  (91) 
-2.07934

>  <r_i_glide_lipo>  (91) 
-0.499481

>  <r_i_glide_hbond>  (91) 
0

>  <r_i_glide_metal>  (91) 
-0

>  <r_i_glide_rewards>  (91) 
-0.63623

>  <r_i_glide_evdw>  (91) 
-19.0051

>  <r_i_glide_ecoul>  (91) 
0.0442162

>  <r_i_glide_erotb>  (91) 
0

>  <r_i_glide_esite>  (91) 
0

>  <r_i_glide_emodel>  (91) 
-21.6262

>  <r_i_glide_energy>  (91) 
-18.9609

>  <r_i_glide_einternal>  (91) 
0

>  <r_i_glide_intrahb_reward>  (91) 
-0

>  <i_i_glide_confnum>  (91) 
1

>  <i_i_glide_posenum>  (91) 
31

>  <r_i_glide_eff_state_penalty>  (91) 
0

>  <ligand_id>  (91) 
33

>  <original_smiles>  (91) 
CC1=CC2CCC3(C)CCC45CC67CCC4C(C)(C)C6CCC7CC5C3C2(C)CC1

>  <smiles>  (91) 
[H]C1=C(C([H])([H])[H])C([H])([H])C([H])([H])C2(C([H])([H])[H])C1([H])C([H])([H])C([H])([H])C1(C([H])([H])[H])C([H])([H])C([H])([H])C34C([H])([H])C56C([H])([H])C([H])([H])C3([H])C(C([H])([H])[H])(C([H])([H])[H])C5([H])C([H])([H])C([H])([H])C6([H])C([H])([H])C4([H])C12[H]

$$$$
33:0:2
     RDKit          3D

 76 82  0  0  1  0  0  0  0  0999 V2000
    4.4482   -3.0248   -3.4171 C   0  0  0  0  0  0  0  0  0  0  0  0
    4.2686   -3.1153   -1.9174 C   0  0  0  0  0  0  0  0  0  0  0  0
    3.2949   -2.4534   -1.2707 C   0  0  0  0  0  0  0  0  0  0  0  0
    3.0143   -2.5590    0.2265 C   0  0  2  0  0  0  0  0  0  0  0  0
    3.3188   -1.2026    0.8815 C   0  0  0  0  0  0  0  0  0  0  0  0
    3.1311   -1.2332    2.4035 C   0  0  0  0  0  0  0  0  0  0  0  0
    3.9812   -2.3307    3.0761 C   0  0  1  0  0  0  0  0  0  0  0  0
    5.4677   -1.9322    2.9217 C   0  0  0  0  0  0  0  0  0  0  0  0
    3.6600   -2.3562    4.5800 C   0  0  0  0  0  0  0  0  0  0  0  0
    4.6253   -3.2723    5.3343 C   0  0  0  0  0  0  0  0  0  0  0  0
    4.6694   -4.7390    4.8349 C   0  0  2  0  0  0  0  0  0  0  0  0
    3.6946   -5.5166    5.6425 C   0  0  0  0  0  0  0  0  0  0  0  0
    4.1302   -6.9935    5.2839 C   0  0  2  0  0  0  0  0  0  0  0  0
    4.7110   -7.3336    6.6769 C   0  0  0  0  0  0  0  0  0  0  0  0
    5.8758   -6.2249    6.7781 C   0  0  0  0  0  0  0  0  0  0  0  0
    6.0738   -5.4253    5.3696 C   0  0  1  0  0  0  0  0  0  0  0  0
    6.6078   -6.4983    4.3839 C   0  0  0  0  0  0  0  0  0  0  0  0
    7.0911   -5.8938    3.0354 C   0  0  0  0  0  0  0  0  0  0  0  0
    7.8846   -7.2269    4.9100 C   0  0  0  0  0  0  0  0  0  0  0  0
    5.3807   -7.4631    4.3711 C   0  0  2  0  0  0  0  0  0  0  0  0
    4.8992   -8.1958    3.1084 C   0  0  0  0  0  0  0  0  0  0  0  0
    3.4951   -8.6159    3.5374 C   0  0  0  0  0  0  0  0  0  0  0  0
    2.9976   -7.4025    4.3348 C   0  0  2  0  0  0  0  0  0  0  0  0
    2.8392   -6.1599    3.3307 C   0  0  0  0  0  0  0  0  0  0  0  0
    4.0079   -5.0080    3.3410 C   0  0  1  0  0  0  0  0  0  0  0  0
    3.5731   -3.7262    2.4862 C   0  0  2  0  0  0  0  0  0  0  0  0
    3.6976   -3.8028    0.8946 C   0  0  1  0  0  0  0  0  0  0  0  0
    2.9318   -5.0454    0.3731 C   0  0  0  0  0  0  0  0  0  0  0  0
    5.1526   -3.8824    0.3520 C   0  0  0  0  0  0  0  0  0  0  0  0
    5.2331   -4.0284   -1.1816 C   0  0  0  0  0  0  0  0  0  0  0  0
    4.4154   -4.0150   -3.8712 H   0  0  0  0  0  0  0  0  0  0  0  0
    5.4134   -2.5750   -3.6375 H   0  0  0  0  0  0  0  0  0  0  0  0
    3.6744   -2.4129   -3.8805 H   0  0  0  0  0  0  0  0  0  0  0  0
    2.6153   -1.8225   -1.8270 H   0  0  0  0  0  0  0  0  0  0  0  0
    1.9372   -2.6971    0.3154 H   0  0  0  0  0  0  0  0  0  0  0  0
    4.3111   -0.8579    0.5984 H   0  0  0  0  0  0  0  0  0  0  0  0
    2.6386   -0.4526    0.4790 H   0  0  0  0  0  0  0  0  0  0  0  0
    3.3859   -0.2567    2.8182 H   0  0  0  0  0  0  0  0  0  0  0  0
    2.0758   -1.3897    2.6338 H   0  0  0  0  0  0  0  0  0  0  0  0
    6.1170   -2.7986    3.0082 H   0  0  0  0  0  0  0  0  0  0  0  0
    5.7643   -1.2182    3.6933 H   0  0  0  0  0  0  0  0  0  0  0  0
    5.7284   -1.4379    1.9924 H   0  0  0  0  0  0  0  0  0  0  0  0
    3.7298   -1.3503    4.9947 H   0  0  0  0  0  0  0  0  0  0  0  0
    2.6301   -2.6710    4.7485 H   0  0  0  0  0  0  0  0  0  0  0  0
    5.6264   -2.8494    5.3041 H   0  0  0  0  0  0  0  0  0  0  0  0
    4.3711   -3.2287    6.3927 H   0  0  0  0  0  0  0  0  0  0  0  0
    3.6993   -5.2470    6.7009 H   0  0  0  0  0  0  0  0  0  0  0  0
    2.6488   -5.2541    5.4942 H   0  0  0  0  0  0  0  0  0  0  0  0
    3.9832   -7.2394    7.4854 H   0  0  0  0  0  0  0  0  0  0  0  0
    5.0994   -8.3494    6.7783 H   0  0  0  0  0  0  0  0  0  0  0  0
    5.6275   -5.5046    7.5575 H   0  0  0  0  0  0  0  0  0  0  0  0
    6.7940   -6.6611    7.1625 H   0  0  0  0  0  0  0  0  0  0  0  0
    6.8475   -4.6654    5.4975 H   0  0  0  0  0  0  0  0  0  0  0  0
    6.8245   -6.5071    2.1761 H   0  0  0  0  0  0  0  0  0  0  0  0
    8.1751   -5.7795    3.0024 H   0  0  0  0  0  0  0  0  0  0  0  0
    6.7233   -4.8874    2.8753 H   0  0  0  0  0  0  0  0  0  0  0  0
    8.3420   -7.8372    4.1298 H   0  0  0  0  0  0  0  0  0  0  0  0
    7.7124   -7.9092    5.7417 H   0  0  0  0  0  0  0  0  0  0  0  0
    8.6368   -6.5058    5.2357 H   0  0  0  0  0  0  0  0  0  0  0  0
    5.7725   -8.3603    4.8523 H   0  0  0  0  0  0  0  0  0  0  0  0
    4.8515   -7.5586    2.2288 H   0  0  0  0  0  0  0  0  0  0  0  0
    5.5240   -9.0545    2.8515 H   0  0  0  0  0  0  0  0  0  0  0  0
    2.8558   -8.8722    2.6910 H   0  0  0  0  0  0  0  0  0  0  0  0
    3.5396   -9.4924    4.1877 H   0  0  0  0  0  0  0  0  0  0  0  0
    2.0661   -7.6238    4.8566 H   0  0  0  0  0  0  0  0  0  0  0  0
    2.6770   -6.5739    2.3423 H   0  0  0  0  0  0  0  0  0  0  0  0
    1.8846   -5.6848    3.5568 H   0  0  0  0  0  0  0  0  0  0  0  0
    4.7501   -5.4465    2.7081 H   0  0  0  0  0  0  0  0  0  0  0  0
    2.4945   -3.7198    2.6385 H   0  0  0  0  0  0  0  0  0  0  0  0
    3.5079   -5.9578    0.5316 H   0  0  0  0  0  0  0  0  0  0  0  0
    2.7477   -5.0046   -0.6992 H   0  0  0  0  0  0  0  0  0  0  0  0
    1.9488   -5.1446    0.8293 H   0  0  0  0  0  0  0  0  0  0  0  0
    5.6873   -2.9678    0.5775 H   0  0  0  0  0  0  0  0  0  0  0  0
    5.7117   -4.6884    0.8195 H   0  0  0  0  0  0  0  0  0  0  0  0
    5.0104   -5.0558   -1.4736 H   0  0  0  0  0  0  0  0  0  0  0  0
    6.2467   -3.8164   -1.5178 H   0  0  0  0  0  0  0  0  0  0  0  0
  1  2  1  0
  1 31  1  0
  1 32  1  0
  1 33  1  0
  2 30  1  0
  2  3  2  0
  3  4  1  0
  3 34  1  0
  4 27  1  0
  4  5  1  0
  4 35  1  6
  5  6  1  0
  5 36  1  0
  5 37  1  0
  6  7  1  0
  6 38  1  0
  6 39  1  0
  7 26  1  0
  7  8  1  1
  7  9  1  0
  8 40  1  0
  8 41  1  0
  8 42  1  0
  9 10  1  0
  9 43  1  0
  9 44  1  0
 11 10  1  1
 10 45  1  0
 10 46  1  0
 11 16  1  0
 11 25  1  0
 11 12  1  0
 12 13  1  0
 12 47  1  0
 12 48  1  0
 13 20  1  0
 13 23  1  0
 13 14  1  1
 14 15  1  0
 14 49  1  0
 14 50  1  0
 15 16  1  0
 15 51  1  0
 15 52  1  0
 16 17  1  0
 16 53  1  1
 17 18  1  0
 17 19  1  0
 17 20  1  0
 18 54  1  0
 18 55  1  0
 18 56  1  0
 19 57  1  0
 19 58  1  0
 19 59  1  0
 20 21  1  0
 20 60  1  1
 21 22  1  0
 21 61  1  0
 21 62  1  0
 22 23  1  0
 22 63  1  0
 22 64  1  0
 23 24  1  0
 23 65  1  1
 24 25  1  0
 24 66  1  0
 24 67  1  0
 25 26  1  0
 25 68  1  6
 26 27  1  0
 26 69  1  6
 27 28  1  6
 27 29  1  0
 28 70  1  0
 28 71  1  0
 28 72  1  0
 29 30  1  0
 29 73  1  0
 29 74  1  0
 30 75  1  0
 30 76  1  0
M  END
>  <i_m_ct_stereo_status>  (92) 
1

>  <s_m_source_file>  (92) 
/var/tmp/pbs.5076255.sched01/tmpdonsa7tf/408ubvndgu.sdf

>  <i_m_source_file_index>  (92) 
4

>  <i_lp_mmshare_version>  (92) 
48012

>  <i_f3d_flags>  (92) 
0

>  <s_epik_input>  (92) 
W0NIM11DKD1bQ0hdMSlbQ0gyXVtDSDJdW0NAXTIoW0NIM10pW0NASF0xW0NIMl1bQ0gyXVtDQEBdKFtDSDNdKShbQ0gyXVtDSDJdMylbQ0BASF0yW0NAQEhdNFtDSDJdW0NASF01W0NIMl1bQ0gyXVtDQEBIXShDNihbQ0gzXSlbQ0gzXSlDNShbQ0gyXTcpW0NIMl1bQ0gyXVtDQEBIXTZbQ0BAXTM0Nw==

>  <s_epik_cmdline>  (92) 
J2VwaWtfcHl0aG9uJywgJy1waHQnLCAnMi4wJywgJy1waCcsICc3LjAnLCAnLXRuJywgJzgnLCAnLW1hJywgJzIwMCcsICctaW1hZScsICc8aW5maWxlLm1hZT4nLCAnLW9tYWUnLCAnPG91dGZpbGUubWFlPic=

>  <r_lp_tautomer_probability>  (92) 
1

>  <r_epik_Ionization_Penalty>  (92) 
0

>  <r_epik_Ionization_Penalty_Charging>  (92) 
0

>  <r_epik_Ionization_Penalty_Neutral>  (92) 
0

>  <r_epik_State_Penalty>  (92) 
-0

>  <r_epik_Charging_Adjusted_Penalty>  (92) 
0

>  <i_epik_Tot_Q>  (92) 
0

>  <i_epik_Tot_abs_Q>  (92) 
0

>  <s_lp_Force_Field>  (92) 
OPLS3e

>  <r_lp_Energy>  (92) 
234.721

>  <b_lp_Chiralities_Consistent>  (92) 
1

>  <s_lp_Variant>  (92) 
33:0-1

>  <s_i_glide_gridfile>  (92) 
pfpi4k_grid

>  <i_i_glide_lignum>  (92) 
4

>  <i_i_glide_rotatable_bonds>  (92) 
0

>  <r_i_docking_score>  (92) 
-2.06081

>  <r_i_glide_ligand_efficiency>  (92) 
-0.0686935

>  <r_i_glide_ligand_efficiency_sa>  (92) 
-0.213447

>  <r_i_glide_ligand_efficiency_ln>  (92) 
-0.468237

>  <r_i_glide_gscore>  (92) 
-2.06081

>  <r_i_glide_lipo>  (92) 
-0.30454

>  <r_i_glide_hbond>  (92) 
0

>  <r_i_glide_metal>  (92) 
-0

>  <r_i_glide_rewards>  (92) 
-0.63623

>  <r_i_glide_evdw>  (92) 
-21.5885

>  <r_i_glide_ecoul>  (92) 
-0.270726

>  <r_i_glide_erotb>  (92) 
0

>  <r_i_glide_esite>  (92) 
0

>  <r_i_glide_emodel>  (92) 
-25.0914

>  <r_i_glide_energy>  (92) 
-21.8593

>  <r_i_glide_einternal>  (92) 
0

>  <r_i_glide_intrahb_reward>  (92) 
-0

>  <i_i_glide_confnum>  (92) 
1

>  <i_i_glide_posenum>  (92) 
18

>  <r_i_glide_eff_state_penalty>  (92) 
0

>  <ligand_id>  (92) 
33

>  <original_smiles>  (92) 
CC1=CC2CCC3(C)CCC45CC67CCC4C(C)(C)C6CCC7CC5C3C2(C)CC1

>  <smiles>  (92) 
[H]C1=C(C([H])([H])[H])C([H])([H])C([H])([H])C2(C([H])([H])[H])C1([H])C([H])([H])C([H])([H])C1(C([H])([H])[H])C([H])([H])C([H])([H])C34C([H])([H])C56C([H])([H])C([H])([H])C3([H])C(C([H])([H])[H])(C([H])([H])[H])C5([H])C([H])([H])C([H])([H])C6([H])C([H])([H])C4([H])C12[H]

$$$$
34:0:0
     RDKit          3D

 73 79  0  0  1  0  0  0  0  0999 V2000
    2.1557   -4.2162   -0.8373 C   0  0  0  0  0  0  0  0  0  0  0  0
    2.9621   -5.1169    0.0835 C   0  0  2  0  0  0  0  0  0  0  0  0
    2.1237   -6.1346    0.8964 C   0  0  0  0  0  0  0  0  0  0  0  0
    0.9287   -5.9507    1.0941 O   0  0  0  0  0  0  0  0  0  0  0  0
    2.8899   -7.1503    1.3471 O   0  0  0  0  0  0  0  0  0  0  0  0
    2.6030   -7.7849    2.5847 C   0  0  1  0  0  0  0  0  0  0  0  0
    1.1427   -8.3003    2.6843 C   0  0  0  0  0  0  0  0  0  0  0  0
    3.5258   -9.0456    2.6629 C   0  0  0  0  0  0  0  0  0  0  0  0
    5.0516   -8.7924    2.6872 C   0  0  0  0  0  0  0  0  0  0  0  0
    5.5486   -7.3722    2.3784 C   0  0  0  0  0  0  0  0  0  0  0  0
    5.1756   -6.3041    3.4428 C   0  0  2  0  0  0  0  0  0  0  0  0
    4.0093   -6.7556    4.3751 C   0  0  1  0  0  0  0  0  0  0  0  0
    3.7594   -5.8480    5.6113 C   0  0  0  0  0  0  0  0  0  0  0  0
    4.6602   -4.6247    5.7174 C   0  0  1  0  0  0  0  0  0  0  0  0
    6.0789   -4.7593    5.5124 O   0  0  0  0  0  0  0  0  0  0  0  0
    5.3208   -4.0706    4.5239 C   0  0  1  0  0  0  0  0  0  0  0  0
    5.1308   -4.7332    3.1442 C   0  0  1  0  0  0  0  0  0  0  0  0
    6.1082   -4.1156    2.0174 C   0  0  1  0  0  0  0  0  0  0  0  0
    7.3266   -4.9473    1.5878 C   0  0  0  0  0  0  0  0  0  0  0  0
    5.2153   -3.6129    0.7565 C   0  0  1  0  0  0  0  0  0  0  0  0
    4.0076   -4.4834    1.0362 C   0  0  1  0  0  0  0  0  0  0  0  0
    3.7921   -4.2802    2.5178 C   0  0  1  0  0  0  0  0  0  0  0  0
    2.5756   -3.4281    2.9471 C   0  0  1  0  0  0  0  0  0  0  0  0
    2.5323   -3.0868    4.3177 O   0  0  0  0  0  0  0  0  0  0  0  0
    2.4347   -2.1417    2.0687 C   0  0  1  0  0  0  0  0  0  0  0  0
    1.3267   -1.2254    2.6052 C   0  0  0  0  0  0  0  0  0  0  0  0
    3.7237   -1.3615    1.5677 C   0  0  1  0  0  0  0  0  0  0  0  0
    3.2186   -0.2423    0.8784 O   0  0  0  0  0  0  0  0  0  0  0  0
    4.5043   -0.7480    2.7009 C   0  0  0  0  0  0  0  0  0  0  0  0
    5.8195   -0.6780    2.4454 C   0  0  0  0  0  0  0  0  0  0  0  0
    6.0402   -1.2501    1.1169 C   0  0  0  0  0  0  0  0  0  0  0  0
    7.0740   -1.2009    0.4489 O   0  0  0  0  0  0  0  0  0  0  0  0
    4.8345   -2.0486    0.6250 C   0  0  1  0  0  0  0  0  0  0  0  0
    4.6309   -1.7121   -0.8907 C   0  0  0  0  0  0  0  0  0  0  0  0
    2.7636   -6.9022    3.6790 O   0  0  0  0  0  0  0  0  0  0  0  0
    1.4320   -4.7775   -1.4242 H   0  0  0  0  0  0  0  0  0  0  0  0
    2.8009   -3.6600   -1.5220 H   0  0  0  0  0  0  0  0  0  0  0  0
    1.5169   -3.4900   -0.3713 H   0  0  0  0  0  0  0  0  0  0  0  0
    3.5454   -5.7474   -0.5722 H   0  0  0  0  0  0  0  0  0  0  0  0
    0.4305   -7.5045    2.8945 H   0  0  0  0  0  0  0  0  0  0  0  0
    1.0723   -8.9927    3.5297 H   0  0  0  0  0  0  0  0  0  0  0  0
    0.8381   -8.8426    1.7885 H   0  0  0  0  0  0  0  0  0  0  0  0
    3.2400   -9.6569    3.5276 H   0  0  0  0  0  0  0  0  0  0  0  0
    3.3008   -9.6652    1.7910 H   0  0  0  0  0  0  0  0  0  0  0  0
    5.4639   -9.1308    3.6376 H   0  0  0  0  0  0  0  0  0  0  0  0
    5.5051   -9.4512    1.9513 H   0  0  0  0  0  0  0  0  0  0  0  0
    6.6365   -7.4432    2.3632 H   0  0  0  0  0  0  0  0  0  0  0  0
    5.3021   -7.1602    1.3497 H   0  0  0  0  0  0  0  0  0  0  0  0
    6.0478   -6.4504    4.0788 H   0  0  0  0  0  0  0  0  0  0  0  0
    4.2627   -7.7179    4.8253 H   0  0  0  0  0  0  0  0  0  0  0  0
    2.7272   -5.4758    5.6062 H   0  0  0  0  0  0  0  0  0  0  0  0
    3.8911   -6.4126    6.5341 H   0  0  0  0  0  0  0  0  0  0  0  0
    4.3954   -3.9201    6.5075 H   0  0  0  0  0  0  0  0  0  0  0  0
    5.5237   -2.9980    4.5192 H   0  0  0  0  0  0  0  0  0  0  0  0
    6.5734   -3.2505    2.4435 H   0  0  0  0  0  0  0  0  0  0  0  0
    7.0717   -5.7521    0.8997 H   0  0  0  0  0  0  0  0  0  0  0  0
    7.8428   -5.3589    2.4546 H   0  0  0  0  0  0  0  0  0  0  0  0
    8.0442   -4.3108    1.0710 H   0  0  0  0  0  0  0  0  0  0  0  0
    5.7088   -3.9542   -0.1470 H   0  0  0  0  0  0  0  0  0  0  0  0
    4.5629   -5.3955    1.0023 H   0  0  0  0  0  0  0  0  0  0  0  0
    4.2171   -3.3241    2.7284 H   0  0  0  0  0  0  0  0  0  0  0  0
    1.6752   -4.0299    2.7901 H   0  0  0  0  0  0  0  0  0  0  0  0
    3.2775   -2.5256    4.5179 H   0  0  0  0  0  0  0  0  0  0  0  0
    2.0175   -2.4789    1.1505 H   0  0  0  0  0  0  0  0  0  0  0  0
    1.6488   -0.6505    3.4688 H   0  0  0  0  0  0  0  0  0  0  0  0
    0.4600   -1.8200    2.9057 H   0  0  0  0  0  0  0  0  0  0  0  0
    0.9647   -0.5294    1.8505 H   0  0  0  0  0  0  0  0  0  0  0  0
    2.4772   -0.5085    0.3452 H   0  0  0  0  0  0  0  0  0  0  0  0
    4.0532   -0.3979    3.6043 H   0  0  0  0  0  0  0  0  0  0  0  0
    6.5823   -0.2905    3.1007 H   0  0  0  0  0  0  0  0  0  0  0  0
    3.5863   -1.7378   -1.1786 H   0  0  0  0  0  0  0  0  0  0  0  0
    5.1867   -2.3783   -1.5510 H   0  0  0  0  0  0  0  0  0  0  0  0
    4.9764   -0.7040   -1.1168 H   0  0  0  0  0  0  0  0  0  0  0  0
  1  2  1  0
  1 36  1  0
  1 37  1  0
  1 38  1  0
  2 21  1  0
  2  3  1  0
  2 39  1  6
  3  4  2  0
  3  5  1  0
  5  6  1  0
  6 35  1  0
  6  7  1  6
  6  8  1  0
  7 40  1  0
  7 41  1  0
  7 42  1  0
  8  9  1  0
  8 43  1  0
  8 44  1  0
  9 10  1  0
  9 45  1  0
  9 46  1  0
 10 11  1  0
 10 47  1  0
 10 48  1  0
 11 17  1  0
 11 12  1  0
 11 49  1  1
 12 13  1  0
 12 35  1  0
 12 50  1  1
 13 14  1  0
 13 51  1  0
 13 52  1  0
 14 16  1  0
 14 15  1  0
 14 53  1  1
 15 16  1  0
 16 17  1  0
 16 54  1  6
 17 22  1  0
 17 18  1  6
 18 19  1  0
 18 20  1  0
 18 55  1  1
 19 56  1  0
 19 57  1  0
 19 58  1  0
 20 33  1  0
 20 21  1  0
 20 59  1  6
 21 22  1  0
 21 60  1  1
 22 23  1  0
 22 61  1  1
 23 24  1  0
 23 25  1  0
 23 62  1  6
 24 63  1  0
 25 26  1  0
 25 27  1  0
 25 64  1  6
 26 65  1  0
 26 66  1  0
 26 67  1  0
 27 33  1  0
 27 28  1  6
 27 29  1  0
 28 68  1  0
 29 30  2  0
 29 69  1  0
 30 31  1  0
 30 70  1  0
 31 32  2  0
 31 33  1  0
 33 34  1  6
 34 71  1  0
 34 72  1  0
 34 73  1  0
M  END
>  <i_m_ct_stereo_status>  (93) 
1

>  <s_m_source_file>  (93) 
/var/tmp/pbs.5076255.sched01/tmpdonsa7tf/408ubvndgu.sdf

>  <i_m_source_file_index>  (93) 
5

>  <i_lp_mmshare_version>  (93) 
48012

>  <i_f3d_flags>  (93) 
0

>  <s_epik_input>  (93) 
Tz1DMVtDSF09W0NIXVtDQF0oW09IXSkoW0NASF0oW0NIM10pW0NAQEhdKFtDQEBIXTIzKVtPSF0pW0NAXTEoW0NIM10pW0NAQEhdKFtDQEBIXTRbQ0gzXSlbQ0BASF0zW0NASF0oW0NIM10pQyg9TylPW0NAQF0oW0NIM10pKFtDSDJdW0NIMl1bQ0gyXTUpT1tDQEBIXShbQ0hdNVtDQF0yNDYpW0NIMl1bQ0BASF03W0NASF02Tzc=

>  <s_epik_cmdline>  (93) 
J2VwaWtfcHl0aG9uJywgJy1waHQnLCAnMi4wJywgJy1waCcsICc3LjAnLCAnLXRuJywgJzgnLCAnLW1hJywgJzIwMCcsICctaW1hZScsICc8aW5maWxlLm1hZT4nLCAnLW9tYWUnLCAnPG91dGZpbGUubWFlPic=

>  <r_lp_tautomer_probability>  (93) 
1

>  <r_epik_Ionization_Penalty>  (93) 
1.88439e-07

>  <r_epik_Ionization_Penalty_Charging>  (93) 
0

>  <r_epik_Ionization_Penalty_Neutral>  (93) 
1.88439e-07

>  <r_epik_State_Penalty>  (93) 
-0

>  <r_epik_Charging_Adjusted_Penalty>  (93) 
0

>  <i_epik_Tot_Q>  (93) 
0

>  <i_epik_Tot_abs_Q>  (93) 
0

>  <s_epik_Chemistry_Notes>  (93) 
This compound has an ester and may undergo hydrolysis at high or low pH.

>  <s_lp_Force_Field>  (93) 
OPLS3e

>  <r_lp_Energy>  (93) 
179.111

>  <b_lp_Chiralities_Consistent>  (93) 
1

>  <s_lp_Variant>  (93) 
34:0-1

>  <s_i_glide_gridfile>  (93) 
pfpi4k_grid

>  <i_i_glide_lignum>  (93) 
5

>  <i_i_glide_rotatable_bonds>  (93) 
2

>  <r_i_docking_score>  (93) 
-3.32566

>  <r_i_glide_ligand_efficiency>  (93) 
-0.0950189

>  <r_i_glide_ligand_efficiency_sa>  (93) 
-0.310813

>  <r_i_glide_ligand_efficiency_ln>  (93) 
-0.730057

>  <r_i_glide_gscore>  (93) 
-3.32566

>  <r_i_glide_lipo>  (93) 
-0.369354

>  <r_i_glide_hbond>  (93) 
-0.299886

>  <r_i_glide_metal>  (93) 
-0

>  <r_i_glide_rewards>  (93) 
-0.318096

>  <r_i_glide_evdw>  (93) 
-24.173

>  <r_i_glide_ecoul>  (93) 
-7.26523

>  <r_i_glide_erotb>  (93) 
0

>  <r_i_glide_esite>  (93) 
-0.0398901

>  <r_i_glide_emodel>  (93) 
-38.5896

>  <r_i_glide_energy>  (93) 
-31.4383

>  <r_i_glide_einternal>  (93) 
0.373938

>  <r_i_glide_intrahb_reward>  (93) 
-0

>  <i_i_glide_confnum>  (93) 
2

>  <i_i_glide_posenum>  (93) 
11

>  <r_i_glide_eff_state_penalty>  (93) 
0

>  <ligand_id>  (93) 
34

>  <original_smiles>  (93) 
CC1C(=O)OC2(C)CCCC3C(CC4OC4C34C(C)C3C1C4C(O)C(C)C1(O)C=CC(=O)C31C)O2

>  <smiles>  (93) 
[H]OC1([H])C([H])(C([H])([H])[H])C2(O[H])C([H])=C([H])C(=O)C2(C([H])([H])[H])C2([H])C3([H])C([H])(C([H])([H])[H])C(=O)OC4(C([H])([H])[H])OC5([H])C([H])([H])C6([H])OC6([H])C(C5([H])C([H])([H])C([H])([H])C4([H])[H])(C2([H])C([H])([H])[H])C13[H]

$$$$
34:0:1
     RDKit          3D

 73 79  0  0  1  0  0  0  0  0999 V2000
    2.1633   -4.2253   -0.7998 C   0  0  0  0  0  0  0  0  0  0  0  0
    2.9945   -5.1408    0.0926 C   0  0  2  0  0  0  0  0  0  0  0  0
    2.1590   -6.1574    0.8960 C   0  0  0  0  0  0  0  0  0  0  0  0
    0.9705   -5.9551    1.1219 O   0  0  0  0  0  0  0  0  0  0  0  0
    2.9224   -7.2004    1.3152 O   0  0  0  0  0  0  0  0  0  0  0  0
    2.6704   -7.8404    2.5529 C   0  0  1  0  0  0  0  0  0  0  0  0
    1.2087   -8.3568    2.6762 C   0  0  0  0  0  0  0  0  0  0  0  0
    3.6006   -9.1036    2.5995 C   0  0  0  0  0  0  0  0  0  0  0  0
    5.1316   -8.8591    2.6053 C   0  0  0  0  0  0  0  0  0  0  0  0
    5.6307   -7.4358    2.3232 C   0  0  0  0  0  0  0  0  0  0  0  0
    5.2660   -6.3797    3.4124 C   0  0  2  0  0  0  0  0  0  0  0  0
    4.1019   -6.8363    4.3397 C   0  0  1  0  0  0  0  0  0  0  0  0
    3.8813   -5.9411    5.6018 C   0  0  0  0  0  0  0  0  0  0  0  0
    4.7773   -4.7176    5.7261 C   0  0  1  0  0  0  0  0  0  0  0  0
    6.1983   -4.8523    5.5088 O   0  0  0  0  0  0  0  0  0  0  0  0
    5.4198   -4.1510    4.5226 C   0  0  1  0  0  0  0  0  0  0  0  0
    5.2135   -4.8040    3.1429 C   0  0  1  0  0  0  0  0  0  0  0  0
    6.1740   -4.1661    2.0135 C   0  0  1  0  0  0  0  0  0  0  0  0
    7.3993   -4.9880    1.5543 C   0  0  0  0  0  0  0  0  0  0  0  0
    5.2773   -3.6431    0.7683 C   0  0  1  0  0  0  0  0  0  0  0  0
    4.0620   -4.5278    1.0352 C   0  0  1  0  0  0  0  0  0  0  0  0
    3.8647   -4.3400    2.5272 C   0  0  1  0  0  0  0  0  0  0  0  0
    2.6618   -3.4770    2.9732 C   0  0  1  0  0  0  0  0  0  0  0  0
    2.6678   -3.1267    4.3425 O   0  0  0  0  0  0  0  0  0  0  0  0
    2.5169   -2.1746    2.1022 C   0  0  1  0  0  0  0  0  0  0  0  0
    1.4072   -1.2687    2.6748 C   0  0  0  0  0  0  0  0  0  0  0  0
    3.8061   -1.3894    1.6030 C   0  0  1  0  0  0  0  0  0  0  0  0
    3.2948   -0.2602    0.9141 O   0  0  0  0  0  0  0  0  0  0  0  0
    4.6125   -0.7948    2.7349 C   0  0  0  0  0  0  0  0  0  0  0  0
    5.9142   -0.6925    2.4545 C   0  0  0  0  0  0  0  0  0  0  0  0
    6.1464   -1.2690    1.1243 C   0  0  0  0  0  0  0  0  0  0  0  0
    7.1737   -1.2134    0.4663 O   0  0  0  0  0  0  0  0  0  0  0  0
    4.9205   -2.0689    0.6458 C   0  0  1  0  0  0  0  0  0  0  0  0
    4.6940   -1.7251   -0.8566 C   0  0  0  0  0  0  0  0  0  0  0  0
    2.8449   -6.9715    3.6589 O   0  0  0  0  0  0  0  0  0  0  0  0
    1.5213   -4.7931   -1.4593 H   0  0  0  0  0  0  0  0  0  0  0  0
    2.7964   -3.6280   -1.4498 H   0  0  0  0  0  0  0  0  0  0  0  0
    1.4618   -3.5683   -0.3306 H   0  0  0  0  0  0  0  0  0  0  0  0
    3.5608   -5.7582   -0.6028 H   0  0  0  0  0  0  0  0  0  0  0  0
    0.5105   -7.5524    2.9061 H   0  0  0  0  0  0  0  0  0  0  0  0
    1.1416   -9.0593    3.5117 H   0  0  0  0  0  0  0  0  0  0  0  0
    0.8920   -8.8782    1.7724 H   0  0  0  0  0  0  0  0  0  0  0  0
    3.3304   -9.7230    3.4559 H   0  0  0  0  0  0  0  0  0  0  0  0
    3.3602   -9.7057    1.7200 H   0  0  0  0  0  0  0  0  0  0  0  0
    5.5496   -9.2111    3.5486 H   0  0  0  0  0  0  0  0  0  0  0  0
    5.5722   -9.5141    1.8535 H   0  0  0  0  0  0  0  0  0  0  0  0
    6.7173   -7.5065    2.2875 H   0  0  0  0  0  0  0  0  0  0  0  0
    5.3618   -7.2047    1.3057 H   0  0  0  0  0  0  0  0  0  0  0  0
    6.1405   -6.5391    4.0402 H   0  0  0  0  0  0  0  0  0  0  0  0
    4.3430   -7.8071    4.7701 H   0  0  0  0  0  0  0  0  0  0  0  0
    2.8528   -5.5762    5.6128 H   0  0  0  0  0  0  0  0  0  0  0  0
    4.0094   -6.5314    6.5090 H   0  0  0  0  0  0  0  0  0  0  0  0
    4.5254   -4.0264    6.5306 H   0  0  0  0  0  0  0  0  0  0  0  0
    5.6259   -3.0815    4.5222 H   0  0  0  0  0  0  0  0  0  0  0  0
    6.6034   -3.3028    2.4830 H   0  0  0  0  0  0  0  0  0  0  0  0
    7.1380   -5.7807    0.8591 H   0  0  0  0  0  0  0  0  0  0  0  0
    7.9289   -5.4248    2.4010 H   0  0  0  0  0  0  0  0  0  0  0  0
    8.1083   -4.3467    1.0315 H   0  0  0  0  0  0  0  0  0  0  0  0
    5.7594   -3.9799   -0.1490 H   0  0  0  0  0  0  0  0  0  0  0  0
    4.6135   -5.4445    0.9753 H   0  0  0  0  0  0  0  0  0  0  0  0
    4.2843   -3.3815    2.7495 H   0  0  0  0  0  0  0  0  0  0  0  0
    1.7610   -4.0736    2.8365 H   0  0  0  0  0  0  0  0  0  0  0  0
    1.8707   -2.6475    4.5203 H   0  0  0  0  0  0  0  0  0  0  0  0
    2.0926   -2.5040    1.1788 H   0  0  0  0  0  0  0  0  0  0  0  0
    1.7432   -0.7091    3.5458 H   0  0  0  0  0  0  0  0  0  0  0  0
    0.5427   -1.8681    2.9640 H   0  0  0  0  0  0  0  0  0  0  0  0
    1.0401   -0.5547    1.9365 H   0  0  0  0  0  0  0  0  0  0  0  0
    2.5319   -0.5222    0.4118 H   0  0  0  0  0  0  0  0  0  0  0  0
    4.1799   -0.4971    3.6733 H   0  0  0  0  0  0  0  0  0  0  0  0
    6.6902   -0.2866    3.0812 H   0  0  0  0  0  0  0  0  0  0  0  0
    3.6443   -1.7441   -1.1279 H   0  0  0  0  0  0  0  0  0  0  0  0
    5.2322   -2.3853   -1.5306 H   0  0  0  0  0  0  0  0  0  0  0  0
    5.0256   -0.7152   -1.0870 H   0  0  0  0  0  0  0  0  0  0  0  0
  1  2  1  0
  1 36  1  0
  1 37  1  0
  1 38  1  0
  2 21  1  0
  2  3  1  0
  2 39  1  6
  3  4  2  0
  3  5  1  0
  5  6  1  0
  6 35  1  0
  6  7  1  6
  6  8  1  0
  7 40  1  0
  7 41  1  0
  7 42  1  0
  8  9  1  0
  8 43  1  0
  8 44  1  0
  9 10  1  0
  9 45  1  0
  9 46  1  0
 10 11  1  0
 10 47  1  0
 10 48  1  0
 11 17  1  0
 11 12  1  0
 11 49  1  1
 12 13  1  0
 12 35  1  0
 12 50  1  1
 13 14  1  0
 13 51  1  0
 13 52  1  0
 14 16  1  0
 14 15  1  0
 14 53  1  1
 15 16  1  0
 16 17  1  0
 16 54  1  6
 17 22  1  0
 17 18  1  6
 18 19  1  0
 18 20  1  0
 18 55  1  1
 19 56  1  0
 19 57  1  0
 19 58  1  0
 20 33  1  0
 20 21  1  0
 20 59  1  6
 21 22  1  0
 21 60  1  1
 22 23  1  0
 22 61  1  1
 23 24  1  0
 23 25  1  0
 23 62  1  1
 24 63  1  0
 25 26  1  0
 25 27  1  0
 25 64  1  6
 26 65  1  0
 26 66  1  0
 26 67  1  0
 27 33  1  0
 27 28  1  6
 27 29  1  0
 28 68  1  0
 29 30  2  0
 29 69  1  0
 30 31  1  0
 30 70  1  0
 31 32  2  0
 31 33  1  0
 33 34  1  6
 34 71  1  0
 34 72  1  0
 34 73  1  0
M  END
>  <i_m_ct_stereo_status>  (94) 
1

>  <s_m_source_file>  (94) 
/var/tmp/pbs.5076255.sched01/tmpdonsa7tf/408ubvndgu.sdf

>  <i_m_source_file_index>  (94) 
5

>  <i_lp_mmshare_version>  (94) 
48012

>  <i_f3d_flags>  (94) 
0

>  <s_epik_input>  (94) 
Tz1DMVtDSF09W0NIXVtDQF0oW09IXSkoW0NASF0oW0NIM10pW0NAQEhdKFtDQEBIXTIzKVtPSF0pW0NAXTEoW0NIM10pW0NAQEhdKFtDQEBIXTRbQ0gzXSlbQ0BASF0zW0NASF0oW0NIM10pQyg9TylPW0NAQF0oW0NIM10pKFtDSDJdW0NIMl1bQ0gyXTUpT1tDQEBIXShbQ0hdNVtDQF0yNDYpW0NIMl1bQ0BASF03W0NASF02Tzc=

>  <s_epik_cmdline>  (94) 
J2VwaWtfcHl0aG9uJywgJy1waHQnLCAnMi4wJywgJy1waCcsICc3LjAnLCAnLXRuJywgJzgnLCAnLW1hJywgJzIwMCcsICctaW1hZScsICc8aW5maWxlLm1hZT4nLCAnLW9tYWUnLCAnPG91dGZpbGUubWFlPic=

>  <r_lp_tautomer_probability>  (94) 
1

>  <r_epik_Ionization_Penalty>  (94) 
1.88439e-07

>  <r_epik_Ionization_Penalty_Charging>  (94) 
0

>  <r_epik_Ionization_Penalty_Neutral>  (94) 
1.88439e-07

>  <r_epik_State_Penalty>  (94) 
-0

>  <r_epik_Charging_Adjusted_Penalty>  (94) 
0

>  <i_epik_Tot_Q>  (94) 
0

>  <i_epik_Tot_abs_Q>  (94) 
0

>  <s_epik_Chemistry_Notes>  (94) 
This compound has an ester and may undergo hydrolysis at high or low pH.

>  <s_lp_Force_Field>  (94) 
OPLS3e

>  <r_lp_Energy>  (94) 
179.111

>  <b_lp_Chiralities_Consistent>  (94) 
1

>  <s_lp_Variant>  (94) 
34:0-1

>  <s_i_glide_gridfile>  (94) 
pfpi4k_grid

>  <i_i_glide_lignum>  (94) 
5

>  <i_i_glide_rotatable_bonds>  (94) 
2

>  <r_i_docking_score>  (94) 
-3.31376

>  <r_i_glide_ligand_efficiency>  (94) 
-0.0946788

>  <r_i_glide_ligand_efficiency_sa>  (94) 
-0.309701

>  <r_i_glide_ligand_efficiency_ln>  (94) 
-0.727444

>  <r_i_glide_gscore>  (94) 
-3.31376

>  <r_i_glide_lipo>  (94) 
-0.389394

>  <r_i_glide_hbond>  (94) 
-0.270205

>  <r_i_glide_metal>  (94) 
-0

>  <r_i_glide_rewards>  (94) 
-0.320735

>  <r_i_glide_evdw>  (94) 
-23.7424

>  <r_i_glide_ecoul>  (94) 
-7.38778

>  <r_i_glide_erotb>  (94) 
0

>  <r_i_glide_esite>  (94) 
-0.0381367

>  <r_i_glide_emodel>  (94) 
-38.2792

>  <r_i_glide_energy>  (94) 
-31.1302

>  <r_i_glide_einternal>  (94) 
0.740139

>  <r_i_glide_intrahb_reward>  (94) 
-0

>  <i_i_glide_confnum>  (94) 
1

>  <i_i_glide_posenum>  (94) 
28

>  <r_i_glide_eff_state_penalty>  (94) 
0

>  <ligand_id>  (94) 
34

>  <original_smiles>  (94) 
CC1C(=O)OC2(C)CCCC3C(CC4OC4C34C(C)C3C1C4C(O)C(C)C1(O)C=CC(=O)C31C)O2

>  <smiles>  (94) 
[H]OC1([H])C([H])(C([H])([H])[H])C2(O[H])C([H])=C([H])C(=O)C2(C([H])([H])[H])C2([H])C3([H])C([H])(C([H])([H])[H])C(=O)OC4(C([H])([H])[H])OC5([H])C([H])([H])C6([H])OC6([H])C(C5([H])C([H])([H])C([H])([H])C4([H])[H])(C2([H])C([H])([H])[H])C13[H]

$$$$
34:0:2
     RDKit          3D

 73 79  0  0  1  0  0  0  0  0999 V2000
   -1.8086    1.8005    7.8305 C   0  0  0  0  0  0  0  0  0  0  0  0
   -0.5925    2.7396    7.9023 C   0  0  2  0  0  0  0  0  0  0  0  0
   -0.9983    4.1824    8.2731 C   0  0  0  0  0  0  0  0  0  0  0  0
   -2.1430    4.5875    8.0830 O   0  0  0  0  0  0  0  0  0  0  0  0
    0.0756    4.8748    8.7626 O   0  0  0  0  0  0  0  0  0  0  0  0
    0.2382    6.2590    8.5222 C   0  0  1  0  0  0  0  0  0  0  0  0
   -0.9960    7.0833    8.9761 C   0  0  0  0  0  0  0  0  0  0  0  0
    1.4521    6.7232    9.4005 C   0  0  0  0  0  0  0  0  0  0  0  0
    2.8512    6.1371    9.0711 C   0  0  0  0  0  0  0  0  0  0  0  0
    2.9179    4.9668    8.0826 C   0  0  0  0  0  0  0  0  0  0  0  0
    2.5116    5.3140    6.6164 C   0  0  2  0  0  0  0  0  0  0  0  0
    1.6786    6.6246    6.5068 C   0  0  1  0  0  0  0  0  0  0  0  0
    1.4906    7.1437    5.0472 C   0  0  0  0  0  0  0  0  0  0  0  0
    2.0590    6.2835    3.9266 C   0  0  1  0  0  0  0  0  0  0  0  0
    3.4123    5.7890    4.0456 O   0  0  0  0  0  0  0  0  0  0  0  0
    2.3396    4.8356    4.1622 C   0  0  1  0  0  0  0  0  0  0  0  0
    2.0313    4.2258    5.5421 C   0  0  1  0  0  0  0  0  0  0  0  0
    2.5820    2.7100    5.6409 C   0  0  1  0  0  0  0  0  0  0  0  0
    3.8523    2.4577    6.4767 C   0  0  0  0  0  0  0  0  0  0  0  0
    1.3565    1.7355    6.0800 C   0  0  1  0  0  0  0  0  0  0  0  0
    0.4555    2.7961    6.7291 C   0  0  1  0  0  0  0  0  0  0  0  0
    0.5077    3.8976    5.6779 C   0  0  1  0  0  0  0  0  0  0  0  0
   -0.7689    4.0982    4.8246 C   0  0  1  0  0  0  0  0  0  0  0  0
   -0.6485    4.9931    3.7252 O   0  0  0  0  0  0  0  0  0  0  0  0
   -1.4018    2.7276    4.3733 C   0  0  1  0  0  0  0  0  0  0  0  0
   -2.5738    2.9909    3.3960 C   0  0  0  0  0  0  0  0  0  0  0  0
   -0.4487    1.5317    3.9340 C   0  0  1  0  0  0  0  0  0  0  0  0
   -1.3584    0.5253    3.5278 O   0  0  0  0  0  0  0  0  0  0  0  0
    0.3957    1.8195    2.7097 C   0  0  0  0  0  0  0  0  0  0  0  0
    1.5532    1.1506    2.6902 C   0  0  0  0  0  0  0  0  0  0  0  0
    1.6577    0.3824    3.9285 C   0  0  0  0  0  0  0  0  0  0  0  0
    2.4891   -0.4940    4.1770 O   0  0  0  0  0  0  0  0  0  0  0  0
    0.6072    0.8491    4.9547 C   0  0  1  0  0  0  0  0  0  0  0  0
    0.0119   -0.4230    5.6286 C   0  0  0  0  0  0  0  0  0  0  0  0
    0.3939    6.5577    7.1466 O   0  0  0  0  0  0  0  0  0  0  0  0
   -2.2721    1.7443    8.8182 H   0  0  0  0  0  0  0  0  0  0  0  0
   -1.4944    0.7928    7.5889 H   0  0  0  0  0  0  0  0  0  0  0  0
   -2.6009    2.1241    7.1590 H   0  0  0  0  0  0  0  0  0  0  0  0
   -0.0494    2.3792    8.7770 H   0  0  0  0  0  0  0  0  0  0  0  0
   -1.8196    7.0060    8.2668 H   0  0  0  0  0  0  0  0  0  0  0  0
   -0.7276    8.1391    9.0221 H   0  0  0  0  0  0  0  0  0  0  0  0
   -1.3337    6.7776    9.9675 H   0  0  0  0  0  0  0  0  0  0  0  0
    1.5093    7.8106    9.3875 H   0  0  0  0  0  0  0  0  0  0  0  0
    1.2120    6.4624   10.4318 H   0  0  0  0  0  0  0  0  0  0  0  0
    3.5105    6.9389    8.7352 H   0  0  0  0  0  0  0  0  0  0  0  0
    3.2972    5.7996   10.0073 H   0  0  0  0  0  0  0  0  0  0  0  0
    3.9619    4.6515    8.0693 H   0  0  0  0  0  0  0  0  0  0  0  0
    2.4103    4.1360    8.5494 H   0  0  0  0  0  0  0  0  0  0  0  0
    3.4994    5.6293    6.2828 H   0  0  0  0  0  0  0  0  0  0  0  0
    2.2236    7.4352    6.9876 H   0  0  0  0  0  0  0  0  0  0  0  0
    0.4250    7.2613    4.8428 H   0  0  0  0  0  0  0  0  0  0  0  0
    1.9143    8.1439    4.9502 H   0  0  0  0  0  0  0  0  0  0  0  0
    1.7811    6.5759    2.9161 H   0  0  0  0  0  0  0  0  0  0  0  0
    2.2607    4.1759    3.3019 H   0  0  0  0  0  0  0  0  0  0  0  0
    2.9249    2.4619    4.6408 H   0  0  0  0  0  0  0  0  0  0  0  0
    3.6533    2.4561    7.5471 H   0  0  0  0  0  0  0  0  0  0  0  0
    4.6217    3.1967    6.2590 H   0  0  0  0  0  0  0  0  0  0  0  0
    4.2696    1.4778    6.2438 H   0  0  0  0  0  0  0  0  0  0  0  0
    1.7239    1.0678    6.8610 H   0  0  0  0  0  0  0  0  0  0  0  0
    1.1969    3.1001    7.4402 H   0  0  0  0  0  0  0  0  0  0  0  0
    0.7083    3.4057    4.7487 H   0  0  0  0  0  0  0  0  0  0  0  0
   -1.4922    4.5778    5.4791 H   0  0  0  0  0  0  0  0  0  0  0  0
   -0.1868    4.5697    3.0075 H   0  0  0  0  0  0  0  0  0  0  0  0
   -1.8920    2.3425    5.2549 H   0  0  0  0  0  0  0  0  0  0  0  0
   -2.2277    3.2585    2.3976 H   0  0  0  0  0  0  0  0  0  0  0  0
   -3.1922    3.8057    3.7545 H   0  0  0  0  0  0  0  0  0  0  0  0
   -3.2455    2.1414    3.3205 H   0  0  0  0  0  0  0  0  0  0  0  0
   -1.9925    0.9259    2.9494 H   0  0  0  0  0  0  0  0  0  0  0  0
    0.0768    2.5028    1.9366 H   0  0  0  0  0  0  0  0  0  0  0  0
    2.3101    1.1716    1.9185 H   0  0  0  0  0  0  0  0  0  0  0  0
   -1.0304   -0.3032    5.9007 H   0  0  0  0  0  0  0  0  0  0  0  0
    0.5597   -0.7320    6.5175 H   0  0  0  0  0  0  0  0  0  0  0  0
    0.0280   -1.2813    4.9566 H   0  0  0  0  0  0  0  0  0  0  0  0
  1  2  1  0
  1 36  1  0
  1 37  1  0
  1 38  1  0
  2 21  1  0
  2  3  1  0
  2 39  1  1
  3  4  2  0
  3  5  1  0
  5  6  1  0
  6 35  1  0
  6  7  1  1
  6  8  1  0
  7 40  1  0
  7 41  1  0
  7 42  1  0
  8  9  1  0
  8 43  1  0
  8 44  1  0
  9 10  1  0
  9 45  1  0
  9 46  1  0
 10 11  1  0
 10 47  1  0
 10 48  1  0
 11 17  1  0
 11 12  1  0
 11 49  1  6
 12 13  1  0
 12 35  1  0
 12 50  1  1
 13 14  1  0
 13 51  1  0
 13 52  1  0
 14 16  1  0
 14 15  1  0
 14 53  1  6
 15 16  1  0
 16 17  1  0
 16 54  1  6
 17 22  1  0
 17 18  1  1
 18 19  1  0
 18 20  1  0
 18 55  1  6
 19 56  1  0
 19 57  1  0
 19 58  1  0
 20 33  1  0
 20 21  1  0
 20 59  1  1
 21 22  1  0
 21 60  1  1
 22 23  1  0
 22 61  1  1
 23 24  1  0
 23 25  1  0
 23 62  1  1
 24 63  1  0
 25 26  1  0
 25 27  1  0
 25 64  1  1
 26 65  1  0
 26 66  1  0
 26 67  1  0
 27 33  1  0
 27 28  1  6
 27 29  1  0
 28 68  1  0
 29 30  2  0
 29 69  1  0
 30 31  1  0
 30 70  1  0
 31 32  2  0
 31 33  1  0
 33 34  1  1
 34 71  1  0
 34 72  1  0
 34 73  1  0
M  END
>  <i_m_ct_stereo_status>  (95) 
1

>  <s_m_source_file>  (95) 
/var/tmp/pbs.5076255.sched01/tmpdonsa7tf/408ubvndgu.sdf

>  <i_m_source_file_index>  (95) 
5

>  <i_lp_mmshare_version>  (95) 
48012

>  <i_f3d_flags>  (95) 
0

>  <s_epik_input>  (95) 
Tz1DMVtDSF09W0NIXVtDQF0oW09IXSkoW0NASF0oW0NIM10pW0NAQEhdKFtDQEBIXTIzKVtPSF0pW0NAXTEoW0NIM10pW0NAQEhdKFtDQEBIXTRbQ0gzXSlbQ0BASF0zW0NASF0oW0NIM10pQyg9TylPW0NAQF0oW0NIM10pKFtDSDJdW0NIMl1bQ0gyXTUpT1tDQEBIXShbQ0hdNVtDQF0yNDYpW0NIMl1bQ0BASF03W0NASF02Tzc=

>  <s_epik_cmdline>  (95) 
J2VwaWtfcHl0aG9uJywgJy1waHQnLCAnMi4wJywgJy1waCcsICc3LjAnLCAnLXRuJywgJzgnLCAnLW1hJywgJzIwMCcsICctaW1hZScsICc8aW5maWxlLm1hZT4nLCAnLW9tYWUnLCAnPG91dGZpbGUubWFlPic=

>  <r_lp_tautomer_probability>  (95) 
1

>  <r_epik_Ionization_Penalty>  (95) 
1.88439e-07

>  <r_epik_Ionization_Penalty_Charging>  (95) 
0

>  <r_epik_Ionization_Penalty_Neutral>  (95) 
1.88439e-07

>  <r_epik_State_Penalty>  (95) 
-0

>  <r_epik_Charging_Adjusted_Penalty>  (95) 
0

>  <i_epik_Tot_Q>  (95) 
0

>  <i_epik_Tot_abs_Q>  (95) 
0

>  <s_epik_Chemistry_Notes>  (95) 
This compound has an ester and may undergo hydrolysis at high or low pH.

>  <s_lp_Force_Field>  (95) 
OPLS3e

>  <r_lp_Energy>  (95) 
179.111

>  <b_lp_Chiralities_Consistent>  (95) 
1

>  <s_lp_Variant>  (95) 
34:0-1

>  <s_i_glide_gridfile>  (95) 
pfpi4k_grid

>  <i_i_glide_lignum>  (95) 
5

>  <i_i_glide_rotatable_bonds>  (95) 
2

>  <r_i_docking_score>  (95) 
-2.58564

>  <r_i_glide_ligand_efficiency>  (95) 
-0.0738753

>  <r_i_glide_ligand_efficiency_sa>  (95) 
-0.241651

>  <r_i_glide_ligand_efficiency_ln>  (95) 
-0.567604

>  <r_i_glide_gscore>  (95) 
-2.58564

>  <r_i_glide_lipo>  (95) 
0

>  <r_i_glide_hbond>  (95) 
-0.240803

>  <r_i_glide_metal>  (95) 
-0

>  <r_i_glide_rewards>  (95) 
-0.0913833

>  <r_i_glide_evdw>  (95) 
-26.4893

>  <r_i_glide_ecoul>  (95) 
-6.16081

>  <r_i_glide_erotb>  (95) 
0

>  <r_i_glide_esite>  (95) 
-0.00486432

>  <r_i_glide_emodel>  (95) 
-38.4154

>  <r_i_glide_energy>  (95) 
-32.6501

>  <r_i_glide_einternal>  (95) 
0.194103

>  <r_i_glide_intrahb_reward>  (95) 
-0

>  <i_i_glide_confnum>  (95) 
2

>  <i_i_glide_posenum>  (95) 
37

>  <r_i_glide_eff_state_penalty>  (95) 
0

>  <ligand_id>  (95) 
34

>  <original_smiles>  (95) 
CC1C(=O)OC2(C)CCCC3C(CC4OC4C34C(C)C3C1C4C(O)C(C)C1(O)C=CC(=O)C31C)O2

>  <smiles>  (95) 
[H]OC1([H])C([H])(C([H])([H])[H])C2(O[H])C([H])=C([H])C(=O)C2(C([H])([H])[H])C2([H])C3([H])C([H])(C([H])([H])[H])C(=O)OC4(C([H])([H])[H])OC5([H])C([H])([H])C6([H])OC6([H])C(C5([H])C([H])([H])C([H])([H])C4([H])[H])(C2([H])C([H])([H])[H])C13[H]

$$$$
35:0:0
     RDKit          3D

 64 68  0  0  1  0  0  0  0  0999 V2000
    3.9364   -1.3063   -2.0985 C   0  0  0  0  0  0  0  0  0  0  0  0
    4.7013   -2.4639   -1.4054 C   0  0  0  0  0  0  0  0  0  0  0  0
    4.6457   -3.6362   -2.4184 C   0  0  0  0  0  0  0  0  0  0  0  0
    6.1686   -1.9541   -1.2957 C   0  0  0  0  0  0  0  0  0  0  0  0
    7.0625   -2.5656   -0.2136 C   0  0  0  0  0  0  0  0  0  0  0  0
    6.4550   -2.5483    1.1980 C   0  0  0  0  0  0  0  0  0  0  0  0
    4.9228   -2.3048    1.2847 C   0  0  2  0  0  0  0  0  0  0  0  0
    4.7513   -0.7582    1.4664 C   0  0  0  0  0  0  0  0  0  0  0  0
    4.3049   -2.9707    2.5306 C   0  0  2  0  0  0  0  0  0  0  0  0
    4.5005   -2.6855    4.0611 C   0  0  0  0  0  0  0  0  0  0  0  0
    3.6683   -3.8530    4.7847 C   0  0  0  0  0  0  0  0  0  0  0  0
    2.8761   -4.4543    3.5899 C   0  0  2  0  0  0  0  0  0  0  0  0
    1.6551   -3.4370    3.5054 C   0  0  0  0  0  0  0  0  0  0  0  0
    2.2671   -5.8435    3.3054 C   0  0  1  0  0  0  0  0  0  0  0  0
    0.9634   -6.3903    3.8648 C   0  0  0  0  0  0  0  0  0  0  0  0
    0.5344   -6.1782    4.9969 O   0  0  0  0  0  0  0  0  0  0  0  0
    0.3812   -7.1315    2.8888 O   0  0  0  0  0  0  0  0  0  0  0  0
    1.1002   -7.1380    1.6493 C   0  0  0  0  0  0  0  0  0  0  0  0
    1.8989   -5.8393    1.7769 C   0  0  2  0  0  0  0  0  0  0  0  0
    3.0523   -5.4279    0.7505 C   0  0  1  0  0  0  0  0  0  0  0  0
    2.9272   -3.9650    0.0899 C   0  0  0  0  0  0  0  0  0  0  0  0
    4.0430   -2.7772    0.0108 C   0  0  2  0  0  0  0  0  0  0  0  0
    4.3503   -5.5627    1.4998 C   0  0  0  0  0  0  0  0  0  0  0  0
    4.6153   -7.0249    2.0408 C   0  0  0  0  0  0  0  0  0  0  0  0
    5.5664   -5.4722    0.5606 C   0  0  0  0  0  0  0  0  0  0  0  0
    4.1750   -4.4796    2.6527 C   0  0  1  0  0  0  0  0  0  0  0  0
    4.3689   -1.0613   -3.0714 H   0  0  0  0  0  0  0  0  0  0  0  0
    3.9768   -0.3965   -1.4964 H   0  0  0  0  0  0  0  0  0  0  0  0
    2.8832   -1.5478   -2.2559 H   0  0  0  0  0  0  0  0  0  0  0  0
    5.0399   -4.5735   -2.0382 H   0  0  0  0  0  0  0  0  0  0  0  0
    5.1979   -3.4078   -3.3298 H   0  0  0  0  0  0  0  0  0  0  0  0
    3.6256   -3.8295   -2.7468 H   0  0  0  0  0  0  0  0  0  0  0  0
    6.6753   -2.0905   -2.2498 H   0  0  0  0  0  0  0  0  0  0  0  0
    6.1700   -0.8795   -1.1399 H   0  0  0  0  0  0  0  0  0  0  0  0
    7.3641   -3.5665   -0.5128 H   0  0  0  0  0  0  0  0  0  0  0  0
    8.0032   -2.0167   -0.1822 H   0  0  0  0  0  0  0  0  0  0  0  0
    6.7404   -3.4513    1.7339 H   0  0  0  0  0  0  0  0  0  0  0  0
    6.9645   -1.7575    1.7489 H   0  0  0  0  0  0  0  0  0  0  0  0
    3.7078   -0.4564    1.5621 H   0  0  0  0  0  0  0  0  0  0  0  0
    5.1545   -0.1872    0.6356 H   0  0  0  0  0  0  0  0  0  0  0  0
    5.2533   -0.3975    2.3639 H   0  0  0  0  0  0  0  0  0  0  0  0
    3.3496   -2.5270    2.3108 H   0  0  0  0  0  0  0  0  0  0  0  0
    5.5522   -2.7316    4.3537 H   0  0  0  0  0  0  0  0  0  0  0  0
    4.1248   -1.6967    4.3301 H   0  0  0  0  0  0  0  0  0  0  0  0
    4.3319   -4.5888    5.2429 H   0  0  0  0  0  0  0  0  0  0  0  0
    3.0352   -3.4753    5.5914 H   0  0  0  0  0  0  0  0  0  0  0  0
    1.2558   -3.2727    2.5103 H   0  0  0  0  0  0  0  0  0  0  0  0
    1.8856   -2.4332    3.8674 H   0  0  0  0  0  0  0  0  0  0  0  0
    0.8196   -3.7396    4.1370 H   0  0  0  0  0  0  0  0  0  0  0  0
    2.9717   -6.6021    3.6260 H   0  0  0  0  0  0  0  0  0  0  0  0
    1.7236   -8.0237    1.5582 H   0  0  0  0  0  0  0  0  0  0  0  0
    0.4172   -7.1171    0.7999 H   0  0  0  0  0  0  0  0  0  0  0  0
    1.1136   -5.1168    1.6131 H   0  0  0  0  0  0  0  0  0  0  0  0
    3.0528   -6.1528   -0.0620 H   0  0  0  0  0  0  0  0  0  0  0  0
    2.5507   -4.1411   -0.9149 H   0  0  0  0  0  0  0  0  0  0  0  0
    2.0630   -3.4968    0.5448 H   0  0  0  0  0  0  0  0  0  0  0  0
    3.2960   -1.9837    0.0348 H   0  0  0  0  0  0  0  0  0  0  0  0
    5.0346   -7.0160    3.0494 H   0  0  0  0  0  0  0  0  0  0  0  0
    5.3194   -7.6100    1.4477 H   0  0  0  0  0  0  0  0  0  0  0  0
    3.7399   -7.6657    2.0502 H   0  0  0  0  0  0  0  0  0  0  0  0
    6.5128   -5.5696    1.0945 H   0  0  0  0  0  0  0  0  0  0  0  0
    5.5950   -4.5842   -0.0201 H   0  0  0  0  0  0  0  0  0  0  0  0
    5.5297   -6.2559   -0.1960 H   0  0  0  0  0  0  0  0  0  0  0  0
    5.0586   -4.7983    3.2136 H   0  0  0  0  0  0  0  0  0  0  0  0
  1  2  1  0
  1 27  1  0
  1 28  1  0
  1 29  1  0
  2 22  1  0
  2  3  1  0
  2  4  1  0
  3 30  1  0
  3 31  1  0
  3 32  1  0
  4  5  1  0
  4 33  1  0
  4 34  1  0
  5  6  1  0
  5 35  1  0
  5 36  1  0
  6  7  1  0
  6 37  1  0
  6 38  1  0
  7 22  1  0
  7  8  1  1
  7  9  1  0
  8 39  1  0
  8 40  1  0
  8 41  1  0
  9 26  1  0
  9 10  1  0
  9 42  1  6
 10 11  1  0
 10 43  1  0
 10 44  1  0
 11 12  1  0
 11 45  1  0
 11 46  1  0
 12 26  1  0
 12 13  1  6
 12 14  1  0
 13 47  1  0
 13 48  1  0
 13 49  1  0
 14 19  1  0
 14 15  1  0
 14 50  1  6
 15 16  2  0
 15 17  1  0
 17 18  1  0
 18 19  1  0
 18 51  1  0
 18 52  1  0
 19 20  1  0
 19 53  1  1
 20 21  1  0
 20 23  1  0
 20 54  1  6
 21 22  1  0
 21 55  1  0
 21 56  1  0
 22 57  1  6
 23 24  1  0
 23 25  1  0
 23 26  1  0
 24 58  1  0
 24 59  1  0
 24 60  1  0
 25 61  1  0
 25 62  1  0
 25 63  1  0
 26 64  1  1
M  END
>  <i_m_ct_stereo_status>  (96) 
1

>  <s_m_source_file>  (96) 
/var/tmp/pbs.5076255.sched01/tmpdonsa7tf/408ubvndgu.sdf

>  <i_m_source_file_index>  (96) 
6

>  <i_lp_mmshare_version>  (96) 
48012

>  <i_f3d_flags>  (96) 
0

>  <s_epik_input>  (96) 
W0NIMl0xW0NIMl1bQ0gyXUMoW0NIM10pKFtDSDNdKVtDQEhdMltDSDJdW0NAQEhdKEMzKFtDSDNdKVtDSDNdKVtDQEBIXShbQ0gyXU9DND1PKVtDQEhdNFtDQEBdKFtDSDNdKShbQ0gyXVtDSDJdNSlbQ0BASF0zW0NAQEhdNVtDQEBdMTJbQ0gzXQ==

>  <s_epik_cmdline>  (96) 
J2VwaWtfcHl0aG9uJywgJy1waHQnLCAnMi4wJywgJy1waCcsICc3LjAnLCAnLXRuJywgJzgnLCAnLW1hJywgJzIwMCcsICctaW1hZScsICc8aW5maWxlLm1hZT4nLCAnLW9tYWUnLCAnPG91dGZpbGUubWFlPic=

>  <r_lp_tautomer_probability>  (96) 
1

>  <r_epik_Ionization_Penalty>  (96) 
0

>  <r_epik_Ionization_Penalty_Charging>  (96) 
0

>  <r_epik_Ionization_Penalty_Neutral>  (96) 
0

>  <r_epik_State_Penalty>  (96) 
-0

>  <r_epik_Charging_Adjusted_Penalty>  (96) 
0

>  <i_epik_Tot_Q>  (96) 
0

>  <i_epik_Tot_abs_Q>  (96) 
0

>  <s_epik_Chemistry_Notes>  (96) 
This compound has an ester and may undergo hydrolysis at high or low pH.

>  <s_lp_Force_Field>  (96) 
OPLS3e

>  <r_lp_Energy>  (96) 
195.427

>  <b_lp_Chiralities_Consistent>  (96) 
1

>  <s_lp_Variant>  (96) 
35:0-1

>  <s_i_glide_gridfile>  (96) 
pfpi4k_grid

>  <i_i_glide_lignum>  (96) 
6

>  <i_i_glide_rotatable_bonds>  (96) 
0

>  <r_i_docking_score>  (96) 
-2.89272

>  <r_i_glide_ligand_efficiency>  (96) 
-0.111258

>  <r_i_glide_ligand_efficiency_sa>  (96) 
-0.329602

>  <r_i_glide_ligand_efficiency_ln>  (96) 
-0.679345

>  <r_i_glide_gscore>  (96) 
-2.89272

>  <r_i_glide_lipo>  (96) 
-0.448509

>  <r_i_glide_hbond>  (96) 
0

>  <r_i_glide_metal>  (96) 
-0

>  <r_i_glide_rewards>  (96) 
-0.964382

>  <r_i_glide_evdw>  (96) 
-27.9489

>  <r_i_glide_ecoul>  (96) 
-0.418689

>  <r_i_glide_erotb>  (96) 
0

>  <r_i_glide_esite>  (96) 
-0.0195768

>  <r_i_glide_emodel>  (96) 
-32.8947

>  <r_i_glide_energy>  (96) 
-28.3676

>  <r_i_glide_einternal>  (96) 
0

>  <r_i_glide_intrahb_reward>  (96) 
-0

>  <i_i_glide_confnum>  (96) 
1

>  <i_i_glide_posenum>  (96) 
2

>  <r_i_glide_eff_state_penalty>  (96) 
0

>  <ligand_id>  (96) 
35

>  <original_smiles>  (96) 
CC1(C)CCCC2(C)C3CCC4(C)C5C(=O)OCC5C(CC12)C(C)(C)C34

>  <smiles>  (96) 
[H]C([H])([H])C1(C([H])([H])[H])C([H])([H])C([H])([H])C([H])([H])C2(C([H])([H])[H])C3([H])C([H])([H])C([H])([H])C4(C([H])([H])[H])C5([H])C(=O)OC([H])([H])C5([H])C([H])(C([H])([H])C12[H])C(C([H])([H])[H])(C([H])([H])[H])C34[H]

$$$$
36:0:0
     RDKit          3D

 35 40  0  0  1  0  0  0  0  0999 V2000
    4.5470   -1.0881    2.6191 N   0  0  0  0  0  0  0  0  0  0  0  0
    5.7476   -1.2174    1.8201 C   0  0  2  0  0  0  0  0  0  0  0  0
    5.6660   -0.3896    0.5373 C   0  0  0  0  0  0  0  0  0  0  0  0
    5.1014   -1.1320   -0.6789 C   0  0  2  0  0  0  0  0  0  0  0  0
    3.6710   -1.6799   -0.4949 C   0  0  1  0  0  0  0  0  0  0  0  0
    3.0818   -1.9682   -1.9491 C   0  0  1  0  0  0  0  0  0  0  0  0
    4.2153   -2.2830   -2.9503 C   0  0  0  0  0  0  0  0  0  0  0  0
    5.0066   -3.2465   -2.0585 C   0  0  2  0  0  0  0  0  0  0  0  0
    3.8214   -3.8579   -1.2029 C   0  0  2  0  0  0  0  0  0  0  0  0
    2.5197   -3.3668   -1.8188 C   0  0  0  0  0  0  0  0  0  0  0  0
    3.7714   -3.1282    0.1237 C   0  0  1  0  0  0  0  0  0  0  0  0
    5.0395   -3.5431    0.8536 C   0  0  2  0  0  0  0  0  0  0  0  0
    6.0523   -2.6626    1.5270 C   0  0  1  0  0  0  0  0  0  0  0  0
    6.2841   -3.1673    0.1063 C   0  0  2  0  0  0  0  0  0  0  0  0
    5.9442   -2.3771   -1.1386 C   0  0  2  0  0  0  0  0  0  0  0  0
    3.7727   -1.4597    2.0791 H   0  0  0  0  0  0  0  0  0  0  0  0
    4.3643   -0.1183    2.8303 H   0  0  0  0  0  0  0  0  0  0  0  0
    6.5835   -0.8266    2.4131 H   0  0  0  0  0  0  0  0  0  0  0  0
    5.0874    0.5159    0.7193 H   0  0  0  0  0  0  0  0  0  0  0  0
    6.6680   -0.0573    0.2721 H   0  0  0  0  0  0  0  0  0  0  0  0
    5.0742   -0.3682   -1.4664 H   0  0  0  0  0  0  0  0  0  0  0  0
    3.0166   -1.0230    0.0895 H   0  0  0  0  0  0  0  0  0  0  0  0
    2.3722   -1.2251   -2.3222 H   0  0  0  0  0  0  0  0  0  0  0  0
    3.8314   -2.7728   -3.8513 H   0  0  0  0  0  0  0  0  0  0  0  0
    4.7746   -1.4103   -3.2917 H   0  0  0  0  0  0  0  0  0  0  0  0
    5.5464   -4.0009   -2.6331 H   0  0  0  0  0  0  0  0  0  0  0  0
    3.8838   -4.9394   -1.0706 H   0  0  0  0  0  0  0  0  0  0  0  0
    1.6528   -3.4373   -1.1594 H   0  0  0  0  0  0  0  0  0  0  0  0
    2.2627   -3.8334   -2.7701 H   0  0  0  0  0  0  0  0  0  0  0  0
    2.8922   -3.3948    0.7208 H   0  0  0  0  0  0  0  0  0  0  0  0
    5.0057   -4.5669    1.2337 H   0  0  0  0  0  0  0  0  0  0  0  0
    6.6070   -3.1705    2.3122 H   0  0  0  0  0  0  0  0  0  0  0  0
    7.0132   -3.9694   -0.0316 H   0  0  0  0  0  0  0  0  0  0  0  0
    6.8609   -2.0742   -1.6519 H   0  0  0  0  0  0  0  0  0  0  0  0
    4.6340   -1.6156    3.4761 H   0  0  0  0  0  0  0  0  0  0  0  0
  1  2  1  0
  1 16  1  0
  1 17  1  0
  1 35  1  0
  2 13  1  0
  2  3  1  0
  2 18  1  1
  3  4  1  0
  3 19  1  0
  3 20  1  0
  4 15  1  0
  4  5  1  0
  4 21  1  6
  5 11  1  0
  5  6  1  0
  5 22  1  1
  6 10  1  0
  6  7  1  0
  6 23  1  6
  7  8  1  0
  7 24  1  0
  7 25  1  0
  8 15  1  0
  8  9  1  0
  8 26  1  6
  9 10  1  0
  9 11  1  0
  9 27  1  1
 10 28  1  0
 10 29  1  0
 11 12  1  0
 11 30  1  1
 12 14  1  0
 12 13  1  0
 12 31  1  1
 13 14  1  0
 13 32  1  1
 14 15  1  0
 14 33  1  1
 15 34  1  6
M  CHG  1   1   1
M  END
>  <i_m_ct_stereo_status>  (97) 
1

>  <s_m_source_file>  (97) 
/var/tmp/pbs.5076255.sched01/tmpdonsa7tf/408ubvndgu.sdf

>  <i_m_source_file_index>  (97) 
7

>  <i_lp_mmshare_version>  (97) 
48012

>  <i_f3d_flags>  (97) 
0

>  <s_epik_input>  (97) 
W05IMl1bQ0BIXShbQ0gyXTEpW0NASF0oW0NAQEhdMltDQEhdMzQpW0NASF0yW0NAQEhdNVtDQEBIXShbQ0gyXTYpW0NASF00W0NIMl1bQ0BASF02W0NAQEhdNVtDQEBIXTEz

>  <s_epik_cmdline>  (97) 
J2VwaWtfcHl0aG9uJywgJy1waHQnLCAnMi4wJywgJy1waCcsICc3LjAnLCAnLXRuJywgJzgnLCAnLW1hJywgJzIwMCcsICctaW1hZScsICc8aW5maWxlLm1hZT4nLCAnLW9tYWUnLCAnPG91dGZpbGUubWFlPic=

>  <r_lp_tautomer_probability>  (97) 
1

>  <r_epik_Ionization_Penalty>  (97) 
0.000106405

>  <r_epik_Ionization_Penalty_Charging>  (97) 
0.000106405

>  <r_epik_Ionization_Penalty_Neutral>  (97) 
0

>  <r_epik_State_Penalty>  (97) 
-0

>  <r_epik_Charging_Adjusted_Penalty>  (97) 
0.000106405

>  <i_epik_Tot_Q>  (97) 
1

>  <i_epik_Tot_abs_Q>  (97) 
1

>  <s_lp_Force_Field>  (97) 
OPLS3e

>  <r_lp_Energy>  (97) 
99.6713

>  <b_lp_Chiralities_Consistent>  (97) 
1

>  <s_lp_Variant>  (97) 
36:0-1

>  <s_i_glide_gridfile>  (97) 
pfpi4k_grid

>  <i_i_glide_lignum>  (97) 
7

>  <i_i_glide_rotatable_bonds>  (97) 
0

>  <r_i_docking_score>  (97) 
-3.97513

>  <r_i_glide_ligand_efficiency>  (97) 
-0.265009

>  <r_i_glide_ligand_efficiency_sa>  (97) 
-0.653568

>  <r_i_glide_ligand_efficiency_ln>  (97) 
-1.07203

>  <r_i_glide_gscore>  (97) 
-3.97513

>  <r_i_glide_lipo>  (97) 
-0.878986

>  <r_i_glide_hbond>  (97) 
0

>  <r_i_glide_metal>  (97) 
-0

>  <r_i_glide_rewards>  (97) 
-2.02967

>  <r_i_glide_evdw>  (97) 
-15.5742

>  <r_i_glide_ecoul>  (97) 
-1.91846

>  <r_i_glide_erotb>  (97) 
0

>  <r_i_glide_esite>  (97) 
0

>  <r_i_glide_emodel>  (97) 
-22.122

>  <r_i_glide_energy>  (97) 
-17.4927

>  <r_i_glide_einternal>  (97) 
0

>  <r_i_glide_intrahb_reward>  (97) 
-0

>  <i_i_glide_confnum>  (97) 
2

>  <i_i_glide_posenum>  (97) 
20

>  <r_i_glide_eff_state_penalty>  (97) 
0

>  <ligand_id>  (97) 
36

>  <original_smiles>  (97) 
NC1CC2C3C4CC5C(C4)C3C3C1C3C52

>  <smiles>  (97) 
[H]C1([H])C2([H])C([H])([H])C3([H])C1([H])C1([H])C4([H])C([H])([H])C([H])([N+]([H])([H])[H])C5([H])C1([H])C5([H])C3([H])C24[H]

$$$$
36:0:1
     RDKit          3D

 35 40  0  0  1  0  0  0  0  0999 V2000
    3.6239   -3.0803    2.3915 N   0  0  0  0  0  0  0  0  0  0  0  0
    4.9608   -2.6839    2.0073 C   0  0  2  0  0  0  0  0  0  0  0  0
    4.9771   -1.2971    1.3455 C   0  0  0  0  0  0  0  0  0  0  0  0
    4.8070   -1.3324   -0.1828 C   0  0  2  0  0  0  0  0  0  0  0  0
    3.5094   -1.9990   -0.7008 C   0  0  1  0  0  0  0  0  0  0  0  0
    3.2762   -1.5061   -2.1971 C   0  0  1  0  0  0  0  0  0  0  0  0
    4.6132   -1.1556   -2.8628 C   0  0  0  0  0  0  0  0  0  0  0  0
    5.4076   -2.3880   -2.4039 C   0  0  2  0  0  0  0  0  0  0  0  0
    4.2338   -3.4525   -2.3631 C   0  0  2  0  0  0  0  0  0  0  0  0
    3.0008   -2.7835   -2.9614 C   0  0  0  0  0  0  0  0  0  0  0  0
    3.7792   -3.5409   -0.9045 C   0  0  1  0  0  0  0  0  0  0  0  0
    4.9272   -4.1966   -0.1454 C   0  0  2  0  0  0  0  0  0  0  0  0
    5.5994   -3.7309    1.1291 C   0  0  1  0  0  0  0  0  0  0  0  0
    6.1910   -3.3919   -0.2335 C   0  0  2  0  0  0  0  0  0  0  0  0
    5.9475   -2.0850   -0.9494 C   0  0  2  0  0  0  0  0  0  0  0  0
    3.0646   -3.1547    1.5480 H   0  0  0  0  0  0  0  0  0  0  0  0
    3.2140   -2.3892    2.9985 H   0  0  0  0  0  0  0  0  0  0  0  0
    5.5605   -2.6209    2.9249 H   0  0  0  0  0  0  0  0  0  0  0  0
    4.2122   -0.6625    1.7952 H   0  0  0  0  0  0  0  0  0  0  0  0
    5.9292   -0.8121    1.5659 H   0  0  0  0  0  0  0  0  0  0  0  0
    4.7896   -0.2719   -0.4559 H   0  0  0  0  0  0  0  0  0  0  0  0
    2.6439   -1.8066   -0.0611 H   0  0  0  0  0  0  0  0  0  0  0  0
    2.5232   -0.7249   -2.3213 H   0  0  0  0  0  0  0  0  0  0  0  0
    4.5328   -1.0976   -3.9527 H   0  0  0  0  0  0  0  0  0  0  0  0
    5.0372   -0.1997   -2.5482 H   0  0  0  0  0  0  0  0  0  0  0  0
    6.1986   -2.6785   -3.1017 H   0  0  0  0  0  0  0  0  0  0  0  0
    4.4954   -4.4121   -2.8132 H   0  0  0  0  0  0  0  0  0  0  0  0
    2.0508   -3.2500   -2.6914 H   0  0  0  0  0  0  0  0  0  0  0  0
    3.0309   -2.6792   -4.0464 H   0  0  0  0  0  0  0  0  0  0  0  0
    2.8691   -4.1372   -0.7821 H   0  0  0  0  0  0  0  0  0  0  0  0
    5.0300   -5.2626   -0.3540 H   0  0  0  0  0  0  0  0  0  0  0  0
    6.1016   -4.5234    1.6827 H   0  0  0  0  0  0  0  0  0  0  0  0
    7.0841   -3.9389   -0.5475 H   0  0  0  0  0  0  0  0  0  0  0  0
    6.8615   -1.4934   -0.9487 H   0  0  0  0  0  0  0  0  0  0  0  0
    3.6388   -3.9790    2.8550 H   0  0  0  0  0  0  0  0  0  0  0  0
  1  2  1  0
  1 16  1  0
  1 17  1  0
  1 35  1  0
  2 13  1  0
  2  3  1  0
  2 18  1  1
  3  4  1  0
  3 19  1  0
  3 20  1  0
  4 15  1  0
  4  5  1  0
  4 21  1  6
  5 11  1  0
  5  6  1  0
  5 22  1  1
  6 10  1  0
  6  7  1  0
  6 23  1  1
  7  8  1  0
  7 24  1  0
  7 25  1  0
  8 15  1  0
  8  9  1  0
  8 26  1  6
  9 10  1  0
  9 11  1  0
  9 27  1  6
 10 28  1  0
 10 29  1  0
 11 12  1  0
 11 30  1  6
 12 14  1  0
 12 13  1  0
 12 31  1  1
 13 14  1  0
 13 32  1  1
 14 15  1  0
 14 33  1  1
 15 34  1  6
M  CHG  1   1   1
M  END
>  <i_m_ct_stereo_status>  (98) 
1

>  <s_m_source_file>  (98) 
/var/tmp/pbs.5076255.sched01/tmpdonsa7tf/408ubvndgu.sdf

>  <i_m_source_file_index>  (98) 
7

>  <i_lp_mmshare_version>  (98) 
48012

>  <i_f3d_flags>  (98) 
0

>  <s_epik_input>  (98) 
W05IMl1bQ0BIXShbQ0gyXTEpW0NASF0oW0NAQEhdMltDQEhdMzQpW0NASF0yW0NAQEhdNVtDQEBIXShbQ0gyXTYpW0NASF00W0NIMl1bQ0BASF02W0NAQEhdNVtDQEBIXTEz

>  <s_epik_cmdline>  (98) 
J2VwaWtfcHl0aG9uJywgJy1waHQnLCAnMi4wJywgJy1waCcsICc3LjAnLCAnLXRuJywgJzgnLCAnLW1hJywgJzIwMCcsICctaW1hZScsICc8aW5maWxlLm1hZT4nLCAnLW9tYWUnLCAnPG91dGZpbGUubWFlPic=

>  <r_lp_tautomer_probability>  (98) 
1

>  <r_epik_Ionization_Penalty>  (98) 
0.000106405

>  <r_epik_Ionization_Penalty_Charging>  (98) 
0.000106405

>  <r_epik_Ionization_Penalty_Neutral>  (98) 
0

>  <r_epik_State_Penalty>  (98) 
-0

>  <r_epik_Charging_Adjusted_Penalty>  (98) 
0.000106405

>  <i_epik_Tot_Q>  (98) 
1

>  <i_epik_Tot_abs_Q>  (98) 
1

>  <s_lp_Force_Field>  (98) 
OPLS3e

>  <r_lp_Energy>  (98) 
99.6713

>  <b_lp_Chiralities_Consistent>  (98) 
1

>  <s_lp_Variant>  (98) 
36:0-1

>  <s_i_glide_gridfile>  (98) 
pfpi4k_grid

>  <i_i_glide_lignum>  (98) 
7

>  <i_i_glide_rotatable_bonds>  (98) 
0

>  <r_i_docking_score>  (98) 
-3.7051

>  <r_i_glide_ligand_efficiency>  (98) 
-0.247007

>  <r_i_glide_ligand_efficiency_sa>  (98) 
-0.609171

>  <r_i_glide_ligand_efficiency_ln>  (98) 
-0.999204

>  <r_i_glide_gscore>  (98) 
-3.7051

>  <r_i_glide_lipo>  (98) 
-0.392771

>  <r_i_glide_hbond>  (98) 
0

>  <r_i_glide_metal>  (98) 
-0

>  <r_i_glide_rewards>  (98) 
-2.02967

>  <r_i_glide_evdw>  (98) 
-19.2145

>  <r_i_glide_ecoul>  (98) 
-2.14622

>  <r_i_glide_erotb>  (98) 
0

>  <r_i_glide_esite>  (98) 
0

>  <r_i_glide_emodel>  (98) 
-25.6759

>  <r_i_glide_energy>  (98) 
-21.3607

>  <r_i_glide_einternal>  (98) 
0

>  <r_i_glide_intrahb_reward>  (98) 
-0

>  <i_i_glide_confnum>  (98) 
2

>  <i_i_glide_posenum>  (98) 
34

>  <r_i_glide_eff_state_penalty>  (98) 
0

>  <ligand_id>  (98) 
36

>  <original_smiles>  (98) 
NC1CC2C3C4CC5C(C4)C3C3C1C3C52

>  <smiles>  (98) 
[H]C1([H])C2([H])C([H])([H])C3([H])C1([H])C1([H])C4([H])C([H])([H])C([H])([N+]([H])([H])[H])C5([H])C1([H])C5([H])C3([H])C24[H]

$$$$
36:0:2
     RDKit          3D

 35 40  0  0  1  0  0  0  0  0999 V2000
    3.3110   -1.7358    2.4127 N   0  0  0  0  0  0  0  0  0  0  0  0
    4.7175   -1.8673    2.0001 C   0  0  2  0  0  0  0  0  0  0  0  0
    5.1267   -0.7217    1.0786 C   0  0  0  0  0  0  0  0  0  0  0  0
    4.9003   -1.0151   -0.4142 C   0  0  2  0  0  0  0  0  0  0  0  0
    3.4395   -1.3105   -0.8269 C   0  0  1  0  0  0  0  0  0  0  0  0
    3.2886   -1.0694   -2.3966 C   0  0  1  0  0  0  0  0  0  0  0  0
    4.6313   -1.3054   -3.0842 C   0  0  0  0  0  0  0  0  0  0  0  0
    5.0499   -2.6031   -2.3788 C   0  0  2  0  0  0  0  0  0  0  0  0
    3.6056   -3.2051   -2.1445 C   0  0  2  0  0  0  0  0  0  0  0  0
    2.6172   -2.3288   -2.9048 C   0  0  0  0  0  0  0  0  0  0  0  0
    3.2014   -2.8598   -0.7107 C   0  0  1  0  0  0  0  0  0  0  0  0
    4.1179   -3.6876    0.1917 C   0  0  2  0  0  0  0  0  0  0  0  0
    4.9447   -3.2188    1.3603 C   0  0  1  0  0  0  0  0  0  0  0  0
    5.5713   -3.3643   -0.0212 C   0  0  2  0  0  0  0  0  0  0  0  0
    5.7220   -2.2097   -0.9979 C   0  0  2  0  0  0  0  0  0  0  0  0
    2.7338   -1.7883    1.5857 H   0  0  0  0  0  0  0  0  0  0  0  0
    3.1691   -0.8437    2.8606 H   0  0  0  0  0  0  0  0  0  0  0  0
    5.3229   -1.8147    2.9040 H   0  0  0  0  0  0  0  0  0  0  0  0
    4.6138    0.1977    1.3636 H   0  0  0  0  0  0  0  0  0  0  0  0
    6.1908   -0.5190    1.2230 H   0  0  0  0  0  0  0  0  0  0  0  0
    5.2006   -0.0944   -0.8941 H   0  0  0  0  0  0  0  0  0  0  0  0
    2.7357   -0.7190   -0.2403 H   0  0  0  0  0  0  0  0  0  0  0  0
    2.8053   -0.1449   -2.7127 H   0  0  0  0  0  0  0  0  0  0  0  0
    4.5487   -1.4212   -4.1677 H   0  0  0  0  0  0  0  0  0  0  0  0
    5.3339   -0.4984   -2.9051 H   0  0  0  0  0  0  0  0  0  0  0  0
    5.6864   -3.2362   -2.9981 H   0  0  0  0  0  0  0  0  0  0  0  0
    3.5448   -4.2546   -2.3850 H   0  0  0  0  0  0  0  0  0  0  0  0
    1.5838   -2.4229   -2.5756 H   0  0  0  0  0  0  0  0  0  0  0  0
    2.6433   -2.4485   -3.9899 H   0  0  0  0  0  0  0  0  0  0  0  0
    2.1587   -3.1009   -0.4974 H   0  0  0  0  0  0  0  0  0  0  0  0
    3.8724   -4.7493    0.1998 H   0  0  0  0  0  0  0  0  0  0  0  0
    5.1956   -3.9984    2.0779 H   0  0  0  0  0  0  0  0  0  0  0  0
    6.2289   -4.2130   -0.2039 H   0  0  0  0  0  0  0  0  0  0  0  0
    6.7739   -1.9430   -1.1024 H   0  0  0  0  0  0  0  0  0  0  0  0
    3.0648   -2.4797    3.0449 H   0  0  0  0  0  0  0  0  0  0  0  0
  1  2  1  0
  1 16  1  0
  1 17  1  0
  1 35  1  0
  2 13  1  0
  2  3  1  0
  2 18  1  1
  3  4  1  0
  3 19  1  0
  3 20  1  0
  4 15  1  0
  4  5  1  0
  4 21  1  6
  5 11  1  0
  5  6  1  0
  5 22  1  1
  6 10  1  0
  6  7  1  0
  6 23  1  1
  7  8  1  0
  7 24  1  0
  7 25  1  0
  8 15  1  0
  8  9  1  0
  8 26  1  6
  9 10  1  0
  9 11  1  0
  9 27  1  6
 10 28  1  0
 10 29  1  0
 11 12  1  0
 11 30  1  6
 12 14  1  0
 12 13  1  0
 12 31  1  1
 13 14  1  0
 13 32  1  1
 14 15  1  0
 14 33  1  1
 15 34  1  6
M  CHG  1   1   1
M  END
>  <i_m_ct_stereo_status>  (99) 
1

>  <s_m_source_file>  (99) 
/var/tmp/pbs.5076255.sched01/tmpdonsa7tf/408ubvndgu.sdf

>  <i_m_source_file_index>  (99) 
7

>  <i_lp_mmshare_version>  (99) 
48012

>  <i_f3d_flags>  (99) 
0

>  <s_epik_input>  (99) 
W05IMl1bQ0BIXShbQ0gyXTEpW0NASF0oW0NAQEhdMltDQEhdMzQpW0NASF0yW0NAQEhdNVtDQEBIXShbQ0gyXTYpW0NASF00W0NIMl1bQ0BASF02W0NAQEhdNVtDQEBIXTEz

>  <s_epik_cmdline>  (99) 
J2VwaWtfcHl0aG9uJywgJy1waHQnLCAnMi4wJywgJy1waCcsICc3LjAnLCAnLXRuJywgJzgnLCAnLW1hJywgJzIwMCcsICctaW1hZScsICc8aW5maWxlLm1hZT4nLCAnLW9tYWUnLCAnPG91dGZpbGUubWFlPic=

>  <r_lp_tautomer_probability>  (99) 
1

>  <r_epik_Ionization_Penalty>  (99) 
0.000106405

>  <r_epik_Ionization_Penalty_Charging>  (99) 
0.000106405

>  <r_epik_Ionization_Penalty_Neutral>  (99) 
0

>  <r_epik_State_Penalty>  (99) 
-0

>  <r_epik_Charging_Adjusted_Penalty>  (99) 
0.000106405

>  <i_epik_Tot_Q>  (99) 
1

>  <i_epik_Tot_abs_Q>  (99) 
1

>  <s_lp_Force_Field>  (99) 
OPLS3e

>  <r_lp_Energy>  (99) 
99.6713

>  <b_lp_Chiralities_Consistent>  (99) 
1

>  <s_lp_Variant>  (99) 
36:0-1

>  <s_i_glide_gridfile>  (99) 
pfpi4k_grid

>  <i_i_glide_lignum>  (99) 
7

>  <i_i_glide_rotatable_bonds>  (99) 
0

>  <r_i_docking_score>  (99) 
-3.50301

>  <r_i_glide_ligand_efficiency>  (99) 
-0.233534

>  <r_i_glide_ligand_efficiency_sa>  (99) 
-0.575944

>  <r_i_glide_ligand_efficiency_ln>  (99) 
-0.944703

>  <r_i_glide_gscore>  (99) 
-3.50301

>  <r_i_glide_lipo>  (99) 
-0.428735

>  <r_i_glide_hbond>  (99) 
0

>  <r_i_glide_metal>  (99) 
-0

>  <r_i_glide_rewards>  (99) 
-2.02967

>  <r_i_glide_evdw>  (99) 
-12.2482

>  <r_i_glide_ecoul>  (99) 
-2.86929

>  <r_i_glide_erotb>  (99) 
0

>  <r_i_glide_esite>  (99) 
-0.00179661

>  <r_i_glide_emodel>  (99) 
-19.1658

>  <r_i_glide_energy>  (99) 
-15.1175

>  <r_i_glide_einternal>  (99) 
0

>  <r_i_glide_intrahb_reward>  (99) 
-0

>  <i_i_glide_confnum>  (99) 
2

>  <i_i_glide_posenum>  (99) 
36

>  <r_i_glide_eff_state_penalty>  (99) 
0

>  <ligand_id>  (99) 
36

>  <original_smiles>  (99) 
NC1CC2C3C4CC5C(C4)C3C3C1C3C52

>  <smiles>  (99) 
[H]C1([H])C2([H])C([H])([H])C3([H])C1([H])C1([H])C4([H])C([H])([H])C([H])([N+]([H])([H])[H])C5([H])C1([H])C5([H])C3([H])C24[H]

$$$$
37:0:0
     RDKit          3D

 31 33  0  0  1  0  0  0  0  0999 V2000
    2.6683    0.0779   -5.4648 C   0  0  0  0  0  0  0  0  0  0  0  0
    3.3972   -0.5892   -4.3508 C   0  0  0  0  0  0  0  0  0  0  0  0
    4.0957   -0.0964   -3.2992 C   0  0  0  0  0  0  0  0  0  0  0  0
    4.5742   -1.2428   -2.6171 C   0  0  0  0  0  0  0  0  0  0  0  0
    5.3973   -1.2797   -1.3481 C   0  0  2  0  0  0  0  0  0  0  0  0
    6.5508   -1.8637   -1.5457 O   0  0  0  0  0  0  0  0  0  0  0  0
    4.7267   -2.1402   -0.3366 N   0  0  2  0  0  0  0  0  0  0  0  0
    3.4287   -1.7246    0.2062 C   0  0  1  0  0  0  0  0  0  0  0  0
    3.0619   -2.9525    1.0626 C   0  0  0  0  0  0  0  0  0  0  0  0
    4.4402   -3.3798    1.6069 C   0  0  0  0  0  0  0  0  0  0  0  0
    5.3781   -2.3378    0.9702 C   0  0  2  0  0  0  0  0  0  0  0  0
    5.1697   -0.9846    1.6797 C   0  0  0  0  0  0  0  0  0  0  0  0
    3.7756   -0.5625    1.1660 C   0  0  0  0  0  0  0  0  0  0  0  0
    4.1866   -2.3573   -3.2205 N   0  0  0  0  0  0  0  0  0  0  0  0
    3.4203   -1.9451   -4.3226 O   0  0  0  0  0  0  0  0  0  0  0  0
    2.6908    1.1655   -5.3922 H   0  0  0  0  0  0  0  0  0  0  0  0
    1.6299   -0.2429   -5.4622 H   0  0  0  0  0  0  0  0  0  0  0  0
    3.1113   -0.2124   -6.4136 H   0  0  0  0  0  0  0  0  0  0  0  0
    4.2225    0.9488   -3.0938 H   0  0  0  0  0  0  0  0  0  0  0  0
    5.3958   -0.2560   -1.0075 H   0  0  0  0  0  0  0  0  0  0  0  0
    2.6762   -1.4883   -0.5473 H   0  0  0  0  0  0  0  0  0  0  0  0
    2.3447   -2.7170    1.8471 H   0  0  0  0  0  0  0  0  0  0  0  0
    2.6335   -3.7353    0.4378 H   0  0  0  0  0  0  0  0  0  0  0  0
    4.4955   -3.3693    2.6943 H   0  0  0  0  0  0  0  0  0  0  0  0
    4.6941   -4.3817    1.2631 H   0  0  0  0  0  0  0  0  0  0  0  0
    6.4157   -2.6675    0.9316 H   0  0  0  0  0  0  0  0  0  0  0  0
    5.2227   -1.0603    2.7674 H   0  0  0  0  0  0  0  0  0  0  0  0
    5.9275   -0.2671    1.3610 H   0  0  0  0  0  0  0  0  0  0  0  0
    3.8219    0.3926    0.6403 H   0  0  0  0  0  0  0  0  0  0  0  0
    3.0505   -0.4548    1.9727 H   0  0  0  0  0  0  0  0  0  0  0  0
    4.6129   -3.0465   -0.7724 H   0  0  0  0  0  0  0  0  0  0  0  0
  1  2  1  0
  1 16  1  0
  1 17  1  0
  1 18  1  0
  2 15  1  0
  2  3  2  0
  3  4  1  0
  3 19  1  0
  4  5  1  0
  4 14  2  0
  5  6  1  0
  5  7  1  0
  5 20  1  1
  7 11  1  0
  7  8  1  0
  7 31  1  6
  8 13  1  0
  8  9  1  0
  8 21  1  6
  9 10  1  0
  9 22  1  0
  9 23  1  0
 10 11  1  0
 10 24  1  0
 10 25  1  0
 11 12  1  0
 11 26  1  6
 12 13  1  0
 12 27  1  0
 12 28  1  0
 13 29  1  0
 13 30  1  0
 14 15  1  0
M  CHG  2   6  -1   7   1
M  END
>  <i_m_ct_stereo_status>  (100) 
1

>  <s_m_source_file>  (100) 
/var/tmp/pbs.5076255.sched01/tmpdonsa7tf/408ubvndgu.sdf

>  <i_m_source_file_index>  (100) 
8

>  <i_lp_mmshare_version>  (100) 
48012

>  <i_f3d_flags>  (100) 
0

>  <s_epik_input>  (100) 
W0NIM11jMVtjSF1jKG5vMSlbQ0BIXShbT0hdKU4oW0NAQEhdMjMpW0NASF0oW0NIMl1bQ0gyXTIpW0NIMl1bQ0gyXTM=

>  <s_epik_cmdline>  (100) 
J2VwaWtfcHl0aG9uJywgJy1waHQnLCAnMi4wJywgJy1waCcsICc3LjAnLCAnLXRuJywgJzgnLCAnLW1hJywgJzIwMCcsICctaW1hZScsICc8aW5maWxlLm1hZT4nLCAnLW9tYWUnLCAnPG91dGZpbGUubWFlPic=

>  <r_lp_tautomer_probability>  (100) 
1

>  <r_epik_Ionization_Penalty>  (100) 
8.50821e-05

>  <r_epik_Ionization_Penalty_Charging>  (100) 
8.50821e-05

>  <r_epik_Ionization_Penalty_Neutral>  (100) 
5.47703e-12

>  <r_epik_State_Penalty>  (100) 
-0

>  <r_epik_Charging_Adjusted_Penalty>  (100) 
8.50821e-05

>  <i_epik_Tot_Q>  (100) 
0

>  <i_epik_Tot_abs_Q>  (100) 
2

>  <s_epik_Chemistry_Notes>  (100) 
This compound contains an acetal/aminal-like group ( X-CH(R)-Y where X, Y are N, S, or O) that may be acid/base labile, releasing an aldehyde.

>  <s_lp_Force_Field>  (100) 
OPLS3e

>  <r_lp_Energy>  (100) 
27.2524

>  <b_lp_Chiralities_Consistent>  (100) 
1

>  <s_lp_Variant>  (100) 
37:0-1

>  <s_i_glide_gridfile>  (100) 
pfpi4k_grid

>  <i_i_glide_lignum>  (100) 
8

>  <i_i_glide_rotatable_bonds>  (100) 
2

>  <r_i_docking_score>  (100) 
-3.88638

>  <r_i_glide_ligand_efficiency>  (100) 
-0.259092

>  <r_i_glide_ligand_efficiency_sa>  (100) 
-0.638976

>  <r_i_glide_ligand_efficiency_ln>  (100) 
-1.04809

>  <r_i_glide_gscore>  (100) 
-3.88638

>  <r_i_glide_lipo>  (100) 
-0.61777

>  <r_i_glide_hbond>  (100) 
-0.2

>  <r_i_glide_metal>  (100) 
-0

>  <r_i_glide_rewards>  (100) 
-1.98916

>  <r_i_glide_evdw>  (100) 
-16.0561

>  <r_i_glide_ecoul>  (100) 
-6.215

>  <r_i_glide_erotb>  (100) 
0.76328

>  <r_i_glide_esite>  (100) 
-0.107679

>  <r_i_glide_emodel>  (100) 
-30.9581

>  <r_i_glide_energy>  (100) 
-22.2711

>  <r_i_glide_einternal>  (100) 
0.750926

>  <r_i_glide_intrahb_reward>  (100) 
-0

>  <i_i_glide_confnum>  (100) 
1

>  <i_i_glide_posenum>  (100) 
16

>  <r_i_glide_eff_state_penalty>  (100) 
0

>  <ligand_id>  (100) 
37

>  <original_smiles>  (100) 
Cc1cc(C(O)N2C3CCC2CC3)no1

>  <smiles>  (100) 
[H]c1c(C([H])([O-])[N+]2([H])C3([H])C([H])([H])C([H])([H])C2([H])C([H])([H])C3([H])[H])noc1C([H])([H])[H]

$$$$
37:0:1
     RDKit          3D

 31 33  0  0  1  0  0  0  0  0999 V2000
    2.8207    0.0697   -5.3783 C   0  0  0  0  0  0  0  0  0  0  0  0
    3.4773   -0.6698   -4.2582 C   0  0  0  0  0  0  0  0  0  0  0  0
    4.0979   -0.2613   -3.1240 C   0  0  0  0  0  0  0  0  0  0  0  0
    4.5469   -1.4562   -2.5083 C   0  0  0  0  0  0  0  0  0  0  0  0
    5.2805   -1.5869   -1.1967 C   0  0  2  0  0  0  0  0  0  0  0  0
    6.5337   -1.8572   -1.4203 O   0  0  0  0  0  0  0  0  0  0  0  0
    4.7770   -2.7793   -0.4572 N   0  0  2  0  0  0  0  0  0  0  0  0
    3.3580   -2.8336   -0.0761 C   0  0  1  0  0  0  0  0  0  0  0  0
    3.2615   -4.2561    0.5107 C   0  0  0  0  0  0  0  0  0  0  0  0
    4.6343   -4.4049    1.2035 C   0  0  0  0  0  0  0  0  0  0  0  0
    5.3035   -3.0507    0.8913 C   0  0  2  0  0  0  0  0  0  0  0  0
    4.6339   -1.9646    1.7614 C   0  0  0  0  0  0  0  0  0  0  0  0
    3.2480   -1.8301    1.0943 C   0  0  0  0  0  0  0  0  0  0  0  0
    4.2193   -2.5194   -3.2301 N   0  0  0  0  0  0  0  0  0  0  0  0
    3.5069   -2.0260   -4.3299 O   0  0  0  0  0  0  0  0  0  0  0  0
    2.8426    1.1471   -5.2151 H   0  0  0  0  0  0  0  0  0  0  0  0
    1.7813   -0.2347   -5.4767 H   0  0  0  0  0  0  0  0  0  0  0  0
    3.3247   -0.1418   -6.3203 H   0  0  0  0  0  0  0  0  0  0  0  0
    4.2191    0.7528   -2.7927 H   0  0  0  0  0  0  0  0  0  0  0  0
    5.0002   -0.6891   -0.6466 H   0  0  0  0  0  0  0  0  0  0  0  0
    2.6358   -2.6564   -0.8795 H   0  0  0  0  0  0  0  0  0  0  0  0
    2.4234   -4.3773    1.1961 H   0  0  0  0  0  0  0  0  0  0  0  0
    3.1517   -4.9936   -0.2868 H   0  0  0  0  0  0  0  0  0  0  0  0
    4.5506   -4.5913    2.2741 H   0  0  0  0  0  0  0  0  0  0  0  0
    5.1975   -5.2264    0.7622 H   0  0  0  0  0  0  0  0  0  0  0  0
    6.3887   -3.0816    0.9690 H   0  0  0  0  0  0  0  0  0  0  0  0
    4.5744   -2.2336    2.8172 H   0  0  0  0  0  0  0  0  0  0  0  0
    5.1836   -1.0244    1.6964 H   0  0  0  0  0  0  0  0  0  0  0  0
    3.0777   -0.8158    0.7272 H   0  0  0  0  0  0  0  0  0  0  0  0
    2.4313   -2.0677    1.7783 H   0  0  0  0  0  0  0  0  0  0  0  0
    4.9784   -3.5743   -1.0494 H   0  0  0  0  0  0  0  0  0  0  0  0
  1  2  1  0
  1 16  1  0
  1 17  1  0
  1 18  1  0
  2 15  1  0
  2  3  2  0
  3  4  1  0
  3 19  1  0
  4  5  1  0
  4 14  2  0
  5  6  1  0
  5  7  1  0
  5 20  1  1
  7 11  1  0
  7  8  1  0
  7 31  1  6
  8 13  1  0
  8  9  1  0
  8 21  1  6
  9 10  1  0
  9 22  1  0
  9 23  1  0
 10 11  1  0
 10 24  1  0
 10 25  1  0
 11 12  1  0
 11 26  1  6
 12 13  1  0
 12 27  1  0
 12 28  1  0
 13 29  1  0
 13 30  1  0
 14 15  1  0
M  CHG  2   6  -1   7   1
M  END
>  <i_m_ct_stereo_status>  (101) 
1

>  <s_m_source_file>  (101) 
/var/tmp/pbs.5076255.sched01/tmpdonsa7tf/408ubvndgu.sdf

>  <i_m_source_file_index>  (101) 
8

>  <i_lp_mmshare_version>  (101) 
48012

>  <i_f3d_flags>  (101) 
0

>  <s_epik_input>  (101) 
W0NIM11jMVtjSF1jKG5vMSlbQ0BIXShbT0hdKU4oW0NAQEhdMjMpW0NASF0oW0NIMl1bQ0gyXTIpW0NIMl1bQ0gyXTM=

>  <s_epik_cmdline>  (101) 
J2VwaWtfcHl0aG9uJywgJy1waHQnLCAnMi4wJywgJy1waCcsICc3LjAnLCAnLXRuJywgJzgnLCAnLW1hJywgJzIwMCcsICctaW1hZScsICc8aW5maWxlLm1hZT4nLCAnLW9tYWUnLCAnPG91dGZpbGUubWFlPic=

>  <r_lp_tautomer_probability>  (101) 
1

>  <r_epik_Ionization_Penalty>  (101) 
8.50821e-05

>  <r_epik_Ionization_Penalty_Charging>  (101) 
8.50821e-05

>  <r_epik_Ionization_Penalty_Neutral>  (101) 
5.47703e-12

>  <r_epik_State_Penalty>  (101) 
-0

>  <r_epik_Charging_Adjusted_Penalty>  (101) 
8.50821e-05

>  <i_epik_Tot_Q>  (101) 
0

>  <i_epik_Tot_abs_Q>  (101) 
2

>  <s_epik_Chemistry_Notes>  (101) 
This compound contains an acetal/aminal-like group ( X-CH(R)-Y where X, Y are N, S, or O) that may be acid/base labile, releasing an aldehyde.

>  <s_lp_Force_Field>  (101) 
OPLS3e

>  <r_lp_Energy>  (101) 
27.2524

>  <b_lp_Chiralities_Consistent>  (101) 
1

>  <s_lp_Variant>  (101) 
37:0-1

>  <s_i_glide_gridfile>  (101) 
pfpi4k_grid

>  <i_i_glide_lignum>  (101) 
8

>  <i_i_glide_rotatable_bonds>  (101) 
2

>  <r_i_docking_score>  (101) 
-3.87311

>  <r_i_glide_ligand_efficiency>  (101) 
-0.258207

>  <r_i_glide_ligand_efficiency_sa>  (101) 
-0.636793

>  <r_i_glide_ligand_efficiency_ln>  (101) 
-1.04451

>  <r_i_glide_gscore>  (101) 
-3.87311

>  <r_i_glide_lipo>  (101) 
-0.587187

>  <r_i_glide_hbond>  (101) 
-0.2

>  <r_i_glide_metal>  (101) 
-0

>  <r_i_glide_rewards>  (101) 
-1.98916

>  <r_i_glide_evdw>  (101) 
-17.2864

>  <r_i_glide_ecoul>  (101) 
-6.0764

>  <r_i_glide_erotb>  (101) 
0.76328

>  <r_i_glide_esite>  (101) 
-0.0842621

>  <r_i_glide_emodel>  (101) 
-31.7933

>  <r_i_glide_energy>  (101) 
-23.3628

>  <r_i_glide_einternal>  (101) 
1.19053

>  <r_i_glide_intrahb_reward>  (101) 
-0

>  <i_i_glide_confnum>  (101) 
3

>  <i_i_glide_posenum>  (101) 
2

>  <r_i_glide_eff_state_penalty>  (101) 
0

>  <ligand_id>  (101) 
37

>  <original_smiles>  (101) 
Cc1cc(C(O)N2C3CCC2CC3)no1

>  <smiles>  (101) 
[H]c1c(C([H])([O-])[N+]2([H])C3([H])C([H])([H])C([H])([H])C2([H])C([H])([H])C3([H])[H])noc1C([H])([H])[H]

$$$$
37:0:2
     RDKit          3D

 31 33  0  0  1  0  0  0  0  0999 V2000
    4.3594    0.2009    3.5557 C   0  0  0  0  0  0  0  0  0  0  0  0
    4.8639   -0.7245    2.4940 C   0  0  0  0  0  0  0  0  0  0  0  0
    4.9040   -0.6568    1.1346 C   0  0  0  0  0  0  0  0  0  0  0  0
    5.5318   -1.8813    0.7560 C   0  0  0  0  0  0  0  0  0  0  0  0
    5.8446   -2.4075   -0.6261 C   0  0  2  0  0  0  0  0  0  0  0  0
    6.9487   -1.8599   -1.0707 O   0  0  0  0  0  0  0  0  0  0  0  0
    4.8305   -1.9155   -1.6020 N   0  0  2  0  0  0  0  0  0  0  0  0
    3.4266   -2.2504   -1.3884 C   0  0  1  0  0  0  0  0  0  0  0  0
    2.7693   -1.4737   -2.5452 C   0  0  0  0  0  0  0  0  0  0  0  0
    3.7964   -1.5825   -3.6734 C   0  0  0  0  0  0  0  0  0  0  0  0
    4.8853   -2.4160   -2.9853 C   0  0  2  0  0  0  0  0  0  0  0  0
    4.3958   -3.8596   -2.8717 C   0  0  0  0  0  0  0  0  0  0  0  0
    3.3460   -3.7419   -1.7464 C   0  0  0  0  0  0  0  0  0  0  0  0
    5.8130   -2.6254    1.8092 N   0  0  0  0  0  0  0  0  0  0  0  0
    5.3997   -1.8936    2.9253 O   0  0  0  0  0  0  0  0  0  0  0  0
    3.9181    1.0971    3.1229 H   0  0  0  0  0  0  0  0  0  0  0  0
    5.1744    0.5055    4.2100 H   0  0  0  0  0  0  0  0  0  0  0  0
    3.6001   -0.2808    4.1672 H   0  0  0  0  0  0  0  0  0  0  0  0
    4.5233    0.1433    0.5109 H   0  0  0  0  0  0  0  0  0  0  0  0
    5.7767   -3.4985   -0.5295 H   0  0  0  0  0  0  0  0  0  0  0  0
    3.0028   -2.0093   -0.4098 H   0  0  0  0  0  0  0  0  0  0  0  0
    1.8191   -1.9229   -2.8146 H   0  0  0  0  0  0  0  0  0  0  0  0
    2.6050   -0.4277   -2.3018 H   0  0  0  0  0  0  0  0  0  0  0  0
    3.3850   -2.0647   -4.5608 H   0  0  0  0  0  0  0  0  0  0  0  0
    4.1621   -0.5934   -3.9571 H   0  0  0  0  0  0  0  0  0  0  0  0
    5.8281   -2.3393   -3.4914 H   0  0  0  0  0  0  0  0  0  0  0  0
    4.0012   -4.2421   -3.8144 H   0  0  0  0  0  0  0  0  0  0  0  0
    5.2090   -4.5150   -2.5718 H   0  0  0  0  0  0  0  0  0  0  0  0
    3.6089   -4.3767   -0.9013 H   0  0  0  0  0  0  0  0  0  0  0  0
    2.3429   -4.0158   -2.0781 H   0  0  0  0  0  0  0  0  0  0  0  0
    4.9112   -0.9128   -1.6304 H   0  0  0  0  0  0  0  0  0  0  0  0
  1  2  1  0
  1 16  1  0
  1 17  1  0
  1 18  1  0
  2 15  1  0
  2  3  2  0
  3  4  1  0
  3 19  1  0
  4  5  1  0
  4 14  2  0
  5  6  1  0
  5  7  1  0
  5 20  1  1
  7 11  1  0
  7  8  1  0
  7 31  1  6
  8 13  1  0
  8  9  1  0
  8 21  1  1
  9 10  1  0
  9 22  1  0
  9 23  1  0
 10 11  1  0
 10 24  1  0
 10 25  1  0
 11 12  1  0
 11 26  1  6
 12 13  1  0
 12 27  1  0
 12 28  1  0
 13 29  1  0
 13 30  1  0
 14 15  1  0
M  CHG  2   6  -1   7   1
M  END
>  <i_m_ct_stereo_status>  (102) 
1

>  <s_m_source_file>  (102) 
/var/tmp/pbs.5076255.sched01/tmpdonsa7tf/408ubvndgu.sdf

>  <i_m_source_file_index>  (102) 
8

>  <i_lp_mmshare_version>  (102) 
48012

>  <i_f3d_flags>  (102) 
0

>  <s_epik_input>  (102) 
W0NIM11jMVtjSF1jKG5vMSlbQ0BIXShbT0hdKU4oW0NAQEhdMjMpW0NASF0oW0NIMl1bQ0gyXTIpW0NIMl1bQ0gyXTM=

>  <s_epik_cmdline>  (102) 
J2VwaWtfcHl0aG9uJywgJy1waHQnLCAnMi4wJywgJy1waCcsICc3LjAnLCAnLXRuJywgJzgnLCAnLW1hJywgJzIwMCcsICctaW1hZScsICc8aW5maWxlLm1hZT4nLCAnLW9tYWUnLCAnPG91dGZpbGUubWFlPic=

>  <r_lp_tautomer_probability>  (102) 
1

>  <r_epik_Ionization_Penalty>  (102) 
8.50821e-05

>  <r_epik_Ionization_Penalty_Charging>  (102) 
8.50821e-05

>  <r_epik_Ionization_Penalty_Neutral>  (102) 
5.47703e-12

>  <r_epik_State_Penalty>  (102) 
-0

>  <r_epik_Charging_Adjusted_Penalty>  (102) 
8.50821e-05

>  <i_epik_Tot_Q>  (102) 
0

>  <i_epik_Tot_abs_Q>  (102) 
2

>  <s_epik_Chemistry_Notes>  (102) 
This compound contains an acetal/aminal-like group ( X-CH(R)-Y where X, Y are N, S, or O) that may be acid/base labile, releasing an aldehyde.

>  <s_lp_Force_Field>  (102) 
OPLS3e

>  <r_lp_Energy>  (102) 
27.2524

>  <b_lp_Chiralities_Consistent>  (102) 
1

>  <s_lp_Variant>  (102) 
37:0-1

>  <s_i_glide_gridfile>  (102) 
pfpi4k_grid

>  <i_i_glide_lignum>  (102) 
8

>  <i_i_glide_rotatable_bonds>  (102) 
2

>  <r_i_docking_score>  (102) 
-3.74334

>  <r_i_glide_ligand_efficiency>  (102) 
-0.249556

>  <r_i_glide_ligand_efficiency_sa>  (102) 
-0.615457

>  <r_i_glide_ligand_efficiency_ln>  (102) 
-1.00952

>  <r_i_glide_gscore>  (102) 
-3.74334

>  <r_i_glide_lipo>  (102) 
-0.64358

>  <r_i_glide_hbond>  (102) 
-0.2

>  <r_i_glide_metal>  (102) 
-0

>  <r_i_glide_rewards>  (102) 
-1.98916

>  <r_i_glide_evdw>  (102) 
-12.772

>  <r_i_glide_ecoul>  (102) 
-6.54873

>  <r_i_glide_erotb>  (102) 
0.76328

>  <r_i_glide_esite>  (102) 
-0.0529697

>  <r_i_glide_emodel>  (102) 
-27.6182

>  <r_i_glide_energy>  (102) 
-19.3207

>  <r_i_glide_einternal>  (102) 
0.839395

>  <r_i_glide_intrahb_reward>  (102) 
-0

>  <i_i_glide_confnum>  (102) 
4

>  <i_i_glide_posenum>  (102) 
9

>  <r_i_glide_eff_state_penalty>  (102) 
0

>  <ligand_id>  (102) 
37

>  <original_smiles>  (102) 
Cc1cc(C(O)N2C3CCC2CC3)no1

>  <smiles>  (102) 
[H]c1c(C([H])([O-])[N+]2([H])C3([H])C([H])([H])C([H])([H])C2([H])C([H])([H])C3([H])[H])noc1C([H])([H])[H]

$$$$
38:0:0
     RDKit          3D

 47 51  0  0  1  0  0  0  0  0999 V2000
    6.1788   -3.3934   -2.9952 C   0  0  0  0  0  0  0  0  0  0  0  0
    4.9811   -2.7106   -2.3179 C   0  0  0  0  0  0  0  0  0  0  0  0
    4.2176   -2.2004   -3.5991 C   0  0  0  0  0  0  0  0  0  0  0  0
    4.2054   -3.6897   -1.4816 C   0  0  2  0  0  0  0  0  0  0  0  0
    3.0254   -2.7586   -1.0184 C   0  0  1  0  0  0  0  0  0  0  0  0
    2.4144   -3.0913    0.3205 C   0  0  0  0  0  0  0  0  0  0  0  0
    3.4564   -3.4509    1.3459 C   0  0  1  0  0  0  0  0  0  0  0  0
    4.1019   -4.7405    0.7681 C   0  0  0  0  0  0  0  0  0  0  0  0
    5.1265   -4.3624   -0.3557 C   0  0  2  0  0  0  0  0  0  0  0  0
    6.3269   -3.4601    0.2052 C   0  0  0  0  0  0  0  0  0  0  0  0
    6.9644   -4.1922    1.4289 C   0  0  0  0  0  0  0  0  0  0  0  0
    7.6631   -3.1406   -0.5317 C   0  0  0  0  0  0  0  0  0  0  0  0
    5.5545   -2.1498    0.3798 C   0  0  2  0  0  0  0  0  0  0  0  0
    5.8289   -0.8978    1.2184 C   0  0  0  0  0  0  0  0  0  0  0  0
    4.4871   -0.9848    1.7656 O   0  0  0  0  0  0  0  0  0  0  0  0
    4.5771   -2.3971    1.6033 C   0  0  1  0  0  0  0  0  0  0  0  0
    4.9820   -2.6993    3.0811 C   0  0  0  0  0  0  0  0  0  0  0  0
    5.0707   -1.6659   -1.1080 C   0  0  2  0  0  0  0  0  0  0  0  0
    3.5826   -1.3396   -1.0019 C   0  0  0  0  0  0  0  0  0  0  0  0
    5.9544   -3.8521   -3.9563 H   0  0  0  0  0  0  0  0  0  0  0  0
    6.5254   -4.2408   -2.4423 H   0  0  0  0  0  0  0  0  0  0  0  0
    7.0169   -2.7446   -3.1194 H   0  0  0  0  0  0  0  0  0  0  0  0
    3.1690   -1.9340   -3.4922 H   0  0  0  0  0  0  0  0  0  0  0  0
    4.1626   -2.9564   -4.3832 H   0  0  0  0  0  0  0  0  0  0  0  0
    4.7253   -1.3353   -4.0202 H   0  0  0  0  0  0  0  0  0  0  0  0
    3.8382   -4.4468   -2.1214 H   0  0  0  0  0  0  0  0  0  0  0  0
    2.2184   -2.8169   -1.7501 H   0  0  0  0  0  0  0  0  0  0  0  0
    1.7958   -2.2801    0.6954 H   0  0  0  0  0  0  0  0  0  0  0  0
    1.8096   -3.9661    0.1620 H   0  0  0  0  0  0  0  0  0  0  0  0
    2.9071   -3.6728    2.2594 H   0  0  0  0  0  0  0  0  0  0  0  0
    4.5260   -5.3356    1.5665 H   0  0  0  0  0  0  0  0  0  0  0  0
    3.3474   -5.4086    0.3643 H   0  0  0  0  0  0  0  0  0  0  0  0
    5.5458   -5.2974   -0.7382 H   0  0  0  0  0  0  0  0  0  0  0  0
    7.5542   -3.5020    1.9949 H   0  0  0  0  0  0  0  0  0  0  0  0
    7.6335   -4.9888    1.0968 H   0  0  0  0  0  0  0  0  0  0  0  0
    6.3204   -4.6867    2.1399 H   0  0  0  0  0  0  0  0  0  0  0  0
    8.4183   -2.7716    0.1578 H   0  0  0  0  0  0  0  0  0  0  0  0
    7.5969   -2.3139   -1.2266 H   0  0  0  0  0  0  0  0  0  0  0  0
    8.1128   -4.0087   -1.0121 H   0  0  0  0  0  0  0  0  0  0  0  0
    6.6443   -0.9745    1.9406 H   0  0  0  0  0  0  0  0  0  0  0  0
    5.9728    0.0046    0.6063 H   0  0  0  0  0  0  0  0  0  0  0  0
    4.9030   -3.7511    3.3518 H   0  0  0  0  0  0  0  0  0  0  0  0
    4.3282   -2.1793    3.7759 H   0  0  0  0  0  0  0  0  0  0  0  0
    5.9940   -2.3932    3.3300 H   0  0  0  0  0  0  0  0  0  0  0  0
    5.6117   -0.7838   -1.4422 H   0  0  0  0  0  0  0  0  0  0  0  0
    3.2200   -0.7394   -1.8304 H   0  0  0  0  0  0  0  0  0  0  0  0
    3.2713   -0.7607   -0.1407 H   0  0  0  0  0  0  0  0  0  0  0  0
  1  2  1  0
  1 20  1  0
  1 21  1  0
  1 22  1  0
  2 18  1  0
  2  3  1  0
  2  4  1  0
  3 23  1  0
  3 24  1  0
  3 25  1  0
  4  9  1  0
  4  5  1  0
  4 26  1  6
  5 19  1  0
  5  6  1  0
  5 27  1  6
  6  7  1  0
  6 28  1  0
  6 29  1  0
  7 16  1  0
  7  8  1  0
  7 30  1  1
  8  9  1  0
  8 31  1  0
  8 32  1  0
  9 10  1  0
  9 33  1  6
 10 11  1  0
 10 12  1  0
 10 13  1  0
 11 34  1  0
 11 35  1  0
 11 36  1  0
 12 37  1  0
 12 38  1  0
 12 39  1  0
 13 16  1  0
 13 14  1  1
 13 18  1  0
 14 15  1  0
 14 40  1  0
 14 41  1  0
 15 16  1  0
 16 17  1  1
 17 42  1  0
 17 43  1  0
 17 44  1  0
 18 19  1  0
 18 45  1  6
 19 46  1  0
 19 47  1  0
M  END
>  <i_m_ct_stereo_status>  (103) 
1

>  <s_m_source_file>  (103) 
/var/tmp/pbs.5076255.sched01/tmpdonsa7tf/408ubvndgu.sdf

>  <i_m_source_file_index>  (103) 
9

>  <i_lp_mmshare_version>  (103) 
48012

>  <i_f3d_flags>  (103) 
0

>  <s_epik_input>  (103) 
W0NIM11DMShbQ0gzXSlbQ0BASF0oW0NIMl0yKVtDQEhdKEMoW0NIM10pKFtDSDNdKVtDQEhdM1tDSDJdNClbQ0BIXTRbQ0gyXVtDQEBIXTJbQ0BdKFtDQEBdMTM1KShbQ0gzXSlPW0NIMl01

>  <s_epik_cmdline>  (103) 
J2VwaWtfcHl0aG9uJywgJy1waHQnLCAnMi4wJywgJy1waCcsICc3LjAnLCAnLXRuJywgJzgnLCAnLW1hJywgJzIwMCcsICctaW1hZScsICc8aW5maWxlLm1hZT4nLCAnLW9tYWUnLCAnPG91dGZpbGUubWFlPic=

>  <r_lp_tautomer_probability>  (103) 
1

>  <r_epik_Ionization_Penalty>  (103) 
8.67994e-11

>  <r_epik_Ionization_Penalty_Charging>  (103) 
0

>  <r_epik_Ionization_Penalty_Neutral>  (103) 
8.67994e-11

>  <r_epik_State_Penalty>  (103) 
-0

>  <r_epik_Charging_Adjusted_Penalty>  (103) 
0

>  <i_epik_Tot_Q>  (103) 
0

>  <i_epik_Tot_abs_Q>  (103) 
0

>  <s_lp_Force_Field>  (103) 
OPLS3e

>  <r_lp_Energy>  (103) 
154.486

>  <b_lp_Chiralities_Consistent>  (103) 
1

>  <s_lp_Variant>  (103) 
38:0-1

>  <s_i_glide_gridfile>  (103) 
pfpi4k_grid

>  <i_i_glide_lignum>  (103) 
9

>  <i_i_glide_rotatable_bonds>  (103) 
0

>  <r_i_docking_score>  (103) 
-3.15145

>  <r_i_glide_ligand_efficiency>  (103) 
-0.165866

>  <r_i_glide_ligand_efficiency_sa>  (103) 
-0.442597

>  <r_i_glide_ligand_efficiency_ln>  (103) 
-0.79896

>  <r_i_glide_gscore>  (103) 
-3.15145

>  <r_i_glide_lipo>  (103) 
-1.10119

>  <r_i_glide_hbond>  (103) 
0

>  <r_i_glide_metal>  (103) 
-0

>  <r_i_glide_rewards>  (103) 
-1.63354

>  <r_i_glide_evdw>  (103) 
-8.59719

>  <r_i_glide_ecoul>  (103) 
0.0875754

>  <r_i_glide_erotb>  (103) 
0

>  <r_i_glide_esite>  (103) 
0

>  <r_i_glide_emodel>  (103) 
-8.3359

>  <r_i_glide_energy>  (103) 
-8.50962

>  <r_i_glide_einternal>  (103) 
0

>  <r_i_glide_intrahb_reward>  (103) 
-0

>  <i_i_glide_confnum>  (103) 
1

>  <i_i_glide_posenum>  (103) 
1

>  <r_i_glide_eff_state_penalty>  (103) 
0

>  <ligand_id>  (103) 
38

>  <original_smiles>  (103) 
CC1(C)C2C3CC4CC2C(C)(C)C2(COC42C)C1C3

>  <smiles>  (103) 
[H]C([H])([H])C12OC([H])([H])C13C1([H])C([H])([H])C4([H])C([H])([H])C2([H])C([H])([H])C([H])(C4([H])C1(C([H])([H])[H])C([H])([H])[H])C3(C([H])([H])[H])C([H])([H])[H]

$$$$
38:0:1
     RDKit          3D

 47 51  0  0  1  0  0  0  0  0999 V2000
    4.8381   -2.3626   -3.5260 C   0  0  0  0  0  0  0  0  0  0  0  0
    3.9486   -2.1727   -2.2801 C   0  0  0  0  0  0  0  0  0  0  0  0
    2.7281   -1.4694   -2.9803 C   0  0  0  0  0  0  0  0  0  0  0  0
    3.6036   -3.4705   -1.6218 C   0  0  2  0  0  0  0  0  0  0  0  0
    2.6234   -2.9443   -0.4975 C   0  0  1  0  0  0  0  0  0  0  0  0
    2.5490   -3.7266    0.7986 C   0  0  0  0  0  0  0  0  0  0  0  0
    3.9451   -4.1225    1.2297 C   0  0  1  0  0  0  0  0  0  0  0  0
    4.4553   -5.0467    0.0817 C   0  0  0  0  0  0  0  0  0  0  0  0
    4.9530   -4.1955   -1.1298 C   0  0  2  0  0  0  0  0  0  0  0  0
    6.2129   -3.2513   -0.7153 C   0  0  0  0  0  0  0  0  0  0  0  0
    7.3563   -4.0700   -0.0098 C   0  0  0  0  0  0  0  0  0  0  0  0
    7.0899   -2.4708   -1.7272 C   0  0  0  0  0  0  0  0  0  0  0  0
    5.4367   -2.2256    0.1091 C   0  0  2  0  0  0  0  0  0  0  0  0
    5.8884   -1.1861    1.1496 C   0  0  0  0  0  0  0  0  0  0  0  0
    4.8702   -1.6996    2.0772 O   0  0  0  0  0  0  0  0  0  0  0  0
    4.9807   -2.9781    1.4164 C   0  0  1  0  0  0  0  0  0  0  0  0
    5.9234   -3.5737    2.4697 C   0  0  0  0  0  0  0  0  0  0  0  0
    4.4147   -1.4951   -0.8955 C   0  0  2  0  0  0  0  0  0  0  0  0
    3.1146   -1.5099   -0.1686 C   0  0  0  0  0  0  0  0  0  0  0  0
    4.2787   -2.5662   -4.4379 H   0  0  0  0  0  0  0  0  0  0  0  0
    5.5254   -3.1899   -3.4870 H   0  0  0  0  0  0  0  0  0  0  0  0
    5.3245   -1.4220   -3.7077 H   0  0  0  0  0  0  0  0  0  0  0  0
    1.8378   -1.4998   -2.4029 H   0  0  0  0  0  0  0  0  0  0  0  0
    2.4096   -1.9456   -3.9135 H   0  0  0  0  0  0  0  0  0  0  0  0
    2.9364   -0.4196   -3.2367 H   0  0  0  0  0  0  0  0  0  0  0  0
    3.0488   -4.0845   -2.3276 H   0  0  0  0  0  0  0  0  0  0  0  0
    1.6200   -3.0186   -0.8981 H   0  0  0  0  0  0  0  0  0  0  0  0
    2.0586   -3.1434    1.5787 H   0  0  0  0  0  0  0  0  0  0  0  0
    1.9382   -4.6204    0.6797 H   0  0  0  0  0  0  0  0  0  0  0  0
    3.8254   -4.6935    2.1505 H   0  0  0  0  0  0  0  0  0  0  0  0
    5.2143   -5.7222    0.4534 H   0  0  0  0  0  0  0  0  0  0  0  0
    3.6657   -5.7235   -0.2380 H   0  0  0  0  0  0  0  0  0  0  0  0
    5.2695   -4.8714   -1.9238 H   0  0  0  0  0  0  0  0  0  0  0  0
    8.0302   -3.4187    0.5539 H   0  0  0  0  0  0  0  0  0  0  0  0
    8.0349   -4.5767   -0.6764 H   0  0  0  0  0  0  0  0  0  0  0  0
    7.0319   -4.8920    0.6151 H   0  0  0  0  0  0  0  0  0  0  0  0
    8.0258   -2.1519   -1.2718 H   0  0  0  0  0  0  0  0  0  0  0  0
    6.6380   -1.5405   -2.0536 H   0  0  0  0  0  0  0  0  0  0  0  0
    7.3843   -3.0720   -2.5843 H   0  0  0  0  0  0  0  0  0  0  0  0
    6.9147   -1.2583    1.4934 H   0  0  0  0  0  0  0  0  0  0  0  0
    5.6857   -0.1511    0.8534 H   0  0  0  0  0  0  0  0  0  0  0  0
    6.0738   -4.6507    2.4001 H   0  0  0  0  0  0  0  0  0  0  0  0
    5.5968   -3.3850    3.4896 H   0  0  0  0  0  0  0  0  0  0  0  0
    6.8930   -3.1349    2.3278 H   0  0  0  0  0  0  0  0  0  0  0  0
    4.6952   -0.4527   -1.0843 H   0  0  0  0  0  0  0  0  0  0  0  0
    2.6359   -0.6649   -0.6625 H   0  0  0  0  0  0  0  0  0  0  0  0
    3.0506   -1.2774    0.8913 H   0  0  0  0  0  0  0  0  0  0  0  0
  1  2  1  0
  1 20  1  0
  1 21  1  0
  1 22  1  0
  2 18  1  0
  2  3  1  0
  2  4  1  0
  3 23  1  0
  3 24  1  0
  3 25  1  0
  4  9  1  0
  4  5  1  0
  4 26  1  6
  5 19  1  0
  5  6  1  0
  5 27  1  6
  6  7  1  0
  6 28  1  0
  6 29  1  0
  7 16  1  0
  7  8  1  0
  7 30  1  1
  8  9  1  0
  8 31  1  0
  8 32  1  0
  9 10  1  0
  9 33  1  6
 10 11  1  0
 10 12  1  0
 10 13  1  0
 11 34  1  0
 11 35  1  0
 11 36  1  0
 12 37  1  0
 12 38  1  0
 12 39  1  0
 13 16  1  0
 13 14  1  1
 13 18  1  0
 14 15  1  0
 14 40  1  0
 14 41  1  0
 15 16  1  0
 16 17  1  1
 17 42  1  0
 17 43  1  0
 17 44  1  0
 18 19  1  0
 18 45  1  6
 19 46  1  0
 19 47  1  0
M  END
>  <i_m_ct_stereo_status>  (104) 
1

>  <s_m_source_file>  (104) 
/var/tmp/pbs.5076255.sched01/tmpdonsa7tf/408ubvndgu.sdf

>  <i_m_source_file_index>  (104) 
9

>  <i_lp_mmshare_version>  (104) 
48012

>  <i_f3d_flags>  (104) 
0

>  <s_epik_input>  (104) 
W0NIM11DMShbQ0gzXSlbQ0BASF0oW0NIMl0yKVtDQEhdKEMoW0NIM10pKFtDSDNdKVtDQEhdM1tDSDJdNClbQ0BIXTRbQ0gyXVtDQEBIXTJbQ0BdKFtDQEBdMTM1KShbQ0gzXSlPW0NIMl01

>  <s_epik_cmdline>  (104) 
J2VwaWtfcHl0aG9uJywgJy1waHQnLCAnMi4wJywgJy1waCcsICc3LjAnLCAnLXRuJywgJzgnLCAnLW1hJywgJzIwMCcsICctaW1hZScsICc8aW5maWxlLm1hZT4nLCAnLW9tYWUnLCAnPG91dGZpbGUubWFlPic=

>  <r_lp_tautomer_probability>  (104) 
1

>  <r_epik_Ionization_Penalty>  (104) 
8.67994e-11

>  <r_epik_Ionization_Penalty_Charging>  (104) 
0

>  <r_epik_Ionization_Penalty_Neutral>  (104) 
8.67994e-11

>  <r_epik_State_Penalty>  (104) 
-0

>  <r_epik_Charging_Adjusted_Penalty>  (104) 
0

>  <i_epik_Tot_Q>  (104) 
0

>  <i_epik_Tot_abs_Q>  (104) 
0

>  <s_lp_Force_Field>  (104) 
OPLS3e

>  <r_lp_Energy>  (104) 
154.486

>  <b_lp_Chiralities_Consistent>  (104) 
1

>  <s_lp_Variant>  (104) 
38:0-1

>  <s_i_glide_gridfile>  (104) 
pfpi4k_grid

>  <i_i_glide_lignum>  (104) 
9

>  <i_i_glide_rotatable_bonds>  (104) 
0

>  <r_i_docking_score>  (104) 
-2.18889

>  <r_i_glide_ligand_efficiency>  (104) 
-0.115205

>  <r_i_glide_ligand_efficiency_sa>  (104) 
-0.307412

>  <r_i_glide_ligand_efficiency_ln>  (104) 
-0.554931

>  <r_i_glide_gscore>  (104) 
-2.18889

>  <r_i_glide_lipo>  (104) 
-0.43725

>  <r_i_glide_hbond>  (104) 
0

>  <r_i_glide_metal>  (104) 
-0

>  <r_i_glide_rewards>  (104) 
-1.63354

>  <r_i_glide_evdw>  (104) 
-1.99106

>  <r_i_glide_ecoul>  (104) 
-0.12365

>  <r_i_glide_erotb>  (104) 
0

>  <r_i_glide_esite>  (104) 
0

>  <r_i_glide_emodel>  (104) 
1.32784

>  <r_i_glide_energy>  (104) 
-2.11471

>  <r_i_glide_einternal>  (104) 
0

>  <r_i_glide_intrahb_reward>  (104) 
-0

>  <i_i_glide_confnum>  (104) 
1

>  <i_i_glide_posenum>  (104) 
38

>  <r_i_glide_eff_state_penalty>  (104) 
0

>  <ligand_id>  (104) 
38

>  <original_smiles>  (104) 
CC1(C)C2C3CC4CC2C(C)(C)C2(COC42C)C1C3

>  <smiles>  (104) 
[H]C([H])([H])C12OC([H])([H])C13C1([H])C([H])([H])C4([H])C([H])([H])C2([H])C([H])([H])C([H])(C4([H])C1(C([H])([H])[H])C([H])([H])[H])C3(C([H])([H])[H])C([H])([H])[H]

$$$$
39:0:0
     RDKit          3D

 50 53  0  0  1  0  0  0  0  0999 V2000
    1.9612   -3.2604   -3.8372 C   0  0  0  0  0  0  0  0  0  0  0  0
    3.2829   -2.5115   -3.7269 C   0  0  0  0  0  0  0  0  0  0  0  0
    4.4953   -3.4505   -3.9131 C   0  0  0  0  0  0  0  0  0  0  0  0
    3.3440   -1.7371   -2.3908 C   0  0  2  0  0  0  0  0  0  0  0  0
    4.5872   -0.8430   -2.2773 C   0  0  0  0  0  0  0  0  0  0  0  0
    5.4705   -1.5783   -1.4505 O   0  0  0  0  0  0  0  0  0  0  0  0
    4.6513   -2.1411   -0.4309 C   0  0  2  0  0  0  0  0  0  0  0  0
    3.3804   -2.6200   -1.1318 C   0  0  0  0  0  0  0  0  0  0  0  0
    4.4775   -1.1243    0.6704 C   0  0  1  0  0  0  0  0  0  0  0  0
    3.3108   -0.3879    1.2614 C   0  0  0  0  0  0  0  0  0  0  0  0
    3.7323   -0.3954    2.6867 N   0  0  1  0  0  0  0  0  0  0  0  0
    2.6294   -0.4090    3.6609 C   0  0  0  0  0  0  0  0  0  0  0  0
    3.1867   -0.5038    5.0979 C   0  0  0  0  0  0  0  0  0  0  0  0
    4.3089   -1.3854    5.2343 O   0  0  0  0  0  0  0  0  0  0  0  0
    4.4567   -2.3225    4.1773 C   0  0  0  0  0  0  0  0  0  0  0  0
    4.7271   -1.5163    2.8964 C   0  0  1  0  0  0  0  0  0  0  0  0
    4.5514   -2.2951    1.6106 C   0  0  2  0  0  0  0  0  0  0  0  0
    5.4929   -2.9802    0.6070 C   0  0  0  0  0  0  0  0  0  0  0  0
    5.3881   -4.5072    0.5407 C   0  0  0  0  0  0  0  0  0  0  0  0
    6.9937   -2.6755    0.7307 C   0  0  0  0  0  0  0  0  0  0  0  0
    1.8085   -3.9229   -2.9912 H   0  0  0  0  0  0  0  0  0  0  0  0
    1.9304   -3.8805   -4.7289 H   0  0  0  0  0  0  0  0  0  0  0  0
    1.1013   -2.6027   -3.8971 H   0  0  0  0  0  0  0  0  0  0  0  0
    3.2943   -1.7857   -4.5423 H   0  0  0  0  0  0  0  0  0  0  0  0
    4.6097   -4.1682   -3.1016 H   0  0  0  0  0  0  0  0  0  0  0  0
    5.4164   -2.8759   -3.9255 H   0  0  0  0  0  0  0  0  0  0  0  0
    4.4327   -4.0353   -4.8305 H   0  0  0  0  0  0  0  0  0  0  0  0
    2.5003   -1.0486   -2.3332 H   0  0  0  0  0  0  0  0  0  0  0  0
    5.0112   -0.6188   -3.2536 H   0  0  0  0  0  0  0  0  0  0  0  0
    4.3641    0.1181   -1.8056 H   0  0  0  0  0  0  0  0  0  0  0  0
    2.4735   -2.4508   -0.5528 H   0  0  0  0  0  0  0  0  0  0  0  0
    3.4151   -3.6972   -1.3106 H   0  0  0  0  0  0  0  0  0  0  0  0
    5.3644   -0.4812    0.7137 H   0  0  0  0  0  0  0  0  0  0  0  0
    3.1844    0.6286    0.8949 H   0  0  0  0  0  0  0  0  0  0  0  0
    2.3624   -0.9275    1.1202 H   0  0  0  0  0  0  0  0  0  0  0  0
    2.0226    0.4946    3.5377 H   0  0  0  0  0  0  0  0  0  0  0  0
    1.9680   -1.2648    3.4646 H   0  0  0  0  0  0  0  0  0  0  0  0
    3.4971    0.4889    5.4364 H   0  0  0  0  0  0  0  0  0  0  0  0
    2.3823   -0.8427    5.7552 H   0  0  0  0  0  0  0  0  0  0  0  0
    5.3116   -2.9828    4.3753 H   0  0  0  0  0  0  0  0  0  0  0  0
    3.5664   -2.9480    4.0998 H   0  0  0  0  0  0  0  0  0  0  0  0
    5.7255   -1.0821    2.9658 H   0  0  0  0  0  0  0  0  0  0  0  0
    3.6128   -2.8610    1.6227 H   0  0  0  0  0  0  0  0  0  0  0  0
    5.8985   -4.9675    1.3901 H   0  0  0  0  0  0  0  0  0  0  0  0
    5.8412   -4.9061   -0.3705 H   0  0  0  0  0  0  0  0  0  0  0  0
    4.3482   -4.8373    0.5671 H   0  0  0  0  0  0  0  0  0  0  0  0
    7.3856   -3.1138    1.6488 H   0  0  0  0  0  0  0  0  0  0  0  0
    7.2180   -1.6101    0.7551 H   0  0  0  0  0  0  0  0  0  0  0  0
    7.5531   -3.1096   -0.1013 H   0  0  0  0  0  0  0  0  0  0  0  0
    4.2406    0.4621    2.8417 H   0  0  0  0  0  0  0  0  0  0  0  0
  1  2  1  0
  1 21  1  0
  1 22  1  0
  1 23  1  0
  2  3  1  0
  2  4  1  0
  2 24  1  0
  3 25  1  0
  3 26  1  0
  3 27  1  0
  4  8  1  0
  4  5  1  0
  4 28  1  1
  5  6  1  0
  5 29  1  0
  5 30  1  0
  7  6  1  6
  7 18  1  0
  7  8  1  0
  7  9  1  0
  8 31  1  0
  8 32  1  0
  9 17  1  0
  9 10  1  0
  9 33  1  1
 10 11  1  0
 10 34  1  0
 10 35  1  0
 11 16  1  0
 11 12  1  0
 11 50  1  1
 12 13  1  0
 12 36  1  0
 12 37  1  0
 13 14  1  0
 13 38  1  0
 13 39  1  0
 14 15  1  0
 15 16  1  0
 15 40  1  0
 15 41  1  0
 16 17  1  0
 16 42  1  1
 17 18  1  0
 17 43  1  1
 18 19  1  0
 18 20  1  0
 19 44  1  0
 19 45  1  0
 19 46  1  0
 20 47  1  0
 20 48  1  0
 20 49  1  0
M  CHG  1  11   1
M  END
>  <i_m_ct_stereo_status>  (105) 
1

>  <s_m_source_file>  (105) 
/var/tmp/pbs.5076255.sched01/tmpdonsa7tf/408ubvndgu.sdf

>  <i_m_source_file_index>  (105) 
10

>  <i_lp_mmshare_version>  (105) 
48012

>  <i_f3d_flags>  (105) 
0

>  <s_epik_input>  (105) 
W0NIM11bQ0hdKFtDSDNdKVtDQEBIXShbQ0gyXTEpW0NIMl1PW0NAQF0xMltDQEBIXTNbQ0BASF0oQzIoW0NIM10pW0NIM10pW0NASF00TihbQ0gyXTMpW0NIMl1bQ0gyXU9bQ0gyXTQ=

>  <s_epik_cmdline>  (105) 
J2VwaWtfcHl0aG9uJywgJy1waHQnLCAnMi4wJywgJy1waCcsICc3LjAnLCAnLXRuJywgJzgnLCAnLW1hJywgJzIwMCcsICctaW1hZScsICc8aW5maWxlLm1hZT4nLCAnLW9tYWUnLCAnPG91dGZpbGUubWFlPic=

>  <r_epik_Ionization_Penalty>  (105) 
0.272027

>  <r_epik_Ionization_Penalty_Charging>  (105) 
0.272027

>  <r_epik_Ionization_Penalty_Neutral>  (105) 
6.67882e-12

>  <r_epik_State_Penalty>  (105) 
0.264214

>  <r_epik_Charging_Adjusted_Penalty>  (105) 
0.536242

>  <i_epik_Tot_Q>  (105) 
1

>  <i_epik_Tot_abs_Q>  (105) 
1

>  <s_lp_Force_Field>  (105) 
OPLS3e

>  <r_lp_Energy>  (105) 
62.2414

>  <b_lp_Chiralities_Consistent>  (105) 
1

>  <s_lp_Variant>  (105) 
39:0-1

>  <s_i_glide_gridfile>  (105) 
pfpi4k_grid

>  <i_i_glide_lignum>  (105) 
10

>  <i_i_glide_rotatable_bonds>  (105) 
1

>  <r_i_docking_score>  (105) 
-3.69528

>  <r_i_glide_ligand_efficiency>  (105) 
-0.184764

>  <r_i_glide_ligand_efficiency_sa>  (105) 
-0.501526

>  <r_i_glide_ligand_efficiency_ln>  (105) 
-0.924806

>  <r_i_glide_gscore>  (105) 
-3.69528

>  <r_i_glide_lipo>  (105) 
-0.744966

>  <r_i_glide_hbond>  (105) 
0

>  <r_i_glide_metal>  (105) 
-0

>  <r_i_glide_rewards>  (105) 
-1.4971

>  <r_i_glide_evdw>  (105) 
-18.2162

>  <r_i_glide_ecoul>  (105) 
-3.61602

>  <r_i_glide_erotb>  (105) 
0

>  <r_i_glide_esite>  (105) 
0

>  <r_i_glide_emodel>  (105) 
-25.8385

>  <r_i_glide_energy>  (105) 
-21.8322

>  <r_i_glide_einternal>  (105) 
1.47021

>  <r_i_glide_intrahb_reward>  (105) 
-0

>  <i_i_glide_confnum>  (105) 
1

>  <i_i_glide_posenum>  (105) 
1

>  <r_i_glide_eff_state_penalty>  (105) 
0

>  <ligand_id>  (105) 
39

>  <original_smiles>  (105) 
CC(C)C1COC2(C1)C1CN3CCOCC3C1C2(C)C

>  <smiles>  (105) 
[H]C([H])([H])C([H])(C([H])([H])[H])C1([H])C([H])([H])OC2(C1([H])[H])C1([H])C([H])(C2(C([H])([H])[H])C([H])([H])[H])C2([H])C([H])([H])OC([H])([H])C([H])([H])[N+]2([H])C1([H])[H]

$$$$
39:0:1
     RDKit          3D

 50 53  0  0  1  0  0  0  0  0999 V2000
    2.2726   -6.2508    2.6497 C   0  0  0  0  0  0  0  0  0  0  0  0
    3.7772   -6.0534    2.4001 C   0  0  0  0  0  0  0  0  0  0  0  0
    4.4645   -5.2075    3.4958 C   0  0  0  0  0  0  0  0  0  0  0  0
    4.0423   -5.4989    0.9777 C   0  0  2  0  0  0  0  0  0  0  0  0
    5.5405   -5.3871    0.6240 C   0  0  0  0  0  0  0  0  0  0  0  0
    5.8116   -4.0087    0.7556 O   0  0  0  0  0  0  0  0  0  0  0  0
    4.6978   -3.3192    0.2259 C   0  0  2  0  0  0  0  0  0  0  0  0
    3.4690   -4.0919    0.6990 C   0  0  0  0  0  0  0  0  0  0  0  0
    4.9159   -3.1490   -1.2503 C   0  0  1  0  0  0  0  0  0  0  0  0
    4.2248   -3.6540   -2.4745 C   0  0  0  0  0  0  0  0  0  0  0  0
    4.3764   -2.4379   -3.3181 N   0  0  1  0  0  0  0  0  0  0  0  0
    3.2620   -2.2251   -4.2712 C   0  0  0  0  0  0  0  0  0  0  0  0
    3.4721   -0.8859   -5.0238 C   0  0  0  0  0  0  0  0  0  0  0  0
    4.0493    0.1405   -4.2497 O   0  0  0  0  0  0  0  0  0  0  0  0
    3.8094   -0.0556   -2.8855 C   0  0  0  0  0  0  0  0  0  0  0  0
    4.6235   -1.2657   -2.4358 C   0  0  1  0  0  0  0  0  0  0  0  0
    4.2642   -1.8102   -1.0769 C   0  0  2  0  0  0  0  0  0  0  0  0
    4.8885   -1.7544    0.3241 C   0  0  0  0  0  0  0  0  0  0  0  0
    4.0728   -1.0030    1.3718 C   0  0  0  0  0  0  0  0  0  0  0  0
    6.3128   -1.1928    0.4554 C   0  0  0  0  0  0  0  0  0  0  0  0
    1.7062   -5.3292    2.5238 H   0  0  0  0  0  0  0  0  0  0  0  0
    2.0873   -6.5982    3.6655 H   0  0  0  0  0  0  0  0  0  0  0  0
    1.8620   -6.9821    1.9494 H   0  0  0  0  0  0  0  0  0  0  0  0
    4.2144   -7.0536    2.4564 H   0  0  0  0  0  0  0  0  0  0  0  0
    4.1902   -4.1532    3.4599 H   0  0  0  0  0  0  0  0  0  0  0  0
    5.5484   -5.2351    3.3738 H   0  0  0  0  0  0  0  0  0  0  0  0
    4.2312   -5.5623    4.5012 H   0  0  0  0  0  0  0  0  0  0  0  0
    3.6376   -6.1849    0.2293 H   0  0  0  0  0  0  0  0  0  0  0  0
    6.2072   -6.0004    1.2284 H   0  0  0  0  0  0  0  0  0  0  0  0
    5.7331   -5.6679   -0.4136 H   0  0  0  0  0  0  0  0  0  0  0  0
    2.6664   -4.1845   -0.0357 H   0  0  0  0  0  0  0  0  0  0  0  0
    3.0186   -3.5565    1.5410 H   0  0  0  0  0  0  0  0  0  0  0  0
    5.9898   -3.0852   -1.4420 H   0  0  0  0  0  0  0  0  0  0  0  0
    4.6979   -4.5282   -2.8988 H   0  0  0  0  0  0  0  0  0  0  0  0
    3.1613   -3.8559   -2.2823 H   0  0  0  0  0  0  0  0  0  0  0  0
    3.1843   -3.0790   -4.9302 H   0  0  0  0  0  0  0  0  0  0  0  0
    2.3050   -2.1773   -3.7232 H   0  0  0  0  0  0  0  0  0  0  0  0
    4.1779   -1.0444   -5.8266 H   0  0  0  0  0  0  0  0  0  0  0  0
    2.5368   -0.5001   -5.4332 H   0  0  0  0  0  0  0  0  0  0  0  0
    4.1937    0.8021   -2.3454 H   0  0  0  0  0  0  0  0  0  0  0  0
    2.7309   -0.1937   -2.7418 H   0  0  0  0  0  0  0  0  0  0  0  0
    5.6776   -1.0056   -2.4258 H   0  0  0  0  0  0  0  0  0  0  0  0
    3.1823   -1.9054   -0.9442 H   0  0  0  0  0  0  0  0  0  0  0  0
    4.1697    0.0780    1.2457 H   0  0  0  0  0  0  0  0  0  0  0  0
    4.3921   -1.2367    2.3900 H   0  0  0  0  0  0  0  0  0  0  0  0
    3.0146   -1.2420    1.2922 H   0  0  0  0  0  0  0  0  0  0  0  0
    6.3230   -0.1281    0.2142 H   0  0  0  0  0  0  0  0  0  0  0  0
    7.0273   -1.6917   -0.1874 H   0  0  0  0  0  0  0  0  0  0  0  0
    6.6838   -1.2900    1.4793 H   0  0  0  0  0  0  0  0  0  0  0  0
    5.2283   -2.5895   -3.8422 H   0  0  0  0  0  0  0  0  0  0  0  0
  1  2  1  0
  1 21  1  0
  1 22  1  0
  1 23  1  0
  2  3  1  0
  2  4  1  0
  2 24  1  0
  3 25  1  0
  3 26  1  0
  3 27  1  0
  4  8  1  0
  4  5  1  0
  4 28  1  6
  5  6  1  0
  5 29  1  0
  5 30  1  0
  7  6  1  1
  7 18  1  0
  7  8  1  0
  7  9  1  0
  8 31  1  0
  8 32  1  0
  9 17  1  0
  9 10  1  0
  9 33  1  6
 10 11  1  0
 10 34  1  0
 10 35  1  0
 11 16  1  0
 11 12  1  0
 11 50  1  6
 12 13  1  0
 12 36  1  0
 12 37  1  0
 13 14  1  0
 13 38  1  0
 13 39  1  0
 14 15  1  0
 15 16  1  0
 15 40  1  0
 15 41  1  0
 16 17  1  0
 16 42  1  1
 17 18  1  0
 17 43  1  1
 18 19  1  0
 18 20  1  0
 19 44  1  0
 19 45  1  0
 19 46  1  0
 20 47  1  0
 20 48  1  0
 20 49  1  0
M  CHG  1  11   1
M  END
>  <i_m_ct_stereo_status>  (106) 
1

>  <s_m_source_file>  (106) 
/var/tmp/pbs.5076255.sched01/tmpdonsa7tf/408ubvndgu.sdf

>  <i_m_source_file_index>  (106) 
10

>  <i_lp_mmshare_version>  (106) 
48012

>  <i_f3d_flags>  (106) 
0

>  <s_epik_input>  (106) 
W0NIM11bQ0hdKFtDSDNdKVtDQEBIXShbQ0gyXTEpW0NIMl1PW0NAQF0xMltDQEBIXTNbQ0BASF0oQzIoW0NIM10pW0NIM10pW0NASF00TihbQ0gyXTMpW0NIMl1bQ0gyXU9bQ0gyXTQ=

>  <s_epik_cmdline>  (106) 
J2VwaWtfcHl0aG9uJywgJy1waHQnLCAnMi4wJywgJy1waCcsICc3LjAnLCAnLXRuJywgJzgnLCAnLW1hJywgJzIwMCcsICctaW1hZScsICc8aW5maWxlLm1hZT4nLCAnLW9tYWUnLCAnPG91dGZpbGUubWFlPic=

>  <r_epik_Ionization_Penalty>  (106) 
0.272027

>  <r_epik_Ionization_Penalty_Charging>  (106) 
0.272027

>  <r_epik_Ionization_Penalty_Neutral>  (106) 
6.67882e-12

>  <r_epik_State_Penalty>  (106) 
0.264214

>  <r_epik_Charging_Adjusted_Penalty>  (106) 
0.536242

>  <i_epik_Tot_Q>  (106) 
1

>  <i_epik_Tot_abs_Q>  (106) 
1

>  <s_lp_Force_Field>  (106) 
OPLS3e

>  <r_lp_Energy>  (106) 
62.2414

>  <b_lp_Chiralities_Consistent>  (106) 
1

>  <s_lp_Variant>  (106) 
39:0-1

>  <s_i_glide_gridfile>  (106) 
pfpi4k_grid

>  <i_i_glide_lignum>  (106) 
10

>  <i_i_glide_rotatable_bonds>  (106) 
1

>  <r_i_docking_score>  (106) 
-3.00761

>  <r_i_glide_ligand_efficiency>  (106) 
-0.15038

>  <r_i_glide_ligand_efficiency_sa>  (106) 
-0.408195

>  <r_i_glide_ligand_efficiency_ln>  (106) 
-0.752705

>  <r_i_glide_gscore>  (106) 
-3.00761

>  <r_i_glide_lipo>  (106) 
-0.38769

>  <r_i_glide_hbond>  (106) 
0

>  <r_i_glide_metal>  (106) 
-0

>  <r_i_glide_rewards>  (106) 
-1.4971

>  <r_i_glide_evdw>  (106) 
-15.0839

>  <r_i_glide_ecoul>  (106) 
-2.4575

>  <r_i_glide_erotb>  (106) 
0

>  <r_i_glide_esite>  (106) 
0

>  <r_i_glide_emodel>  (106) 
-20.079

>  <r_i_glide_energy>  (106) 
-17.5414

>  <r_i_glide_einternal>  (106) 
1.27419

>  <r_i_glide_intrahb_reward>  (106) 
-0

>  <i_i_glide_confnum>  (106) 
1

>  <i_i_glide_posenum>  (106) 
34

>  <r_i_glide_eff_state_penalty>  (106) 
0

>  <ligand_id>  (106) 
39

>  <original_smiles>  (106) 
CC(C)C1COC2(C1)C1CN3CCOCC3C1C2(C)C

>  <smiles>  (106) 
[H]C([H])([H])C([H])(C([H])([H])[H])C1([H])C([H])([H])OC2(C1([H])[H])C1([H])C([H])(C2(C([H])([H])[H])C([H])([H])[H])C2([H])C([H])([H])OC([H])([H])C([H])([H])[N+]2([H])C1([H])[H]

$$$$
39:0:2
     RDKit          3D

 50 53  0  0  1  0  0  0  0  0999 V2000
    2.8544   -5.9032    3.8119 C   0  0  0  0  0  0  0  0  0  0  0  0
    2.5783   -4.4725    3.2936 C   0  0  0  0  0  0  0  0  0  0  0  0
    1.0986   -4.1563    3.5520 C   0  0  0  0  0  0  0  0  0  0  0  0
    2.9568   -4.2567    1.7973 C   0  0  2  0  0  0  0  0  0  0  0  0
    4.4472   -4.5189    1.4341 C   0  0  0  0  0  0  0  0  0  0  0  0
    5.0226   -3.2402    1.3338 O   0  0  0  0  0  0  0  0  0  0  0  0
    4.0659   -2.4688    0.6421 C   0  0  2  0  0  0  0  0  0  0  0  0
    2.7166   -2.8232    1.2735 C   0  0  0  0  0  0  0  0  0  0  0  0
    4.2696   -2.6691   -0.8374 C   0  0  1  0  0  0  0  0  0  0  0  0
    3.4637   -3.2430   -1.9482 C   0  0  0  0  0  0  0  0  0  0  0  0
    3.9049   -2.3151   -3.0347 N   0  0  1  0  0  0  0  0  0  0  0  0
    2.8647   -2.0673   -4.0551 C   0  0  0  0  0  0  0  0  0  0  0  0
    3.2495   -0.8614   -4.9749 C   0  0  0  0  0  0  0  0  0  0  0  0
    4.1575    0.0466   -4.4262 O   0  0  0  0  0  0  0  0  0  0  0  0
    3.9051    0.1761   -3.0818 C   0  0  0  0  0  0  0  0  0  0  0  0
    4.4558   -1.0720   -2.4033 C   0  0  1  0  0  0  0  0  0  0  0  0
    3.9815   -1.2129   -0.9791 C   0  0  2  0  0  0  0  0  0  0  0  0
    4.6001   -1.0134    0.4155 C   0  0  0  0  0  0  0  0  0  0  0  0
    3.9444    0.0835    1.2413 C   0  0  0  0  0  0  0  0  0  0  0  0
    6.1182   -0.7963    0.5121 C   0  0  0  0  0  0  0  0  0  0  0  0
    2.3329   -6.6569    3.2279 H   0  0  0  0  0  0  0  0  0  0  0  0
    2.5108   -6.0200    4.8408 H   0  0  0  0  0  0  0  0  0  0  0  0
    3.9123   -6.1558    3.8071 H   0  0  0  0  0  0  0  0  0  0  0  0
    3.1765   -3.7919    3.8893 H   0  0  0  0  0  0  0  0  0  0  0  0
    0.4830   -4.8139    2.9490 H   0  0  0  0  0  0  0  0  0  0  0  0
    0.8361   -3.1301    3.3084 H   0  0  0  0  0  0  0  0  0  0  0  0
    0.8192   -4.3178    4.5913 H   0  0  0  0  0  0  0  0  0  0  0  0
    2.3780   -4.9417    1.1709 H   0  0  0  0  0  0  0  0  0  0  0  0
    5.0478   -5.0784    2.1474 H   0  0  0  0  0  0  0  0  0  0  0  0
    4.5156   -5.0196    0.4544 H   0  0  0  0  0  0  0  0  0  0  0  0
    1.8558   -2.8026    0.5929 H   0  0  0  0  0  0  0  0  0  0  0  0
    2.5069   -2.0808    2.0553 H   0  0  0  0  0  0  0  0  0  0  0  0
    5.3192   -2.8991   -1.0266 H   0  0  0  0  0  0  0  0  0  0  0  0
    3.7187   -4.2632   -2.1540 H   0  0  0  0  0  0  0  0  0  0  0  0
    2.3812   -3.1393   -1.7532 H   0  0  0  0  0  0  0  0  0  0  0  0
    2.6787   -2.9704   -4.6153 H   0  0  0  0  0  0  0  0  0  0  0  0
    1.9139   -1.8920   -3.5003 H   0  0  0  0  0  0  0  0  0  0  0  0
    3.9073   -1.1981   -5.7620 H   0  0  0  0  0  0  0  0  0  0  0  0
    2.3851   -0.2949   -5.3635 H   0  0  0  0  0  0  0  0  0  0  0  0
    4.4534    1.0279   -2.7145 H   0  0  0  0  0  0  0  0  0  0  0  0
    2.8199    0.2736   -2.9833 H   0  0  0  0  0  0  0  0  0  0  0  0
    5.5373   -1.0574   -2.4699 H   0  0  0  0  0  0  0  0  0  0  0  0
    2.9218   -0.9872   -0.8901 H   0  0  0  0  0  0  0  0  0  0  0  0
    4.2066    1.0511    0.8126 H   0  0  0  0  0  0  0  0  0  0  0  0
    4.2850    0.0545    2.2853 H   0  0  0  0  0  0  0  0  0  0  0  0
    2.8553   -0.0012    1.2228 H   0  0  0  0  0  0  0  0  0  0  0  0
    6.3739    0.1796    0.1009 H   0  0  0  0  0  0  0  0  0  0  0  0
    6.6976   -1.5441   -0.0133 H   0  0  0  0  0  0  0  0  0  0  0  0
    6.4521   -0.7864    1.5570 H   0  0  0  0  0  0  0  0  0  0  0  0
    4.6954   -2.7692   -3.4917 H   0  0  0  0  0  0  0  0  0  0  0  0
  1  2  1  0
  1 21  1  0
  1 22  1  0
  1 23  1  0
  2  3  1  0
  2  4  1  0
  2 24  1  0
  3 25  1  0
  3 26  1  0
  3 27  1  0
  4  8  1  0
  4  5  1  0
  4 28  1  6
  5  6  1  0
  5 29  1  0
  5 30  1  0
  7  6  1  1
  7 18  1  0
  7  8  1  0
  7  9  1  0
  8 31  1  0
  8 32  1  0
  9 17  1  0
  9 10  1  0
  9 33  1  1
 10 11  1  0
 10 34  1  0
 10 35  1  0
 11 16  1  0
 11 12  1  0
 11 50  1  6
 12 13  1  0
 12 36  1  0
 12 37  1  0
 13 14  1  0
 13 38  1  0
 13 39  1  0
 14 15  1  0
 15 16  1  0
 15 40  1  0
 15 41  1  0
 16 17  1  0
 16 42  1  1
 17 18  1  0
 17 43  1  6
 18 19  1  0
 18 20  1  0
 19 44  1  0
 19 45  1  0
 19 46  1  0
 20 47  1  0
 20 48  1  0
 20 49  1  0
M  CHG  1  11   1
M  END
>  <i_m_ct_stereo_status>  (107) 
1

>  <s_m_source_file>  (107) 
/var/tmp/pbs.5076255.sched01/tmpdonsa7tf/408ubvndgu.sdf

>  <i_m_source_file_index>  (107) 
10

>  <i_lp_mmshare_version>  (107) 
48012

>  <i_f3d_flags>  (107) 
0

>  <s_epik_input>  (107) 
W0NIM11bQ0hdKFtDSDNdKVtDQEBIXShbQ0gyXTEpW0NIMl1PW0NAQF0xMltDQEBIXTNbQ0BASF0oQzIoW0NIM10pW0NIM10pW0NASF00TihbQ0gyXTMpW0NIMl1bQ0gyXU9bQ0gyXTQ=

>  <s_epik_cmdline>  (107) 
J2VwaWtfcHl0aG9uJywgJy1waHQnLCAnMi4wJywgJy1waCcsICc3LjAnLCAnLXRuJywgJzgnLCAnLW1hJywgJzIwMCcsICctaW1hZScsICc8aW5maWxlLm1hZT4nLCAnLW9tYWUnLCAnPG91dGZpbGUubWFlPic=

>  <r_epik_Ionization_Penalty>  (107) 
0.272027

>  <r_epik_Ionization_Penalty_Charging>  (107) 
0.272027

>  <r_epik_Ionization_Penalty_Neutral>  (107) 
6.67882e-12

>  <r_epik_State_Penalty>  (107) 
0.264214

>  <r_epik_Charging_Adjusted_Penalty>  (107) 
0.536242

>  <i_epik_Tot_Q>  (107) 
1

>  <i_epik_Tot_abs_Q>  (107) 
1

>  <s_lp_Force_Field>  (107) 
OPLS3e

>  <r_lp_Energy>  (107) 
62.2414

>  <b_lp_Chiralities_Consistent>  (107) 
1

>  <s_lp_Variant>  (107) 
39:0-1

>  <s_i_glide_gridfile>  (107) 
pfpi4k_grid

>  <i_i_glide_lignum>  (107) 
10

>  <i_i_glide_rotatable_bonds>  (107) 
1

>  <r_i_docking_score>  (107) 
-2.98566

>  <r_i_glide_ligand_efficiency>  (107) 
-0.149283

>  <r_i_glide_ligand_efficiency_sa>  (107) 
-0.405216

>  <r_i_glide_ligand_efficiency_ln>  (107) 
-0.747212

>  <r_i_glide_gscore>  (107) 
-2.98566

>  <r_i_glide_lipo>  (107) 
-0.347369

>  <r_i_glide_hbond>  (107) 
0

>  <r_i_glide_metal>  (107) 
-0

>  <r_i_glide_rewards>  (107) 
-1.4971

>  <r_i_glide_evdw>  (107) 
-10.9983

>  <r_i_glide_ecoul>  (107) 
-3.94183

>  <r_i_glide_erotb>  (107) 
0

>  <r_i_glide_esite>  (107) 
0

>  <r_i_glide_emodel>  (107) 
-18.1284

>  <r_i_glide_energy>  (107) 
-14.9402

>  <r_i_glide_einternal>  (107) 
0.0334183

>  <r_i_glide_intrahb_reward>  (107) 
-0

>  <i_i_glide_confnum>  (107) 
1

>  <i_i_glide_posenum>  (107) 
14

>  <r_i_glide_eff_state_penalty>  (107) 
0

>  <ligand_id>  (107) 
39

>  <original_smiles>  (107) 
CC(C)C1COC2(C1)C1CN3CCOCC3C1C2(C)C

>  <smiles>  (107) 
[H]C([H])([H])C([H])(C([H])([H])[H])C1([H])C([H])([H])OC2(C1([H])[H])C1([H])C([H])(C2(C([H])([H])[H])C([H])([H])[H])C2([H])C([H])([H])OC([H])([H])C([H])([H])[N+]2([H])C1([H])[H]

$$$$
39:1:0
     RDKit          3D

 49 52  0  0  1  0  0  0  0  0999 V2000
    1.6928   -4.7987    4.2698 C   0  0  0  0  0  0  0  0  0  0  0  0
    2.4015   -5.7189    3.2662 C   0  0  0  0  0  0  0  0  0  0  0  0
    3.0119   -6.9349    3.9818 C   0  0  0  0  0  0  0  0  0  0  0  0
    3.4392   -4.9903    2.3796 C   0  0  2  0  0  0  0  0  0  0  0  0
    4.7648   -4.5907    3.0381 C   0  0  0  0  0  0  0  0  0  0  0  0
    5.2880   -3.5014    2.2834 O   0  0  0  0  0  0  0  0  0  0  0  0
    4.3237   -3.0587    1.3318 C   0  0  2  0  0  0  0  0  0  0  0  0
    2.9933   -3.6703    1.7698 C   0  0  0  0  0  0  0  0  0  0  0  0
    4.8192   -3.3579   -0.0793 C   0  0  1  0  0  0  0  0  0  0  0  0
    4.3325   -4.2075   -1.2308 C   0  0  0  0  0  0  0  0  0  0  0  0
    4.4087   -3.2772   -2.3809 N   0  0  0  0  0  0  0  0  0  0  0  0
    3.1375   -3.2897   -3.1172 C   0  0  0  0  0  0  0  0  0  0  0  0
    2.9395   -2.0776   -4.0197 C   0  0  0  0  0  0  0  0  0  0  0  0
    3.0187   -0.8898   -3.2516 O   0  0  0  0  0  0  0  0  0  0  0  0
    4.2901   -0.7378   -2.6624 C   0  0  0  0  0  0  0  0  0  0  0  0
    4.7079   -1.9420   -1.8103 C   0  0  1  0  0  0  0  0  0  0  0  0
    4.1302   -2.0514   -0.4267 C   0  0  2  0  0  0  0  0  0  0  0  0
    4.5211   -1.5361    0.9608 C   0  0  0  0  0  0  0  0  0  0  0  0
    3.5436   -0.5472    1.6054 C   0  0  0  0  0  0  0  0  0  0  0  0
    5.9199   -0.9180    1.1282 C   0  0  0  0  0  0  0  0  0  0  0  0
    2.4064   -4.2908    4.9144 H   0  0  0  0  0  0  0  0  0  0  0  0
    1.0211   -5.3588    4.9237 H   0  0  0  0  0  0  0  0  0  0  0  0
    1.1090   -4.0310    3.7590 H   0  0  0  0  0  0  0  0  0  0  0  0
    1.6297   -6.1073    2.6052 H   0  0  0  0  0  0  0  0  0  0  0  0
    3.8169   -6.6434    4.6571 H   0  0  0  0  0  0  0  0  0  0  0  0
    3.4215   -7.6566    3.2754 H   0  0  0  0  0  0  0  0  0  0  0  0
    2.2713   -7.4649    4.5819 H   0  0  0  0  0  0  0  0  0  0  0  0
    3.6968   -5.6537    1.5550 H   0  0  0  0  0  0  0  0  0  0  0  0
    4.6170   -4.2552    4.0598 H   0  0  0  0  0  0  0  0  0  0  0  0
    5.4880   -5.4052    3.0397 H   0  0  0  0  0  0  0  0  0  0  0  0
    2.2960   -3.8204    0.9478 H   0  0  0  0  0  0  0  0  0  0  0  0
    2.5115   -3.0112    2.4928 H   0  0  0  0  0  0  0  0  0  0  0  0
    5.9100   -3.3175   -0.0965 H   0  0  0  0  0  0  0  0  0  0  0  0
    4.9227   -5.1062   -1.3970 H   0  0  0  0  0  0  0  0  0  0  0  0
    3.3104   -4.5270   -1.0475 H   0  0  0  0  0  0  0  0  0  0  0  0
    3.0716   -4.1839   -3.7318 H   0  0  0  0  0  0  0  0  0  0  0  0
    2.2922   -3.3178   -2.4305 H   0  0  0  0  0  0  0  0  0  0  0  0
    3.6912   -2.0631   -4.8092 H   0  0  0  0  0  0  0  0  0  0  0  0
    1.9516   -2.1184   -4.4623 H   0  0  0  0  0  0  0  0  0  0  0  0
    5.0084   -0.6179   -3.4673 H   0  0  0  0  0  0  0  0  0  0  0  0
    4.3007    0.1665   -2.0638 H   0  0  0  0  0  0  0  0  0  0  0  0
    5.7857   -1.8460   -1.7280 H   0  0  0  0  0  0  0  0  0  0  0  0
    3.0409   -2.1213   -0.4850 H   0  0  0  0  0  0  0  0  0  0  0  0
    3.7172    0.4733    1.2600 H   0  0  0  0  0  0  0  0  0  0  0  0
    3.6349   -0.5460    2.6929 H   0  0  0  0  0  0  0  0  0  0  0  0
    2.5089   -0.7911    1.3637 H   0  0  0  0  0  0  0  0  0  0  0  0
    5.9919    0.0240    0.5861 H   0  0  0  0  0  0  0  0  0  0  0  0
    6.7269   -1.5508    0.7697 H   0  0  0  0  0  0  0  0  0  0  0  0
    6.1355   -0.7083    2.1747 H   0  0  0  0  0  0  0  0  0  0  0  0
  1  2  1  0
  1 21  1  0
  1 22  1  0
  1 23  1  0
  2  3  1  0
  2  4  1  0
  2 24  1  0
  3 25  1  0
  3 26  1  0
  3 27  1  0
  4  8  1  0
  4  5  1  0
  4 28  1  6
  5  6  1  0
  5 29  1  0
  5 30  1  0
  7  6  1  1
  7 18  1  0
  7  8  1  0
  7  9  1  0
  8 31  1  0
  8 32  1  0
  9 17  1  0
  9 10  1  0
  9 33  1  1
 10 11  1  0
 10 34  1  0
 10 35  1  0
 11 16  1  0
 11 12  1  0
 12 13  1  0
 12 36  1  0
 12 37  1  0
 13 14  1  0
 13 38  1  0
 13 39  1  0
 14 15  1  0
 15 16  1  0
 15 40  1  0
 15 41  1  0
 16 17  1  0
 16 42  1  1
 17 18  1  0
 17 43  1  6
 18 19  1  0
 18 20  1  0
 19 44  1  0
 19 45  1  0
 19 46  1  0
 20 47  1  0
 20 48  1  0
 20 49  1  0
M  END
>  <i_m_ct_stereo_status>  (108) 
1

>  <s_m_source_file>  (108) 
/var/tmp/pbs.5076255.sched01/tmpdonsa7tf/408ubvndgu.sdf

>  <i_m_source_file_index>  (108) 
11

>  <i_lp_mmshare_version>  (108) 
48012

>  <i_f3d_flags>  (108) 
0

>  <s_epik_input>  (108) 
W0NIM11bQ0hdKFtDSDNdKVtDQEBIXShbQ0gyXTEpW0NIMl1PW0NAQF0xMltDQEBIXTNbQ0BASF0oQzIoW0NIM10pW0NIM10pW0NASF00TihbQ0gyXTMpW0NIMl1bQ0gyXU9bQ0gyXTQ=

>  <s_epik_cmdline>  (108) 
J2VwaWtfcHl0aG9uJywgJy1waHQnLCAnMi4wJywgJy1waCcsICc3LjAnLCAnLXRuJywgJzgnLCAnLW1hJywgJzIwMCcsICctaW1hZScsICc8aW5maWxlLm1hZT4nLCAnLW9tYWUnLCAnPG91dGZpbGUubWFlPic=

>  <r_epik_Ionization_Penalty>  (108) 
0.592024

>  <r_epik_Ionization_Penalty_Charging>  (108) 
0

>  <r_epik_Ionization_Penalty_Neutral>  (108) 
0.592024

>  <r_epik_State_Penalty>  (108) 
0.605677

>  <r_epik_Charging_Adjusted_Penalty>  (108) 
0.605677

>  <i_epik_Tot_Q>  (108) 
0

>  <i_epik_Tot_abs_Q>  (108) 
0

>  <s_lp_Force_Field>  (108) 
OPLS3e

>  <r_lp_Energy>  (108) 
53.6728

>  <b_lp_Chiralities_Consistent>  (108) 
1

>  <s_lp_Variant>  (108) 
39:0-2

>  <s_i_glide_gridfile>  (108) 
pfpi4k_grid

>  <i_i_glide_lignum>  (108) 
11

>  <i_i_glide_rotatable_bonds>  (108) 
1

>  <r_i_docking_score>  (108) 
-2.86961

>  <r_i_glide_ligand_efficiency>  (108) 
-0.14348

>  <r_i_glide_ligand_efficiency_sa>  (108) 
-0.389465

>  <r_i_glide_ligand_efficiency_ln>  (108) 
-0.718168

>  <r_i_glide_gscore>  (108) 
-2.86961

>  <r_i_glide_lipo>  (108) 
-0.346277

>  <r_i_glide_hbond>  (108) 
0

>  <r_i_glide_metal>  (108) 
-0

>  <r_i_glide_rewards>  (108) 
-1.50397

>  <r_i_glide_evdw>  (108) 
-17.8495

>  <r_i_glide_ecoul>  (108) 
-0.845872

>  <r_i_glide_erotb>  (108) 
0

>  <r_i_glide_esite>  (108) 
0

>  <r_i_glide_emodel>  (108) 
-18.8963

>  <r_i_glide_energy>  (108) 
-18.6954

>  <r_i_glide_einternal>  (108) 
4.52651

>  <r_i_glide_intrahb_reward>  (108) 
-0

>  <i_i_glide_confnum>  (108) 
4

>  <i_i_glide_posenum>  (108) 
39

>  <r_i_glide_eff_state_penalty>  (108) 
0

>  <ligand_id>  (108) 
39

>  <original_smiles>  (108) 
CC(C)C1COC2(C1)C1CN3CCOCC3C1C2(C)C

>  <smiles>  (108) 
[H]C([H])([H])C([H])(C([H])([H])[H])C1([H])C([H])([H])OC2(C1([H])[H])C1([H])C([H])([H])N3C([H])([H])C([H])([H])OC([H])([H])C3([H])C1([H])C2(C([H])([H])[H])C([H])([H])[H]

$$$$
41:0:0
     RDKit          3D

 61 64  0  0  1  0  0  0  0  0999 V2000
    5.2968   -1.4320    0.6728 C   0  0  0  0  0  0  0  0  0  0  0  0
    3.7839   -1.6593    0.8306 C   0  0  0  0  0  0  0  0  0  0  0  0
    3.4401   -1.8464    2.2538 N   0  0  0  0  0  0  0  0  0  0  0  0
    2.2347   -2.6694    2.4961 C   0  0  1  0  0  0  0  0  0  0  0  0
    2.2881   -3.9945    1.7273 C   0  0  0  0  0  0  0  0  0  0  0  0
    3.5370   -4.9149    1.7966 C   0  0  0  0  0  0  0  0  0  0  0  0
    4.6792   -4.4184    1.8419 O   0  0  0  0  0  0  0  0  0  0  0  0
    3.3844   -6.2914    1.8876 N   0  0  0  0  0  0  0  0  0  0  0  0
    2.2858   -6.9309    1.6707 C   0  0  0  0  0  0  0  0  0  0  0  0
    0.9374   -6.4595    1.1836 C   0  0  0  0  0  0  0  0  0  0  0  0
    0.8942   -5.9887    0.0023 O   0  0  0  0  0  0  0  0  0  0  0  0
    0.0189   -6.3981    2.0440 O   0  0  0  0  0  0  0  0  0  0  0  0
    1.9133   -2.9413    4.0068 C   0  0  1  0  0  0  0  0  0  0  0  0
    2.9608   -3.8122    4.7372 C   0  0  0  0  0  0  0  0  0  0  0  0
    1.4306   -1.7008    4.8137 C   0  0  2  0  0  0  0  0  0  0  0  0
   -0.0782   -1.4410    4.5829 C   0  0  0  0  0  0  0  0  0  0  0  0
   -0.6203   -0.3179    5.4829 C   0  0  0  0  0  0  0  0  0  0  0  0
    0.1928    0.9860    5.3357 C   0  0  1  0  0  0  0  0  0  0  0  0
   -0.3972    2.0970    6.2297 C   0  0  0  0  0  0  0  0  0  0  0  0
    1.6930    0.6891    5.5988 C   0  0  2  0  0  0  0  0  0  0  0  0
    2.6102    1.9249    5.7092 C   0  0  0  0  0  0  0  0  0  0  0  0
    4.0590    1.5188    6.0092 C   0  0  0  0  0  0  0  0  0  0  0  0
    4.6383    0.7382    4.8323 C   0  0  1  0  0  0  0  0  0  0  0  0
    6.1254    0.4029    5.0310 C   0  0  0  0  0  0  0  0  0  0  0  0
    3.7743   -0.4715    4.4703 C   0  0  2  0  0  0  0  0  0  0  0  0
    3.4710   -0.5581    2.9770 C   0  0  2  0  0  0  0  0  0  0  0  0
    2.1236   -0.0535    3.2099 O   0  0  0  0  0  0  0  0  0  0  0  0
    2.2439   -0.3958    4.6258 C   0  0  1  0  0  0  0  0  0  0  0  0
    5.5656   -1.3866   -0.3784 H   0  0  0  0  0  0  0  0  0  0  0  0
    5.8687   -2.2467    1.1161 H   0  0  0  0  0  0  0  0  0  0  0  0
    5.6304   -0.5111    1.1389 H   0  0  0  0  0  0  0  0  0  0  0  0
    3.1870   -0.8692    0.3705 H   0  0  0  0  0  0  0  0  0  0  0  0
    3.5778   -2.5431    0.2318 H   0  0  0  0  0  0  0  0  0  0  0  0
    1.3702   -2.1314    2.0950 H   0  0  0  0  0  0  0  0  0  0  0  0
    1.4474   -4.4976    2.1718 H   0  0  0  0  0  0  0  0  0  0  0  0
    2.0477   -3.8509    0.6724 H   0  0  0  0  0  0  0  0  0  0  0  0
    2.3381   -8.0295    1.8080 H   0  0  0  0  0  0  0  0  0  0  0  0
    1.0356   -3.5932    4.0300 H   0  0  0  0  0  0  0  0  0  0  0  0
    3.9754   -3.4708    4.5466 H   0  0  0  0  0  0  0  0  0  0  0  0
    2.9197   -4.8502    4.4040 H   0  0  0  0  0  0  0  0  0  0  0  0
    2.7978   -3.8509    5.8137 H   0  0  0  0  0  0  0  0  0  0  0  0
    1.5070   -1.9835    5.8627 H   0  0  0  0  0  0  0  0  0  0  0  0
   -0.2617   -1.1814    3.5397 H   0  0  0  0  0  0  0  0  0  0  0  0
   -0.6637   -2.3403    4.7756 H   0  0  0  0  0  0  0  0  0  0  0  0
   -1.6721   -0.1269    5.2555 H   0  0  0  0  0  0  0  0  0  0  0  0
   -0.5895   -0.6472    6.5237 H   0  0  0  0  0  0  0  0  0  0  0  0
    0.0958    1.3239    4.3023 H   0  0  0  0  0  0  0  0  0  0  0  0
   -0.2663    1.8872    7.2910 H   0  0  0  0  0  0  0  0  0  0  0  0
   -1.4640    2.2210    6.0497 H   0  0  0  0  0  0  0  0  0  0  0  0
    0.0588    3.0649    6.0233 H   0  0  0  0  0  0  0  0  0  0  0  0
    1.7397    0.2414    6.5926 H   0  0  0  0  0  0  0  0  0  0  0  0
    2.5585    2.5088    4.7912 H   0  0  0  0  0  0  0  0  0  0  0  0
    2.2640    2.5768    6.5069 H   0  0  0  0  0  0  0  0  0  0  0  0
    4.6587    2.4120    6.1844 H   0  0  0  0  0  0  0  0  0  0  0  0
    4.1076    0.9230    6.9233 H   0  0  0  0  0  0  0  0  0  0  0  0
    4.6036    1.4406    3.9944 H   0  0  0  0  0  0  0  0  0  0  0  0
    6.2790   -0.2536    5.8888 H   0  0  0  0  0  0  0  0  0  0  0  0
    6.7041    1.3145    5.2002 H   0  0  0  0  0  0  0  0  0  0  0  0
    6.5356   -0.0844    4.1458 H   0  0  0  0  0  0  0  0  0  0  0  0
    4.1709   -1.3931    4.9042 H   0  0  0  0  0  0  0  0  0  0  0  0
    4.0713    0.1497    2.3960 H   0  0  0  0  0  0  0  0  0  0  0  0
  1  2  1  0
  1 29  1  0
  1 30  1  0
  1 31  1  0
  2  3  1  0
  2 32  1  0
  2 33  1  0
  3 26  1  0
  3  4  1  0
  4  5  1  0
  4 13  1  0
  4 34  1  6
  5  6  1  0
  5 35  1  0
  5 36  1  0
  6  7  2  0
  6  8  1  0
  8  9  2  3
  9 10  1  0
  9 37  1  0
 10 11  2  0
 10 12  1  0
 13 14  1  0
 13 15  1  0
 13 38  1  6
 14 39  1  0
 14 40  1  0
 14 41  1  0
 15 28  1  0
 15 16  1  0
 15 42  1  1
 16 17  1  0
 16 43  1  0
 16 44  1  0
 17 18  1  0
 17 45  1  0
 17 46  1  0
 18 19  1  0
 18 20  1  0
 18 47  1  6
 19 48  1  0
 19 49  1  0
 19 50  1  0
 20 28  1  0
 20 21  1  0
 20 51  1  1
 21 22  1  0
 21 52  1  0
 21 53  1  0
 22 23  1  0
 22 54  1  0
 22 55  1  0
 23 24  1  0
 23 25  1  0
 23 56  1  6
 24 57  1  0
 24 58  1  0
 24 59  1  0
 25 28  1  0
 25 26  1  0
 25 60  1  1
 26 27  1  0
 26 61  1  6
 28 27  1  6
M  CHG  1  12  -1
M  END
>  <i_m_ct_stereo_status>  (109) 
1

>  <s_m_source_file>  (109) 
/var/tmp/pbs.5076255.sched01/tmpdonsa7tf/408ubvndgu.sdf

>  <i_m_source_file_index>  (109) 
13

>  <i_lp_mmshare_version>  (109) 
48012

>  <i_f3d_flags>  (109) 
0

>  <s_epik_input>  (109) 
Tz1DKFtPSF0pL1tDSF09TlxDKD1PKVtDSDJdW0NAQEhdKFtDQEBIXShbQ0gzXSlbQ0BIXTFbQ0BAXTIzNClOKFtDSDJdW0NIM10pW0NAQEhdKE80KVtDQEhdM1tDQEhdKFtDSDNdKVtDSDJdW0NIMl1bQ0BIXTJbQ0BIXShbQ0gzXSlbQ0gyXVtDSDJdMQ==

>  <s_epik_cmdline>  (109) 
J2VwaWtfcHl0aG9uJywgJy1waHQnLCAnMi4wJywgJy1waCcsICc3LjAnLCAnLXRuJywgJzgnLCAnLW1hJywgJzIwMCcsICctaW1hZScsICc8aW5maWxlLm1hZT4nLCAnLW9tYWUnLCAnPG91dGZpbGUubWFlPic=

>  <r_epik_Ionization_Penalty>  (109) 
0.102268

>  <r_epik_Ionization_Penalty_Charging>  (109) 
9.12257e-06

>  <r_epik_Ionization_Penalty_Neutral>  (109) 
0.102258

>  <r_epik_State_Penalty>  (109) 
0.0922245

>  <r_epik_Charging_Adjusted_Penalty>  (109) 
0.0922337

>  <i_epik_Tot_Q>  (109) 
-1

>  <i_epik_Tot_abs_Q>  (109) 
1

>  <s_epik_Chemistry_Notes>  (109) 
This compound has an imine and may undergo hydrolysis. This compound contains an acetal/aminal-like group ( X-CH(R)-Y where X, Y are N, S, or O) that may be acid/base labile, releasing an aldehyde.

>  <s_lp_Force_Field>  (109) 
OPLS3e

>  <r_lp_Energy>  (109) 
64.1301

>  <b_lp_Chiralities_Consistent>  (109) 
1

>  <s_lp_Variant>  (109) 
41:0-1

>  <s_i_glide_gridfile>  (109) 
pfpi4k_grid

>  <i_i_glide_lignum>  (109) 
13

>  <i_i_glide_rotatable_bonds>  (109) 
5

>  <r_i_docking_score>  (109) 
-2.86484

>  <r_i_glide_ligand_efficiency>  (109) 
-0.102316

>  <r_i_glide_ligand_efficiency_sa>  (109) 
-0.31069

>  <r_i_glide_ligand_efficiency_ln>  (109) 
-0.661288

>  <r_i_glide_gscore>  (109) 
-2.86484

>  <r_i_glide_lipo>  (109) 
-0.267384

>  <r_i_glide_hbond>  (109) 
-0.646059

>  <r_i_glide_metal>  (109) 
-0

>  <r_i_glide_rewards>  (109) 
-0.770598

>  <r_i_glide_evdw>  (109) 
-16.6278

>  <r_i_glide_ecoul>  (109) 
-5.05353

>  <r_i_glide_erotb>  (109) 
0.513983

>  <r_i_glide_esite>  (109) 
-0.10536

>  <r_i_glide_emodel>  (109) 
-22.7988

>  <r_i_glide_energy>  (109) 
-21.6813

>  <r_i_glide_einternal>  (109) 
5.48905

>  <r_i_glide_intrahb_reward>  (109) 
-0

>  <i_i_glide_confnum>  (109) 
3

>  <i_i_glide_posenum>  (109) 
2

>  <r_i_glide_eff_state_penalty>  (109) 
0

>  <ligand_id>  (109) 
41

>  <original_smiles>  (109) 
CCN1C(CC(=O)N=CC(=O)O)C(C)C2CCC(C)C3CCC(C)C4C1OC324

>  <smiles>  (109) 
[H]C(=NC(=O)C([H])([H])C1([H])N(C([H])([H])C([H])([H])[H])C2([H])OC34C2([H])C([H])(C([H])([H])[H])C([H])([H])C([H])([H])C3([H])C([H])(C([H])([H])[H])C([H])([H])C([H])([H])C4([H])C1([H])C([H])([H])[H])C(=O)[O-]

$$$$
41:0:1
     RDKit          3D

 61 64  0  0  1  0  0  0  0  0999 V2000
   -1.6097   -1.4094    4.9894 C   0  0  0  0  0  0  0  0  0  0  0  0
   -0.6076   -1.6295    6.1450 C   0  0  0  0  0  0  0  0  0  0  0  0
    0.7890   -1.3073    5.8252 N   0  0  0  0  0  0  0  0  0  0  0  0
    1.0696    0.1021    5.4336 C   0  0  1  0  0  0  0  0  0  0  0  0
    0.4091    1.1722    6.3639 C   0  0  0  0  0  0  0  0  0  0  0  0
    0.5198    0.9142    7.9161 C   0  0  0  0  0  0  0  0  0  0  0  0
    1.3394    0.1098    8.4135 O   0  0  0  0  0  0  0  0  0  0  0  0
   -0.2471    1.6809    8.7578 N   0  0  0  0  0  0  0  0  0  0  0  0
   -1.4166    2.0983    8.4608 C   0  0  0  0  0  0  0  0  0  0  0  0
   -2.3085    1.8316    7.2899 C   0  0  0  0  0  0  0  0  0  0  0  0
   -2.7685    2.8602    6.7021 O   0  0  0  0  0  0  0  0  0  0  0  0
   -2.4687    0.6183    6.9079 O   0  0  0  0  0  0  0  0  0  0  0  0
    2.5549    0.4104    5.1503 C   0  0  1  0  0  0  0  0  0  0  0  0
    3.4582    0.3691    6.3985 C   0  0  0  0  0  0  0  0  0  0  0  0
    3.1652   -0.2796    3.8916 C   0  0  2  0  0  0  0  0  0  0  0  0
    2.7980    0.4980    2.6057 C   0  0  0  0  0  0  0  0  0  0  0  0
    3.5349   -0.0582    1.3808 C   0  0  0  0  0  0  0  0  0  0  0  0
    3.2952   -1.5706    1.1978 C   0  0  1  0  0  0  0  0  0  0  0  0
    4.0289   -2.0801   -0.0608 C   0  0  0  0  0  0  0  0  0  0  0  0
    3.6879   -2.3151    2.4962 C   0  0  2  0  0  0  0  0  0  0  0  0
    3.7257   -3.8509    2.4114 C   0  0  0  0  0  0  0  0  0  0  0  0
    4.1624   -4.4822    3.7365 C   0  0  0  0  0  0  0  0  0  0  0  0
    3.1127   -4.2108    4.8138 C   0  0  1  0  0  0  0  0  0  0  0  0
    3.4474   -4.9018    6.1400 C   0  0  0  0  0  0  0  0  0  0  0  0
    2.8311   -2.7118    4.9524 C   0  0  2  0  0  0  0  0  0  0  0  0
    1.3511   -2.3694    4.9646 C   0  0  2  0  0  0  0  0  0  0  0  0
    1.4300   -1.9177    3.5832 O   0  0  0  0  0  0  0  0  0  0  0  0
    2.8805   -1.7958    3.7205 C   0  0  1  0  0  0  0  0  0  0  0  0
   -2.6222   -1.6982    5.2880 H   0  0  0  0  0  0  0  0  0  0  0  0
   -1.3374   -1.9923    4.1117 H   0  0  0  0  0  0  0  0  0  0  0  0
   -1.6697   -0.3616    4.6853 H   0  0  0  0  0  0  0  0  0  0  0  0
   -0.9217   -1.0610    7.0148 H   0  0  0  0  0  0  0  0  0  0  0  0
   -0.6896   -2.6730    6.4594 H   0  0  0  0  0  0  0  0  0  0  0  0
    0.5601    0.2438    4.4811 H   0  0  0  0  0  0  0  0  0  0  0  0
    0.8774    2.1652    6.1614 H   0  0  0  0  0  0  0  0  0  0  0  0
   -0.5750    1.1429    5.9968 H   0  0  0  0  0  0  0  0  0  0  0  0
   -1.8889    2.7174    9.2568 H   0  0  0  0  0  0  0  0  0  0  0  0
    2.5633    1.4699    4.8824 H   0  0  0  0  0  0  0  0  0  0  0  0
    3.2950   -0.5420    6.9697 H   0  0  0  0  0  0  0  0  0  0  0  0
    3.2157    1.2068    7.0510 H   0  0  0  0  0  0  0  0  0  0  0  0
    4.5165    0.4628    6.1642 H   0  0  0  0  0  0  0  0  0  0  0  0
    4.2444   -0.1509    3.9990 H   0  0  0  0  0  0  0  0  0  0  0  0
    1.7233    0.4618    2.4188 H   0  0  0  0  0  0  0  0  0  0  0  0
    3.0495    1.5546    2.7031 H   0  0  0  0  0  0  0  0  0  0  0  0
    3.2226    0.4737    0.4841 H   0  0  0  0  0  0  0  0  0  0  0  0
    4.6043    0.1339    1.4880 H   0  0  0  0  0  0  0  0  0  0  0  0
    2.2275   -1.7219    1.0255 H   0  0  0  0  0  0  0  0  0  0  0  0
    5.1122   -2.0417    0.0445 H   0  0  0  0  0  0  0  0  0  0  0  0
    3.7643   -1.4823   -0.9312 H   0  0  0  0  0  0  0  0  0  0  0  0
    3.7502   -3.1034   -0.3022 H   0  0  0  0  0  0  0  0  0  0  0  0
    4.7247   -2.0357    2.6937 H   0  0  0  0  0  0  0  0  0  0  0  0
    2.7485   -4.2235    2.1092 H   0  0  0  0  0  0  0  0  0  0  0  0
    4.4285   -4.1514    1.6376 H   0  0  0  0  0  0  0  0  0  0  0  0
    4.2820   -5.5589    3.6041 H   0  0  0  0  0  0  0  0  0  0  0  0
    5.1347   -4.0864    4.0387 H   0  0  0  0  0  0  0  0  0  0  0  0
    2.2068   -4.7056    4.4427 H   0  0  0  0  0  0  0  0  0  0  0  0
    4.3821   -4.5304    6.5704 H   0  0  0  0  0  0  0  0  0  0  0  0
    3.5512   -5.9795    5.9892 H   0  0  0  0  0  0  0  0  0  0  0  0
    2.6513   -4.7493    6.8737 H   0  0  0  0  0  0  0  0  0  0  0  0
    3.3800   -2.2768    5.7939 H   0  0  0  0  0  0  0  0  0  0  0  0
    0.7351   -3.2812    5.0642 H   0  0  0  0  0  0  0  0  0  0  0  0
  1  2  1  0
  1 29  1  0
  1 30  1  0
  1 31  1  0
  2  3  1  0
  2 32  1  0
  2 33  1  0
  3 26  1  0
  3  4  1  0
  4  5  1  0
  4 13  1  0
  4 34  1  6
  5  6  1  0
  5 35  1  0
  5 36  1  0
  6  7  2  0
  6  8  1  0
  8  9  2  3
  9 10  1  0
  9 37  1  0
 10 11  2  0
 10 12  1  0
 13 14  1  0
 13 15  1  0
 13 38  1  6
 14 39  1  0
 14 40  1  0
 14 41  1  0
 15 28  1  0
 15 16  1  0
 15 42  1  1
 16 17  1  0
 16 43  1  0
 16 44  1  0
 17 18  1  0
 17 45  1  0
 17 46  1  0
 18 19  1  0
 18 20  1  0
 18 47  1  6
 19 48  1  0
 19 49  1  0
 19 50  1  0
 20 28  1  0
 20 21  1  0
 20 51  1  1
 21 22  1  0
 21 52  1  0
 21 53  1  0
 22 23  1  0
 22 54  1  0
 22 55  1  0
 23 24  1  0
 23 25  1  0
 23 56  1  6
 24 57  1  0
 24 58  1  0
 24 59  1  0
 25 28  1  0
 25 26  1  0
 25 60  1  1
 26 27  1  0
 26 61  1  6
 28 27  1  6
M  CHG  1  12  -1
M  END
>  <i_m_ct_stereo_status>  (110) 
1

>  <s_m_source_file>  (110) 
/var/tmp/pbs.5076255.sched01/tmpdonsa7tf/408ubvndgu.sdf

>  <i_m_source_file_index>  (110) 
13

>  <i_lp_mmshare_version>  (110) 
48012

>  <i_f3d_flags>  (110) 
0

>  <s_epik_input>  (110) 
Tz1DKFtPSF0pL1tDSF09TlxDKD1PKVtDSDJdW0NAQEhdKFtDQEBIXShbQ0gzXSlbQ0BIXTFbQ0BAXTIzNClOKFtDSDJdW0NIM10pW0NAQEhdKE80KVtDQEhdM1tDQEhdKFtDSDNdKVtDSDJdW0NIMl1bQ0BIXTJbQ0BIXShbQ0gzXSlbQ0gyXVtDSDJdMQ==

>  <s_epik_cmdline>  (110) 
J2VwaWtfcHl0aG9uJywgJy1waHQnLCAnMi4wJywgJy1waCcsICc3LjAnLCAnLXRuJywgJzgnLCAnLW1hJywgJzIwMCcsICctaW1hZScsICc8aW5maWxlLm1hZT4nLCAnLW9tYWUnLCAnPG91dGZpbGUubWFlPic=

>  <r_epik_Ionization_Penalty>  (110) 
0.102268

>  <r_epik_Ionization_Penalty_Charging>  (110) 
9.12257e-06

>  <r_epik_Ionization_Penalty_Neutral>  (110) 
0.102258

>  <r_epik_State_Penalty>  (110) 
0.0922245

>  <r_epik_Charging_Adjusted_Penalty>  (110) 
0.0922337

>  <i_epik_Tot_Q>  (110) 
-1

>  <i_epik_Tot_abs_Q>  (110) 
1

>  <s_epik_Chemistry_Notes>  (110) 
This compound has an imine and may undergo hydrolysis. This compound contains an acetal/aminal-like group ( X-CH(R)-Y where X, Y are N, S, or O) that may be acid/base labile, releasing an aldehyde.

>  <s_lp_Force_Field>  (110) 
OPLS3e

>  <r_lp_Energy>  (110) 
64.1301

>  <b_lp_Chiralities_Consistent>  (110) 
1

>  <s_lp_Variant>  (110) 
41:0-1

>  <s_i_glide_gridfile>  (110) 
pfpi4k_grid

>  <i_i_glide_lignum>  (110) 
13

>  <i_i_glide_rotatable_bonds>  (110) 
5

>  <r_i_docking_score>  (110) 
-1.73505

>  <r_i_glide_ligand_efficiency>  (110) 
-0.0619662

>  <r_i_glide_ligand_efficiency_sa>  (110) 
-0.188166

>  <r_i_glide_ligand_efficiency_ln>  (110) 
-0.400501

>  <r_i_glide_gscore>  (110) 
-1.73505

>  <r_i_glide_lipo>  (110) 
-0.0395438

>  <r_i_glide_hbond>  (110) 
-0.2

>  <r_i_glide_metal>  (110) 
-0

>  <r_i_glide_rewards>  (110) 
-0.7535

>  <r_i_glide_evdw>  (110) 
-14.459

>  <r_i_glide_ecoul>  (110) 
-3.07183

>  <r_i_glide_erotb>  (110) 
0.513983

>  <r_i_glide_esite>  (110) 
-0.072268

>  <r_i_glide_emodel>  (110) 
-15.9888

>  <r_i_glide_energy>  (110) 
-17.5308

>  <r_i_glide_einternal>  (110) 
5.93001

>  <r_i_glide_intrahb_reward>  (110) 
-0

>  <i_i_glide_confnum>  (110) 
3

>  <i_i_glide_posenum>  (110) 
4

>  <r_i_glide_eff_state_penalty>  (110) 
0

>  <ligand_id>  (110) 
41

>  <original_smiles>  (110) 
CCN1C(CC(=O)N=CC(=O)O)C(C)C2CCC(C)C3CCC(C)C4C1OC324

>  <smiles>  (110) 
[H]C(=NC(=O)C([H])([H])C1([H])N(C([H])([H])C([H])([H])[H])C2([H])OC34C2([H])C([H])(C([H])([H])[H])C([H])([H])C([H])([H])C3([H])C([H])(C([H])([H])[H])C([H])([H])C([H])([H])C4([H])C1([H])C([H])([H])[H])C(=O)[O-]

$$$$
41:0:2
     RDKit          3D

 61 64  0  0  1  0  0  0  0  0999 V2000
   -1.4284   -0.3906    4.2270 C   0  0  0  0  0  0  0  0  0  0  0  0
   -0.5547    0.3107    5.3065 C   0  0  0  0  0  0  0  0  0  0  0  0
    0.8793    0.4163    4.9555 N   0  0  0  0  0  0  0  0  0  0  0  0
    1.2092    1.3434    3.8502 C   0  0  1  0  0  0  0  0  0  0  0  0
    0.5274    2.7545    3.9708 C   0  0  0  0  0  0  0  0  0  0  0  0
    0.5617    3.5154    5.3296 C   0  0  0  0  0  0  0  0  0  0  0  0
    1.5260    4.2423    5.6674 O   0  0  0  0  0  0  0  0  0  0  0  0
   -0.4784    3.3224    6.2161 N   0  0  0  0  0  0  0  0  0  0  0  0
   -1.7199    3.3328    5.8293 C   0  0  0  0  0  0  0  0  0  0  0  0
   -2.2893    3.6731    4.4947 C   0  0  0  0  0  0  0  0  0  0  0  0
   -3.2114    2.9347    4.1224 O   0  0  0  0  0  0  0  0  0  0  0  0
   -1.8344    4.6956    3.9189 O   0  0  0  0  0  0  0  0  0  0  0  0
    2.7286    1.4473    3.5105 C   0  0  1  0  0  0  0  0  0  0  0  0
    3.5643    2.1305    4.6065 C   0  0  0  0  0  0  0  0  0  0  0  0
    3.3938    0.1569    2.9193 C   0  0  2  0  0  0  0  0  0  0  0  0
    3.1206    0.0301    1.4036 C   0  0  0  0  0  0  0  0  0  0  0  0
    3.8947   -1.1336    0.7711 C   0  0  0  0  0  0  0  0  0  0  0  0
    3.6175   -2.4700    1.4892 C   0  0  1  0  0  0  0  0  0  0  0  0
    4.3978   -3.6131    0.8143 C   0  0  0  0  0  0  0  0  0  0  0  0
    3.9275   -2.3128    2.9980 C   0  0  2  0  0  0  0  0  0  0  0  0
    3.9134   -3.6108    3.8282 C   0  0  0  0  0  0  0  0  0  0  0  0
    4.2637   -3.3565    5.3018 C   0  0  0  0  0  0  0  0  0  0  0  0
    3.1762   -2.5125    5.9515 C   0  0  1  0  0  0  0  0  0  0  0  0
    3.4154   -2.2927    7.4508 C   0  0  0  0  0  0  0  0  0  0  0  0
    2.9474   -1.2075    5.1729 C   0  0  2  0  0  0  0  0  0  0  0  0
    1.4857   -0.9349    4.8930 C   0  0  2  0  0  0  0  0  0  0  0  0
    1.6432   -1.3709    3.5137 O   0  0  0  0  0  0  0  0  0  0  0  0
    3.0875   -1.1791    3.6402 C   0  0  1  0  0  0  0  0  0  0  0  0
   -2.4593   -0.3941    4.5916 H   0  0  0  0  0  0  0  0  0  0  0  0
   -1.1505   -1.4255    3.9853 H   0  0  0  0  0  0  0  0  0  0  0  0
   -1.4459    0.2139    3.3135 H   0  0  0  0  0  0  0  0  0  0  0  0
   -0.9633    1.2324    5.4588 H   0  0  0  0  0  0  0  0  0  0  0  0
   -0.6056   -0.2975    6.2293 H   0  0  0  0  0  0  0  0  0  0  0  0
    0.7659    0.9243    2.9485 H   0  0  0  0  0  0  0  0  0  0  0  0
    1.0228    3.4223    3.2691 H   0  0  0  0  0  0  0  0  0  0  0  0
   -0.4577    2.6035    3.5610 H   0  0  0  0  0  0  0  0  0  0  0  0
   -2.4421    2.9973    6.5933 H   0  0  0  0  0  0  0  0  0  0  0  0
    2.7945    2.1561    2.6779 H   0  0  0  0  0  0  0  0  0  0  0  0
    3.3128    1.7614    5.6017 H   0  0  0  0  0  0  0  0  0  0  0  0
    3.3730    3.1999    4.5860 H   0  0  0  0  0  0  0  0  0  0  0  0
    4.6298    2.0456    4.4417 H   0  0  0  0  0  0  0  0  0  0  0  0
    4.4711    0.3311    2.9950 H   0  0  0  0  0  0  0  0  0  0  0  0
    2.0563   -0.1101    1.2084 H   0  0  0  0  0  0  0  0  0  0  0  0
    3.4107    0.9416    0.8851 H   0  0  0  0  0  0  0  0  0  0  0  0
    3.6367   -1.2173   -0.2855 H   0  0  0  0  0  0  0  0  0  0  0  0
    4.9629   -0.9107    0.8113 H   0  0  0  0  0  0  0  0  0  0  0  0
    2.5544   -2.6927    1.3794 H   0  0  0  0  0  0  0  0  0  0  0  0
    5.4753   -3.5162    0.9448 H   0  0  0  0  0  0  0  0  0  0  0  0
    4.2014   -3.6362   -0.2553 H   0  0  0  0  0  0  0  0  0  0  0  0
    4.0990   -4.5859    1.2001 H   0  0  0  0  0  0  0  0  0  0  0  0
    4.9616   -1.9719    3.0573 H   0  0  0  0  0  0  0  0  0  0  0  0
    2.9379   -4.0907    3.7443 H   0  0  0  0  0  0  0  0  0  0  0  0
    4.6457   -4.3012    3.4183 H   0  0  0  0  0  0  0  0  0  0  0  0
    4.3547   -4.3083    5.8230 H   0  0  0  0  0  0  0  0  0  0  0  0
    5.2304   -2.8525    5.3700 H   0  0  0  0  0  0  0  0  0  0  0  0
    2.2718   -3.1335    5.8902 H   0  0  0  0  0  0  0  0  0  0  0  0
    4.3378   -1.7349    7.6359 H   0  0  0  0  0  0  0  0  0  0  0  0
    3.4902   -3.2532    7.9642 H   0  0  0  0  0  0  0  0  0  0  0  0
    2.5880   -1.7400    7.9039 H   0  0  0  0  0  0  0  0  0  0  0  0
    3.4587   -0.3586    5.6437 H   0  0  0  0  0  0  0  0  0  0  0  0
    0.8551   -1.6307    5.4704 H   0  0  0  0  0  0  0  0  0  0  0  0
  1  2  1  0
  1 29  1  0
  1 30  1  0
  1 31  1  0
  2  3  1  0
  2 32  1  0
  2 33  1  0
  3 26  1  0
  3  4  1  0
  4  5  1  0
  4 13  1  0
  4 34  1  6
  5  6  1  0
  5 35  1  0
  5 36  1  0
  6  7  2  0
  6  8  1  0
  8  9  2  3
  9 10  1  0
  9 37  1  0
 10 11  2  0
 10 12  1  0
 13 14  1  0
 13 15  1  0
 13 38  1  6
 14 39  1  0
 14 40  1  0
 14 41  1  0
 15 28  1  0
 15 16  1  0
 15 42  1  6
 16 17  1  0
 16 43  1  0
 16 44  1  0
 17 18  1  0
 17 45  1  0
 17 46  1  0
 18 19  1  0
 18 20  1  0
 18 47  1  1
 19 48  1  0
 19 49  1  0
 19 50  1  0
 20 28  1  0
 20 21  1  0
 20 51  1  6
 21 22  1  0
 21 52  1  0
 21 53  1  0
 22 23  1  0
 22 54  1  0
 22 55  1  0
 23 24  1  0
 23 25  1  0
 23 56  1  1
 24 57  1  0
 24 58  1  0
 24 59  1  0
 25 28  1  0
 25 26  1  0
 25 60  1  1
 26 27  1  0
 26 61  1  1
 28 27  1  6
M  CHG  1  12  -1
M  END
>  <i_m_ct_stereo_status>  (111) 
1

>  <s_m_source_file>  (111) 
/var/tmp/pbs.5076255.sched01/tmpdonsa7tf/408ubvndgu.sdf

>  <i_m_source_file_index>  (111) 
13

>  <i_lp_mmshare_version>  (111) 
48012

>  <i_f3d_flags>  (111) 
0

>  <s_epik_input>  (111) 
Tz1DKFtPSF0pL1tDSF09TlxDKD1PKVtDSDJdW0NAQEhdKFtDQEBIXShbQ0gzXSlbQ0BIXTFbQ0BAXTIzNClOKFtDSDJdW0NIM10pW0NAQEhdKE80KVtDQEhdM1tDQEhdKFtDSDNdKVtDSDJdW0NIMl1bQ0BIXTJbQ0BIXShbQ0gzXSlbQ0gyXVtDSDJdMQ==

>  <s_epik_cmdline>  (111) 
J2VwaWtfcHl0aG9uJywgJy1waHQnLCAnMi4wJywgJy1waCcsICc3LjAnLCAnLXRuJywgJzgnLCAnLW1hJywgJzIwMCcsICctaW1hZScsICc8aW5maWxlLm1hZT4nLCAnLW9tYWUnLCAnPG91dGZpbGUubWFlPic=

>  <r_epik_Ionization_Penalty>  (111) 
0.102268

>  <r_epik_Ionization_Penalty_Charging>  (111) 
9.12257e-06

>  <r_epik_Ionization_Penalty_Neutral>  (111) 
0.102258

>  <r_epik_State_Penalty>  (111) 
0.0922245

>  <r_epik_Charging_Adjusted_Penalty>  (111) 
0.0922337

>  <i_epik_Tot_Q>  (111) 
-1

>  <i_epik_Tot_abs_Q>  (111) 
1

>  <s_epik_Chemistry_Notes>  (111) 
This compound has an imine and may undergo hydrolysis. This compound contains an acetal/aminal-like group ( X-CH(R)-Y where X, Y are N, S, or O) that may be acid/base labile, releasing an aldehyde.

>  <s_lp_Force_Field>  (111) 
OPLS3e

>  <r_lp_Energy>  (111) 
64.1301

>  <b_lp_Chiralities_Consistent>  (111) 
1

>  <s_lp_Variant>  (111) 
41:0-1

>  <s_i_glide_gridfile>  (111) 
pfpi4k_grid

>  <i_i_glide_lignum>  (111) 
13

>  <i_i_glide_rotatable_bonds>  (111) 
5

>  <r_i_docking_score>  (111) 
-1.43196

>  <r_i_glide_ligand_efficiency>  (111) 
-0.0511413

>  <r_i_glide_ligand_efficiency_sa>  (111) 
-0.155295

>  <r_i_glide_ligand_efficiency_ln>  (111) 
-0.330538

>  <r_i_glide_gscore>  (111) 
-1.43196

>  <r_i_glide_lipo>  (111) 
-0.041912

>  <r_i_glide_hbond>  (111) 
-0.186217

>  <r_i_glide_metal>  (111) 
-0

>  <r_i_glide_rewards>  (111) 
-0.765105

>  <r_i_glide_evdw>  (111) 
-15.6624

>  <r_i_glide_ecoul>  (111) 
-0.831047

>  <r_i_glide_erotb>  (111) 
0.513983

>  <r_i_glide_esite>  (111) 
-0.0449297

>  <r_i_glide_emodel>  (111) 
-12.8625

>  <r_i_glide_energy>  (111) 
-16.4935

>  <r_i_glide_einternal>  (111) 
8.35284

>  <r_i_glide_intrahb_reward>  (111) 
-0

>  <i_i_glide_confnum>  (111) 
3

>  <i_i_glide_posenum>  (111) 
20

>  <r_i_glide_eff_state_penalty>  (111) 
0

>  <ligand_id>  (111) 
41

>  <original_smiles>  (111) 
CCN1C(CC(=O)N=CC(=O)O)C(C)C2CCC(C)C3CCC(C)C4C1OC324

>  <smiles>  (111) 
[H]C(=NC(=O)C([H])([H])C1([H])N(C([H])([H])C([H])([H])[H])C2([H])OC34C2([H])C([H])(C([H])([H])[H])C([H])([H])C([H])([H])C3([H])C([H])(C([H])([H])[H])C([H])([H])C([H])([H])C4([H])C1([H])C([H])([H])[H])C(=O)[O-]

$$$$
41:1:0
     RDKit          3D

 61 64  0  0  1  0  0  0  0  0999 V2000
    3.9189   -4.7395    4.8863 C   0  0  0  0  0  0  0  0  0  0  0  0
    5.0706   -5.6742    4.3932 C   0  0  0  0  0  0  0  0  0  0  0  0
    4.6159   -6.6963    3.4348 N   0  0  0  0  0  0  0  0  0  0  0  0
    4.1413   -6.1508    2.1501 C   0  0  1  0  0  0  0  0  0  0  0  0
    5.3287   -5.4517    1.4064 C   0  0  0  0  0  0  0  0  0  0  0  0
    5.4006   -3.8998    1.5088 C   0  0  0  0  0  0  0  0  0  0  0  0
    5.2076   -3.3476    2.5843 O   0  0  0  0  0  0  0  0  0  0  0  0
    5.7891   -3.1709    0.4011 N   0  0  0  0  0  0  0  0  0  0  0  0
    5.4315   -3.5370   -0.7636 C   0  0  0  0  0  0  0  0  0  0  0  0
    5.9026   -2.8103   -2.0087 C   0  0  0  0  0  0  0  0  0  0  0  0
    5.4294   -3.2093   -3.1003 O   0  0  0  0  0  0  0  0  0  0  0  0
    6.7312   -1.9054   -1.8114 O   0  0  0  0  0  0  0  0  0  0  0  0
    3.4262   -7.1877    1.2230 C   0  0  1  0  0  0  0  0  0  0  0  0
    4.3462   -8.2475    0.5719 C   0  0  0  0  0  0  0  0  0  0  0  0
    2.0654   -7.7667    1.7333 C   0  0  2  0  0  0  0  0  0  0  0  0
    0.8988   -6.7625    1.5735 C   0  0  0  0  0  0  0  0  0  0  0  0
   -0.4506   -7.3933    1.9420 C   0  0  0  0  0  0  0  0  0  0  0  0
   -0.4509   -8.0194    3.3448 C   0  0  1  0  0  0  0  0  0  0  0  0
   -1.8264   -8.6432    3.6299 C   0  0  0  0  0  0  0  0  0  0  0  0
    0.7266   -9.0211    3.4537 C   0  0  2  0  0  0  0  0  0  0  0  0
    0.7505   -9.8674    4.7413 C   0  0  0  0  0  0  0  0  0  0  0  0
    1.9388  -10.8426    4.7704 C   0  0  0  0  0  0  0  0  0  0  0  0
    3.2405  -10.0621    4.8474 C   0  0  1  0  0  0  0  0  0  0  0  0
    4.4691  -10.9736    4.9556 C   0  0  0  0  0  0  0  0  0  0  0  0
    3.3552   -9.0402    3.7068 C   0  0  2  0  0  0  0  0  0  0  0  0
    3.7298   -7.6420    4.1582 C   0  0  2  0  0  0  0  0  0  0  0  0
    2.3543   -7.1959    4.0191 O   0  0  0  0  0  0  0  0  0  0  0  0
    2.0906   -8.3429    3.1633 C   0  0  1  0  0  0  0  0  0  0  0  0
    4.3035   -3.9481    5.5253 H   0  0  0  0  0  0  0  0  0  0  0  0
    3.1685   -5.2718    5.4592 H   0  0  0  0  0  0  0  0  0  0  0  0
    3.3770   -4.2345    4.0875 H   0  0  0  0  0  0  0  0  0  0  0  0
    5.8931   -5.1139    3.9472 H   0  0  0  0  0  0  0  0  0  0  0  0
    5.5058   -6.1819    5.2645 H   0  0  0  0  0  0  0  0  0  0  0  0
    3.3632   -5.4118    2.3303 H   0  0  0  0  0  0  0  0  0  0  0  0
    6.2570   -5.8865    1.8028 H   0  0  0  0  0  0  0  0  0  0  0  0
    5.3178   -5.7797    0.3806 H   0  0  0  0  0  0  0  0  0  0  0  0
    4.7837   -4.4250   -0.9087 H   0  0  0  0  0  0  0  0  0  0  0  0
    3.1118   -6.5887    0.3704 H   0  0  0  0  0  0  0  0  0  0  0  0
    5.1013   -8.6181    1.2614 H   0  0  0  0  0  0  0  0  0  0  0  0
    4.8604   -7.8154   -0.2790 H   0  0  0  0  0  0  0  0  0  0  0  0
    3.8003   -9.1021    0.1653 H   0  0  0  0  0  0  0  0  0  0  0  0
    1.8124   -8.5839    1.0497 H   0  0  0  0  0  0  0  0  0  0  0  0
    1.0533   -5.8908    2.2107 H   0  0  0  0  0  0  0  0  0  0  0  0
    0.8491   -6.4018    0.5469 H   0  0  0  0  0  0  0  0  0  0  0  0
   -1.2474   -6.6606    1.8778 H   0  0  0  0  0  0  0  0  0  0  0  0
   -0.6975   -8.1614    1.2093 H   0  0  0  0  0  0  0  0  0  0  0  0
   -0.3007   -7.2254    4.0780 H   0  0  0  0  0  0  0  0  0  0  0  0
   -2.0349   -9.5100    3.0020 H   0  0  0  0  0  0  0  0  0  0  0  0
   -2.6217   -7.9202    3.4706 H   0  0  0  0  0  0  0  0  0  0  0  0
   -1.8997   -8.9557    4.6674 H   0  0  0  0  0  0  0  0  0  0  0  0
    0.5632   -9.7558    2.6620 H   0  0  0  0  0  0  0  0  0  0  0  0
    0.7726   -9.2223    5.6219 H   0  0  0  0  0  0  0  0  0  0  0  0
   -0.1666  -10.4536    4.7932 H   0  0  0  0  0  0  0  0  0  0  0  0
    1.8483  -11.4937    5.6363 H   0  0  0  0  0  0  0  0  0  0  0  0
    1.9149  -11.4726    3.8785 H   0  0  0  0  0  0  0  0  0  0  0  0
    3.1889   -9.5399    5.8101 H   0  0  0  0  0  0  0  0  0  0  0  0
    4.5764  -11.6153    4.0769 H   0  0  0  0  0  0  0  0  0  0  0  0
    4.3824  -11.6147    5.8344 H   0  0  0  0  0  0  0  0  0  0  0  0
    5.3833  -10.3855    5.0611 H   0  0  0  0  0  0  0  0  0  0  0  0
    3.9817   -9.4155    2.8853 H   0  0  0  0  0  0  0  0  0  0  0  0
    4.0490   -7.6894    5.2124 H   0  0  0  0  0  0  0  0  0  0  0  0
  1  2  1  0
  1 29  1  0
  1 30  1  0
  1 31  1  0
  2  3  1  0
  2 32  1  0
  2 33  1  0
  3 26  1  0
  3  4  1  0
  4  5  1  0
  4 13  1  0
  4 34  1  1
  5  6  1  0
  5 35  1  0
  5 36  1  0
  6  7  2  0
  6  8  1  0
  8  9  2  3
  9 10  1  0
  9 37  1  0
 10 11  2  0
 10 12  1  0
 13 14  1  0
 13 15  1  0
 13 38  1  6
 14 39  1  0
 14 40  1  0
 14 41  1  0
 15 28  1  0
 15 16  1  0
 15 42  1  6
 16 17  1  0
 16 43  1  0
 16 44  1  0
 17 18  1  0
 17 45  1  0
 17 46  1  0
 18 19  1  0
 18 20  1  0
 18 47  1  1
 19 48  1  0
 19 49  1  0
 19 50  1  0
 20 28  1  0
 20 21  1  0
 20 51  1  6
 21 22  1  0
 21 52  1  0
 21 53  1  0
 22 23  1  0
 22 54  1  0
 22 55  1  0
 23 24  1  0
 23 25  1  0
 23 56  1  1
 24 57  1  0
 24 58  1  0
 24 59  1  0
 25 28  1  0
 25 26  1  0
 25 60  1  6
 26 27  1  0
 26 61  1  1
 28 27  1  1
M  CHG  1  12  -1
M  END
>  <i_m_ct_stereo_status>  (112) 
1

>  <s_m_source_file>  (112) 
/var/tmp/pbs.5076255.sched01/tmpdonsa7tf/408ubvndgu.sdf

>  <i_m_source_file_index>  (112) 
14

>  <i_lp_mmshare_version>  (112) 
48012

>  <i_f3d_flags>  (112) 
0

>  <s_epik_input>  (112) 
Tz1DKFtPSF0pL1tDSF09TlxDKD1PKVtDSDJdW0NAQEhdKFtDQEBIXShbQ0gzXSlbQ0BIXTFbQ0BAXTIzNClOKFtDSDJdW0NIM10pW0NAQEhdKE80KVtDQEhdM1tDQEhdKFtDSDNdKVtDSDJdW0NIMl1bQ0BIXTJbQ0BIXShbQ0gzXSlbQ0gyXVtDSDJdMQ==

>  <s_epik_cmdline>  (112) 
J2VwaWtfcHl0aG9uJywgJy1waHQnLCAnMi4wJywgJy1waCcsICc3LjAnLCAnLXRuJywgJzgnLCAnLW1hJywgJzIwMCcsICctaW1hZScsICc8aW5maWxlLm1hZT4nLCAnLW9tYWUnLCAnPG91dGZpbGUubWFlPic=

>  <r_epik_Ionization_Penalty>  (112) 
0.102268

>  <r_epik_Ionization_Penalty_Charging>  (112) 
9.12257e-06

>  <r_epik_Ionization_Penalty_Neutral>  (112) 
0.102258

>  <r_epik_State_Penalty>  (112) 
0.0922245

>  <r_epik_Charging_Adjusted_Penalty>  (112) 
0.0922337

>  <i_epik_Tot_Q>  (112) 
-1

>  <i_epik_Tot_abs_Q>  (112) 
1

>  <s_epik_Chemistry_Notes>  (112) 
This compound has an imine and may undergo hydrolysis. This compound contains an acetal/aminal-like group ( X-CH(R)-Y where X, Y are N, S, or O) that may be acid/base labile, releasing an aldehyde.

>  <s_lp_Force_Field>  (112) 
OPLS3e

>  <r_lp_Energy>  (112) 
52.4307

>  <b_lp_Chiralities_Consistent>  (112) 
1

>  <s_lp_Variant>  (112) 
41:0-2

>  <s_i_glide_gridfile>  (112) 
pfpi4k_grid

>  <i_i_glide_lignum>  (112) 
14

>  <i_i_glide_rotatable_bonds>  (112) 
5

>  <r_i_docking_score>  (112) 
-2.48543

>  <r_i_glide_ligand_efficiency>  (112) 
-0.0887654

>  <r_i_glide_ligand_efficiency_sa>  (112) 
-0.269544

>  <r_i_glide_ligand_efficiency_ln>  (112) 
-0.57371

>  <r_i_glide_gscore>  (112) 
-2.48543

>  <r_i_glide_lipo>  (112) 
-0.14006

>  <r_i_glide_hbond>  (112) 
-0.2

>  <r_i_glide_metal>  (112) 
-0

>  <r_i_glide_rewards>  (112) 
-0.973004

>  <r_i_glide_evdw>  (112) 
-22.2464

>  <r_i_glide_ecoul>  (112) 
-3.82675

>  <r_i_glide_erotb>  (112) 
0.513983

>  <r_i_glide_esite>  (112) 
-1.69801e-05

>  <r_i_glide_emodel>  (112) 
-28.347

>  <r_i_glide_energy>  (112) 
-26.0732

>  <r_i_glide_einternal>  (112) 
5.74774

>  <r_i_glide_intrahb_reward>  (112) 
-0

>  <i_i_glide_confnum>  (112) 
1

>  <i_i_glide_posenum>  (112) 
2

>  <r_i_glide_eff_state_penalty>  (112) 
0

>  <ligand_id>  (112) 
41

>  <original_smiles>  (112) 
CCN1C(CC(=O)N=CC(=O)O)C(C)C2CCC(C)C3CCC(C)C4C1OC324

>  <smiles>  (112) 
[H]C(=NC(=O)C([H])([H])C1([H])N(C([H])([H])C([H])([H])[H])C2([H])OC34C2([H])C([H])(C([H])([H])[H])C([H])([H])C([H])([H])C3([H])C([H])(C([H])([H])[H])C([H])([H])C([H])([H])C4([H])C1([H])C([H])([H])[H])C(=O)[O-]

$$$$
41:1:1
     RDKit          3D

 61 64  0  0  1  0  0  0  0  0999 V2000
    6.4054   -6.4582    5.2048 C   0  0  0  0  0  0  0  0  0  0  0  0
    5.2086   -5.9131    4.4238 C   0  0  0  0  0  0  0  0  0  0  0  0
    4.7367   -6.8811    3.4405 N   0  0  0  0  0  0  0  0  0  0  0  0
    4.2291   -6.2586    2.1911 C   0  0  1  0  0  0  0  0  0  0  0  0
    5.4165   -5.5773    1.4534 C   0  0  0  0  0  0  0  0  0  0  0  0
    5.5254   -4.0158    1.5348 C   0  0  0  0  0  0  0  0  0  0  0  0
    5.1504   -3.4287    2.5562 O   0  0  0  0  0  0  0  0  0  0  0  0
    6.1492   -3.3403    0.5246 N   0  0  0  0  0  0  0  0  0  0  0  0
    5.8353   -3.6119   -0.6698 C   0  0  0  0  0  0  0  0  0  0  0  0
    6.4127   -2.9075   -1.8434 C   0  0  0  0  0  0  0  0  0  0  0  0
    5.8134   -3.0127   -2.9424 O   0  0  0  0  0  0  0  0  0  0  0  0
    7.4643   -2.2512   -1.6327 O   0  0  0  0  0  0  0  0  0  0  0  0
    3.4833   -7.2580    1.2272 C   0  0  1  0  0  0  0  0  0  0  0  0
    4.3665   -8.3414    0.5477 C   0  0  0  0  0  0  0  0  0  0  0  0
    2.1181   -7.8260    1.7345 C   0  0  2  0  0  0  0  0  0  0  0  0
    0.9766   -6.7881    1.6028 C   0  0  0  0  0  0  0  0  0  0  0  0
   -0.3887   -7.3949    1.9631 C   0  0  0  0  0  0  0  0  0  0  0  0
   -0.3959   -8.0509    3.3552 C   0  0  1  0  0  0  0  0  0  0  0  0
   -1.7878   -8.6423    3.6438 C   0  0  0  0  0  0  0  0  0  0  0  0
    0.7529   -9.0860    3.4431 C   0  0  2  0  0  0  0  0  0  0  0  0
    0.7706   -9.9631    4.7052 C   0  0  0  0  0  0  0  0  0  0  0  0
    1.9261  -10.9689    4.6958 C   0  0  0  0  0  0  0  0  0  0  0  0
    3.2548  -10.2267    4.7843 C   0  0  1  0  0  0  0  0  0  0  0  0
    4.4525  -11.1728    4.8625 C   0  0  0  0  0  0  0  0  0  0  0  0
    3.3781   -9.1770    3.6512 C   0  0  2  0  0  0  0  0  0  0  0  0
    3.8093   -7.8035    4.1429 C   0  0  2  0  0  0  0  0  0  0  0  0
    2.4512   -7.3087    4.0190 O   0  0  0  0  0  0  0  0  0  0  0  0
    2.1282   -8.4377    3.1477 C   0  0  1  0  0  0  0  0  0  0  0  0
    6.7968   -5.6585    5.8284 H   0  0  0  0  0  0  0  0  0  0  0  0
    7.1943   -6.6987    4.4878 H   0  0  0  0  0  0  0  0  0  0  0  0
    6.1993   -7.3276    5.8185 H   0  0  0  0  0  0  0  0  0  0  0  0
    4.3834   -5.5707    5.0632 H   0  0  0  0  0  0  0  0  0  0  0  0
    5.6813   -5.0609    3.9678 H   0  0  0  0  0  0  0  0  0  0  0  0
    3.4908   -5.4954    2.4471 H   0  0  0  0  0  0  0  0  0  0  0  0
    6.3470   -6.0436    1.7634 H   0  0  0  0  0  0  0  0  0  0  0  0
    5.3518   -5.8993    0.4164 H   0  0  0  0  0  0  0  0  0  0  0  0
    5.1046   -4.4045   -0.9226 H   0  0  0  0  0  0  0  0  0  0  0  0
    3.1789   -6.6504    0.3808 H   0  0  0  0  0  0  0  0  0  0  0  0
    5.1135   -8.7557    1.2172 H   0  0  0  0  0  0  0  0  0  0  0  0
    4.9034   -7.9170   -0.2947 H   0  0  0  0  0  0  0  0  0  0  0  0
    3.8000   -9.1671    0.1176 H   0  0  0  0  0  0  0  0  0  0  0  0
    1.8342   -8.6205    1.0444 H   0  0  0  0  0  0  0  0  0  0  0  0
    1.1601   -5.9360    2.2532 H   0  0  0  0  0  0  0  0  0  0  0  0
    0.9276   -6.4058    0.5816 H   0  0  0  0  0  0  0  0  0  0  0  0
   -1.1696   -6.6407    1.9186 H   0  0  0  0  0  0  0  0  0  0  0  0
   -0.6571   -8.1427    1.2167 H   0  0  0  0  0  0  0  0  0  0  0  0
   -0.2170   -7.2775    4.1037 H   0  0  0  0  0  0  0  0  0  0  0  0
   -2.0269   -9.4898    3.0013 H   0  0  0  0  0  0  0  0  0  0  0  0
   -2.5689   -7.8979    3.5093 H   0  0  0  0  0  0  0  0  0  0  0  0
   -1.8603   -8.9754    4.6741 H   0  0  0  0  0  0  0  0  0  0  0  0
    0.5768   -9.7950    2.6324 H   0  0  0  0  0  0  0  0  0  0  0  0
    0.8143   -9.3388    5.5999 H   0  0  0  0  0  0  0  0  0  0  0  0
   -0.1612  -10.5237    4.7557 H   0  0  0  0  0  0  0  0  0  0  0  0
    1.8347  -11.6416    5.5456 H   0  0  0  0  0  0  0  0  0  0  0  0
    1.8817  -11.5787    3.7920 H   0  0  0  0  0  0  0  0  0  0  0  0
    3.2214   -9.7178    5.7529 H   0  0  0  0  0  0  0  0  0  0  0  0
    4.5386  -11.8025    3.9689 H   0  0  0  0  0  0  0  0  0  0  0  0
    4.3550  -11.8272    5.7267 H   0  0  0  0  0  0  0  0  0  0  0  0
    5.3900  -10.6148    4.9733 H   0  0  0  0  0  0  0  0  0  0  0  0
    3.9800   -9.5495    2.8314 H   0  0  0  0  0  0  0  0  0  0  0  0
    4.1163   -7.8914    5.1952 H   0  0  0  0  0  0  0  0  0  0  0  0
  1  2  1  0
  1 29  1  0
  1 30  1  0
  1 31  1  0
  2  3  1  0
  2 32  1  0
  2 33  1  0
  3 26  1  0
  3  4  1  0
  4  5  1  0
  4 13  1  0
  4 34  1  1
  5  6  1  0
  5 35  1  0
  5 36  1  0
  6  7  2  0
  6  8  1  0
  8  9  2  3
  9 10  1  0
  9 37  1  0
 10 11  2  0
 10 12  1  0
 13 14  1  0
 13 15  1  0
 13 38  1  6
 14 39  1  0
 14 40  1  0
 14 41  1  0
 15 28  1  0
 15 16  1  0
 15 42  1  6
 16 17  1  0
 16 43  1  0
 16 44  1  0
 17 18  1  0
 17 45  1  0
 17 46  1  0
 18 19  1  0
 18 20  1  0
 18 47  1  1
 19 48  1  0
 19 49  1  0
 19 50  1  0
 20 28  1  0
 20 21  1  0
 20 51  1  6
 21 22  1  0
 21 52  1  0
 21 53  1  0
 22 23  1  0
 22 54  1  0
 22 55  1  0
 23 24  1  0
 23 25  1  0
 23 56  1  1
 24 57  1  0
 24 58  1  0
 24 59  1  0
 25 28  1  0
 25 26  1  0
 25 60  1  6
 26 27  1  0
 26 61  1  1
 28 27  1  1
M  CHG  1  12  -1
M  END
>  <i_m_ct_stereo_status>  (113) 
1

>  <s_m_source_file>  (113) 
/var/tmp/pbs.5076255.sched01/tmpdonsa7tf/408ubvndgu.sdf

>  <i_m_source_file_index>  (113) 
14

>  <i_lp_mmshare_version>  (113) 
48012

>  <i_f3d_flags>  (113) 
0

>  <s_epik_input>  (113) 
Tz1DKFtPSF0pL1tDSF09TlxDKD1PKVtDSDJdW0NAQEhdKFtDQEBIXShbQ0gzXSlbQ0BIXTFbQ0BAXTIzNClOKFtDSDJdW0NIM10pW0NAQEhdKE80KVtDQEhdM1tDQEhdKFtDSDNdKVtDSDJdW0NIMl1bQ0BIXTJbQ0BIXShbQ0gzXSlbQ0gyXVtDSDJdMQ==

>  <s_epik_cmdline>  (113) 
J2VwaWtfcHl0aG9uJywgJy1waHQnLCAnMi4wJywgJy1waCcsICc3LjAnLCAnLXRuJywgJzgnLCAnLW1hJywgJzIwMCcsICctaW1hZScsICc8aW5maWxlLm1hZT4nLCAnLW9tYWUnLCAnPG91dGZpbGUubWFlPic=

>  <r_epik_Ionization_Penalty>  (113) 
0.102268

>  <r_epik_Ionization_Penalty_Charging>  (113) 
9.12257e-06

>  <r_epik_Ionization_Penalty_Neutral>  (113) 
0.102258

>  <r_epik_State_Penalty>  (113) 
0.0922245

>  <r_epik_Charging_Adjusted_Penalty>  (113) 
0.0922337

>  <i_epik_Tot_Q>  (113) 
-1

>  <i_epik_Tot_abs_Q>  (113) 
1

>  <s_epik_Chemistry_Notes>  (113) 
This compound has an imine and may undergo hydrolysis. This compound contains an acetal/aminal-like group ( X-CH(R)-Y where X, Y are N, S, or O) that may be acid/base labile, releasing an aldehyde.

>  <s_lp_Force_Field>  (113) 
OPLS3e

>  <r_lp_Energy>  (113) 
52.4307

>  <b_lp_Chiralities_Consistent>  (113) 
1

>  <s_lp_Variant>  (113) 
41:0-2

>  <s_i_glide_gridfile>  (113) 
pfpi4k_grid

>  <i_i_glide_lignum>  (113) 
14

>  <i_i_glide_rotatable_bonds>  (113) 
5

>  <r_i_docking_score>  (113) 
-2.32208

>  <r_i_glide_ligand_efficiency>  (113) 
-0.0829314

>  <r_i_glide_ligand_efficiency_sa>  (113) 
-0.251829

>  <r_i_glide_ligand_efficiency_ln>  (113) 
-0.536004

>  <r_i_glide_gscore>  (113) 
-2.32208

>  <r_i_glide_lipo>  (113) 
-0.146914

>  <r_i_glide_hbond>  (113) 
-0.2

>  <r_i_glide_metal>  (113) 
-0

>  <r_i_glide_rewards>  (113) 
-0.927543

>  <r_i_glide_evdw>  (113) 
-22.6134

>  <r_i_glide_ecoul>  (113) 
-2.87277

>  <r_i_glide_erotb>  (113) 
0.513983

>  <r_i_glide_esite>  (113) 
-2.25248e-05

>  <r_i_glide_emodel>  (113) 
-27.0794

>  <r_i_glide_energy>  (113) 
-25.4861

>  <r_i_glide_einternal>  (113) 
5.64408

>  <r_i_glide_intrahb_reward>  (113) 
-0

>  <i_i_glide_confnum>  (113) 
1

>  <i_i_glide_posenum>  (113) 
22

>  <r_i_glide_eff_state_penalty>  (113) 
0

>  <ligand_id>  (113) 
41

>  <original_smiles>  (113) 
CCN1C(CC(=O)N=CC(=O)O)C(C)C2CCC(C)C3CCC(C)C4C1OC324

>  <smiles>  (113) 
[H]C(=NC(=O)C([H])([H])C1([H])N(C([H])([H])C([H])([H])[H])C2([H])OC34C2([H])C([H])(C([H])([H])[H])C([H])([H])C([H])([H])C3([H])C([H])(C([H])([H])[H])C([H])([H])C([H])([H])C4([H])C1([H])C([H])([H])[H])C(=O)[O-]

$$$$
41:1:2
     RDKit          3D

 61 64  0  0  1  0  0  0  0  0999 V2000
    6.2149   -5.7796    5.1242 C   0  0  0  0  0  0  0  0  0  0  0  0
    4.9501   -5.3801    4.3670 C   0  0  0  0  0  0  0  0  0  0  0  0
    4.5848   -6.4088    3.3933 N   0  0  0  0  0  0  0  0  0  0  0  0
    4.0807   -5.8537    2.1097 C   0  0  1  0  0  0  0  0  0  0  0  0
    5.2659   -5.1404    1.3789 C   0  0  0  0  0  0  0  0  0  0  0  0
    5.2853   -3.5690    1.3558 C   0  0  0  0  0  0  0  0  0  0  0  0
    5.1771   -2.9427    2.4056 O   0  0  0  0  0  0  0  0  0  0  0  0
    5.5554   -2.8761    0.1963 N   0  0  0  0  0  0  0  0  0  0  0  0
    5.2106   -3.3565   -0.9288 C   0  0  0  0  0  0  0  0  0  0  0  0
    5.4878   -2.5784   -2.1734 C   0  0  0  0  0  0  0  0  0  0  0  0
    5.4115   -3.2006   -3.2595 O   0  0  0  0  0  0  0  0  0  0  0  0
    5.8036   -1.3701   -2.0154 O   0  0  0  0  0  0  0  0  0  0  0  0
    3.4118   -6.9481    1.1748 C   0  0  1  0  0  0  0  0  0  0  0  0
    4.3680   -8.0073    0.5542 C   0  0  0  0  0  0  0  0  0  0  0  0
    2.0751   -7.5817    1.6844 C   0  0  2  0  0  0  0  0  0  0  0  0
    0.8733   -6.6246    1.4846 C   0  0  0  0  0  0  0  0  0  0  0  0
   -0.4582   -7.2973    1.8499 C   0  0  0  0  0  0  0  0  0  0  0  0
   -0.4554   -7.8921    3.2712 C   0  0  1  0  0  0  0  0  0  0  0  0
   -1.8109   -8.5589    3.5640 C   0  0  0  0  0  0  0  0  0  0  0  0
    0.7547   -8.8462    3.4274 C   0  0  2  0  0  0  0  0  0  0  0  0
    0.7993   -9.6650    4.7313 C   0  0  0  0  0  0  0  0  0  0  0  0
    2.0146  -10.5949    4.7910 C   0  0  0  0  0  0  0  0  0  0  0  0
    3.2905   -9.7679    4.8677 C   0  0  1  0  0  0  0  0  0  0  0  0
    4.5471  -10.6273    5.0034 C   0  0  0  0  0  0  0  0  0  0  0  0
    3.3706   -8.7737    3.6825 C   0  0  2  0  0  0  0  0  0  0  0  0
    3.7119   -7.3483    4.1185 C   0  0  2  0  0  0  0  0  0  0  0  0
    2.3226   -6.9495    3.9465 O   0  0  0  0  0  0  0  0  0  0  0  0
    2.0852   -8.1286    3.1267 C   0  0  1  0  0  0  0  0  0  0  0  0
    6.5481   -4.9218    5.7163 H   0  0  0  0  0  0  0  0  0  0  0  0
    7.0243   -5.9714    4.4060 H   0  0  0  0  0  0  0  0  0  0  0  0
    6.0993   -6.6400    5.7714 H   0  0  0  0  0  0  0  0  0  0  0  0
    4.1076   -5.0980    4.9994 H   0  0  0  0  0  0  0  0  0  0  0  0
    5.3232   -4.4787    3.8659 H   0  0  0  0  0  0  0  0  0  0  0  0
    3.2919   -5.1338    2.3109 H   0  0  0  0  0  0  0  0  0  0  0  0
    6.2031   -5.5348    1.7707 H   0  0  0  0  0  0  0  0  0  0  0  0
    5.2922   -5.5594    0.3689 H   0  0  0  0  0  0  0  0  0  0  0  0
    4.6725   -4.3018   -1.0464 H   0  0  0  0  0  0  0  0  0  0  0  0
    3.0872   -6.3992    0.2928 H   0  0  0  0  0  0  0  0  0  0  0  0
    5.1260   -8.3403    1.2541 H   0  0  0  0  0  0  0  0  0  0  0  0
    4.8881   -7.5912   -0.3040 H   0  0  0  0  0  0  0  0  0  0  0  0
    3.8541   -8.8842    0.1633 H   0  0  0  0  0  0  0  0  0  0  0  0
    1.8497   -8.4217    1.0286 H   0  0  0  0  0  0  0  0  0  0  0  0
    0.9920   -5.7372    2.0993 H   0  0  0  0  0  0  0  0  0  0  0  0
    0.8190   -6.2947    0.4457 H   0  0  0  0  0  0  0  0  0  0  0  0
   -1.2816   -6.5902    1.7569 H   0  0  0  0  0  0  0  0  0  0  0  0
   -0.6693   -8.0902    1.1314 H   0  0  0  0  0  0  0  0  0  0  0  0
   -0.3410   -7.0762    3.9858 H   0  0  0  0  0  0  0  0  0  0  0  0
   -1.9872   -9.4500    2.9611 H   0  0  0  0  0  0  0  0  0  0  0  0
   -2.6304   -7.8693    3.3799 H   0  0  0  0  0  0  0  0  0  0  0  0
   -1.8885   -8.8459    4.6077 H   0  0  0  0  0  0  0  0  0  0  0  0
    0.6375   -9.6015    2.6468 H   0  0  0  0  0  0  0  0  0  0  0  0
    0.7872   -8.9955    5.5928 H   0  0  0  0  0  0  0  0  0  0  0  0
   -0.0995  -10.2764    4.7946 H   0  0  0  0  0  0  0  0  0  0  0  0
    1.9450  -11.2347    5.6718 H   0  0  0  0  0  0  0  0  0  0  0  0
    2.0263  -11.2438    3.9146 H   0  0  0  0  0  0  0  0  0  0  0  0
    3.2103   -9.2160    5.8059 H   0  0  0  0  0  0  0  0  0  0  0  0
    4.6905  -11.2920    4.1439 H   0  0  0  0  0  0  0  0  0  0  0  0
    4.4735  -11.2480    5.8986 H   0  0  0  0  0  0  0  0  0  0  0  0
    5.4462  -10.0069    5.1058 H   0  0  0  0  0  0  0  0  0  0  0  0
    4.0129   -9.1283    2.8960 H   0  0  0  0  0  0  0  0  0  0  0  0
    4.0005   -7.3751    5.1833 H   0  0  0  0  0  0  0  0  0  0  0  0
  1  2  1  0
  1 29  1  0
  1 30  1  0
  1 31  1  0
  2  3  1  0
  2 32  1  0
  2 33  1  0
  3 26  1  0
  3  4  1  0
  4  5  1  0
  4 13  1  0
  4 34  1  1
  5  6  1  0
  5 35  1  0
  5 36  1  0
  6  7  2  0
  6  8  1  0
  8  9  2  3
  9 10  1  0
  9 37  1  0
 10 11  2  0
 10 12  1  0
 13 14  1  0
 13 15  1  0
 13 38  1  6
 14 39  1  0
 14 40  1  0
 14 41  1  0
 15 28  1  0
 15 16  1  0
 15 42  1  6
 16 17  1  0
 16 43  1  0
 16 44  1  0
 17 18  1  0
 17 45  1  0
 17 46  1  0
 18 19  1  0
 18 20  1  0
 18 47  1  1
 19 48  1  0
 19 49  1  0
 19 50  1  0
 20 28  1  0
 20 21  1  0
 20 51  1  6
 21 22  1  0
 21 52  1  0
 21 53  1  0
 22 23  1  0
 22 54  1  0
 22 55  1  0
 23 24  1  0
 23 25  1  0
 23 56  1  1
 24 57  1  0
 24 58  1  0
 24 59  1  0
 25 28  1  0
 25 26  1  0
 25 60  1  6
 26 27  1  0
 26 61  1  1
 28 27  1  1
M  CHG  1  12  -1
M  END
>  <i_m_ct_stereo_status>  (114) 
1

>  <s_m_source_file>  (114) 
/var/tmp/pbs.5076255.sched01/tmpdonsa7tf/408ubvndgu.sdf

>  <i_m_source_file_index>  (114) 
14

>  <i_lp_mmshare_version>  (114) 
48012

>  <i_f3d_flags>  (114) 
0

>  <s_epik_input>  (114) 
Tz1DKFtPSF0pL1tDSF09TlxDKD1PKVtDSDJdW0NAQEhdKFtDQEBIXShbQ0gzXSlbQ0BIXTFbQ0BAXTIzNClOKFtDSDJdW0NIM10pW0NAQEhdKE80KVtDQEhdM1tDQEhdKFtDSDNdKVtDSDJdW0NIMl1bQ0BIXTJbQ0BIXShbQ0gzXSlbQ0gyXVtDSDJdMQ==

>  <s_epik_cmdline>  (114) 
J2VwaWtfcHl0aG9uJywgJy1waHQnLCAnMi4wJywgJy1waCcsICc3LjAnLCAnLXRuJywgJzgnLCAnLW1hJywgJzIwMCcsICctaW1hZScsICc8aW5maWxlLm1hZT4nLCAnLW9tYWUnLCAnPG91dGZpbGUubWFlPic=

>  <r_epik_Ionization_Penalty>  (114) 
0.102268

>  <r_epik_Ionization_Penalty_Charging>  (114) 
9.12257e-06

>  <r_epik_Ionization_Penalty_Neutral>  (114) 
0.102258

>  <r_epik_State_Penalty>  (114) 
0.0922245

>  <r_epik_Charging_Adjusted_Penalty>  (114) 
0.0922337

>  <i_epik_Tot_Q>  (114) 
-1

>  <i_epik_Tot_abs_Q>  (114) 
1

>  <s_epik_Chemistry_Notes>  (114) 
This compound has an imine and may undergo hydrolysis. This compound contains an acetal/aminal-like group ( X-CH(R)-Y where X, Y are N, S, or O) that may be acid/base labile, releasing an aldehyde.

>  <s_lp_Force_Field>  (114) 
OPLS3e

>  <r_lp_Energy>  (114) 
52.4307

>  <b_lp_Chiralities_Consistent>  (114) 
1

>  <s_lp_Variant>  (114) 
41:0-2

>  <s_i_glide_gridfile>  (114) 
pfpi4k_grid

>  <i_i_glide_lignum>  (114) 
14

>  <i_i_glide_rotatable_bonds>  (114) 
5

>  <r_i_docking_score>  (114) 
-2.0963

>  <r_i_glide_ligand_efficiency>  (114) 
-0.074868

>  <r_i_glide_ligand_efficiency_sa>  (114) 
-0.227343

>  <r_i_glide_ligand_efficiency_ln>  (114) 
-0.483888

>  <r_i_glide_gscore>  (114) 
-2.0963

>  <r_i_glide_lipo>  (114) 
-0.139883

>  <r_i_glide_hbond>  (114) 
-0.0799089

>  <r_i_glide_metal>  (114) 
-0

>  <r_i_glide_rewards>  (114) 
-0.969307

>  <r_i_glide_evdw>  (114) 
-22.7227

>  <r_i_glide_ecoul>  (114) 
-1.90036

>  <r_i_glide_erotb>  (114) 
0.513983

>  <r_i_glide_esite>  (114) 
0

>  <r_i_glide_emodel>  (114) 
-24.9365

>  <r_i_glide_energy>  (114) 
-24.623

>  <r_i_glide_einternal>  (114) 
5.17153

>  <r_i_glide_intrahb_reward>  (114) 
-0

>  <i_i_glide_confnum>  (114) 
1

>  <i_i_glide_posenum>  (114) 
35

>  <r_i_glide_eff_state_penalty>  (114) 
0

>  <ligand_id>  (114) 
41

>  <original_smiles>  (114) 
CCN1C(CC(=O)N=CC(=O)O)C(C)C2CCC(C)C3CCC(C)C4C1OC324

>  <smiles>  (114) 
[H]C(=NC(=O)C([H])([H])C1([H])N(C([H])([H])C([H])([H])[H])C2([H])OC34C2([H])C([H])(C([H])([H])[H])C([H])([H])C([H])([H])C3([H])C([H])(C([H])([H])[H])C([H])([H])C([H])([H])C4([H])C1([H])C([H])([H])[H])C(=O)[O-]

$$$$
41:2:0
     RDKit          3D

 62 65  0  0  1  0  0  0  0  0999 V2000
    5.8748   -1.7838    1.8044 C   0  0  0  0  0  0  0  0  0  0  0  0
    4.4226   -2.2487    2.0181 C   0  0  0  0  0  0  0  0  0  0  0  0
    3.9148   -3.4400    1.2191 N   0  0  1  0  0  0  0  0  0  0  0  0
    4.8618   -4.4831    0.6721 C   0  0  1  0  0  0  0  0  0  0  0  0
    6.0391   -3.9888   -0.2582 C   0  0  0  0  0  0  0  0  0  0  0  0
    5.6438   -3.0482   -1.4025 C   0  0  0  0  0  0  0  0  0  0  0  0
    6.3538   -2.0633   -1.6079 O   0  0  0  0  0  0  0  0  0  0  0  0
    4.5592   -3.4799   -2.1045 N   0  0  0  0  0  0  0  0  0  0  0  0
    3.9652   -2.8040   -3.0240 C   0  0  0  0  0  0  0  0  0  0  0  0
    4.1419   -1.3893   -3.5493 C   0  0  0  0  0  0  0  0  0  0  0  0
    4.0115   -1.2691   -4.7708 O   0  0  0  0  0  0  0  0  0  0  0  0
    4.3884   -0.4880   -2.7146 O   0  0  0  0  0  0  0  0  0  0  0  0
    5.3119   -5.5424    1.7143 C   0  0  1  0  0  0  0  0  0  0  0  0
    6.1973   -5.0595    2.8707 C   0  0  0  0  0  0  0  0  0  0  0  0
    4.2034   -6.5366    2.1721 C   0  0  2  0  0  0  0  0  0  0  0  0
    4.0969   -7.7062    1.1690 C   0  0  0  0  0  0  0  0  0  0  0  0
    3.1534   -8.8158    1.6533 C   0  0  0  0  0  0  0  0  0  0  0  0
    1.7551   -8.2804    2.0159 C   0  0  1  0  0  0  0  0  0  0  0  0
    0.8450   -9.4396    2.4773 C   0  0  0  0  0  0  0  0  0  0  0  0
    1.9010   -7.1285    3.0430 C   0  0  2  0  0  0  0  0  0  0  0  0
    0.5799   -6.6588    3.6860 C   0  0  0  0  0  0  0  0  0  0  0  0
    0.8243   -5.5710    4.7362 C   0  0  0  0  0  0  0  0  0  0  0  0
    1.3802   -4.3169    4.0688 C   0  0  1  0  0  0  0  0  0  0  0  0
    1.5460   -3.1744    5.0781 C   0  0  0  0  0  0  0  0  0  0  0  0
    2.6565   -4.5999    3.2346 C   0  0  2  0  0  0  0  0  0  0  0  0
    2.6306   -3.9973    1.8083 C   0  0  2  0  0  0  0  0  0  0  0  0
    2.3140   -5.3284    1.2769 O   0  0  0  0  0  0  0  0  0  0  0  0
    2.7908   -5.9610    2.5091 C   0  0  1  0  0  0  0  0  0  0  0  0
    6.1648   -0.9555    2.4536 H   0  0  0  0  0  0  0  0  0  0  0  0
    6.0141   -1.4431    0.7849 H   0  0  0  0  0  0  0  0  0  0  0  0
    6.5301   -2.5984    2.0569 H   0  0  0  0  0  0  0  0  0  0  0  0
    4.2905   -2.4649    3.0896 H   0  0  0  0  0  0  0  0  0  0  0  0
    3.7315   -1.4108    1.7854 H   0  0  0  0  0  0  0  0  0  0  0  0
    4.2492   -5.0419   -0.0406 H   0  0  0  0  0  0  0  0  0  0  0  0
    6.8788   -3.5201    0.2598 H   0  0  0  0  0  0  0  0  0  0  0  0
    6.5344   -4.8350   -0.7216 H   0  0  0  0  0  0  0  0  0  0  0  0
    3.1777   -3.3473   -3.5520 H   0  0  0  0  0  0  0  0  0  0  0  0
    6.0148   -6.1561    1.1394 H   0  0  0  0  0  0  0  0  0  0  0  0
    5.6795   -4.4040    3.5632 H   0  0  0  0  0  0  0  0  0  0  0  0
    7.0613   -4.5578    2.4684 H   0  0  0  0  0  0  0  0  0  0  0  0
    6.6137   -5.8931    3.4281 H   0  0  0  0  0  0  0  0  0  0  0  0
    4.5910   -6.9944    3.0834 H   0  0  0  0  0  0  0  0  0  0  0  0
    3.7720   -7.3304    0.2043 H   0  0  0  0  0  0  0  0  0  0  0  0
    5.0706   -8.1548    0.9884 H   0  0  0  0  0  0  0  0  0  0  0  0
    3.0690   -9.5995    0.8917 H   0  0  0  0  0  0  0  0  0  0  0  0
    3.5949   -9.3040    2.5271 H   0  0  0  0  0  0  0  0  0  0  0  0
    1.3109   -7.8668    1.1122 H   0  0  0  0  0  0  0  0  0  0  0  0
    1.1589   -9.8824    3.4205 H   0  0  0  0  0  0  0  0  0  0  0  0
    0.8409  -10.2416    1.7417 H   0  0  0  0  0  0  0  0  0  0  0  0
   -0.1926   -9.1280    2.5788 H   0  0  0  0  0  0  0  0  0  0  0  0
    2.4426   -7.5688    3.8860 H   0  0  0  0  0  0  0  0  0  0  0  0
   -0.0967   -6.3050    2.9114 H   0  0  0  0  0  0  0  0  0  0  0  0
    0.0787   -7.4996    4.1695 H   0  0  0  0  0  0  0  0  0  0  0  0
   -0.1159   -5.3486    5.2423 H   0  0  0  0  0  0  0  0  0  0  0  0
    1.5037   -5.9474    5.5027 H   0  0  0  0  0  0  0  0  0  0  0  0
    0.5924   -3.9952    3.3901 H   0  0  0  0  0  0  0  0  0  0  0  0
    2.2610   -3.4253    5.8641 H   0  0  0  0  0  0  0  0  0  0  0  0
    0.5877   -2.9534    5.5608 H   0  0  0  0  0  0  0  0  0  0  0  0
    1.8810   -2.2600    4.5855 H   0  0  0  0  0  0  0  0  0  0  0  0
    3.5594   -4.3875    3.8064 H   0  0  0  0  0  0  0  0  0  0  0  0
    1.8109   -3.2841    1.6735 H   0  0  0  0  0  0  0  0  0  0  0  0
    3.5633   -3.0387    0.3637 H   0  0  0  0  0  0  0  0  0  0  0  0
  1  2  1  0
  1 29  1  0
  1 30  1  0
  1 31  1  0
  2  3  1  0
  2 32  1  0
  2 33  1  0
  3 26  1  0
  3  4  1  0
  3 62  1  6
  4  5  1  0
  4 13  1  0
  4 34  1  6
  5  6  1  0
  5 35  1  0
  5 36  1  0
  6  7  2  0
  6  8  1  0
  8  9  2  3
  9 10  1  0
  9 37  1  0
 10 11  2  0
 10 12  1  0
 13 14  1  0
 13 15  1  0
 13 38  1  6
 14 39  1  0
 14 40  1  0
 14 41  1  0
 15 28  1  0
 15 16  1  0
 15 42  1  1
 16 17  1  0
 16 43  1  0
 16 44  1  0
 17 18  1  0
 17 45  1  0
 17 46  1  0
 18 19  1  0
 18 20  1  0
 18 47  1  6
 19 48  1  0
 19 49  1  0
 19 50  1  0
 20 28  1  0
 20 21  1  0
 20 51  1  1
 21 22  1  0
 21 52  1  0
 21 53  1  0
 22 23  1  0
 22 54  1  0
 22 55  1  0
 23 24  1  0
 23 25  1  0
 23 56  1  6
 24 57  1  0
 24 58  1  0
 24 59  1  0
 25 28  1  0
 25 26  1  0
 25 60  1  1
 26 27  1  0
 26 61  1  1
 28 27  1  6
M  CHG  2   3   1  12  -1
M  END
>  <i_m_ct_stereo_status>  (115) 
1

>  <s_m_source_file>  (115) 
/var/tmp/pbs.5076255.sched01/tmpdonsa7tf/408ubvndgu.sdf

>  <i_m_source_file_index>  (115) 
15

>  <i_lp_mmshare_version>  (115) 
48012

>  <i_f3d_flags>  (115) 
0

>  <s_epik_input>  (115) 
Tz1DKFtPSF0pL1tDSF09TlxDKD1PKVtDSDJdW0NAQEhdKFtDQEBIXShbQ0gzXSlbQ0BIXTFbQ0BAXTIzNClOKFtDSDJdW0NIM10pW0NAQEhdKE80KVtDQEhdM1tDQEhdKFtDSDNdKVtDSDJdW0NIMl1bQ0BIXTJbQ0BIXShbQ0gzXSlbQ0gyXVtDSDJdMQ==

>  <s_epik_cmdline>  (115) 
J2VwaWtfcHl0aG9uJywgJy1waHQnLCAnMi4wJywgJy1waCcsICc3LjAnLCAnLXRuJywgJzgnLCAnLW1hJywgJzIwMCcsICctaW1hZScsICc8aW5maWxlLm1hZT4nLCAnLW9tYWUnLCAnPG91dGZpbGUubWFlPic=

>  <r_epik_Ionization_Penalty>  (115) 
1.09129

>  <r_epik_Ionization_Penalty_Charging>  (115) 
1.09129

>  <r_epik_Ionization_Penalty_Neutral>  (115) 
2.49961e-15

>  <r_epik_State_Penalty>  (115) 
1.1476

>  <r_epik_Charging_Adjusted_Penalty>  (115) 
2.23889

>  <i_epik_Tot_Q>  (115) 
0

>  <i_epik_Tot_abs_Q>  (115) 
2

>  <s_epik_Chemistry_Notes>  (115) 
This compound has an imine and may undergo hydrolysis. This compound contains an acetal/aminal-like group ( X-CH(R)-Y where X, Y are N, S, or O) that may be acid/base labile, releasing an aldehyde.

>  <s_lp_Force_Field>  (115) 
OPLS3e

>  <r_lp_Energy>  (115) 
61.9874

>  <b_lp_Chiralities_Consistent>  (115) 
1

>  <s_lp_Variant>  (115) 
41:0-3

>  <s_i_glide_gridfile>  (115) 
pfpi4k_grid

>  <i_i_glide_lignum>  (115) 
15

>  <i_i_glide_rotatable_bonds>  (115) 
5

>  <r_i_docking_score>  (115) 
-3.40445

>  <r_i_glide_ligand_efficiency>  (115) 
-0.121588

>  <r_i_glide_ligand_efficiency_sa>  (115) 
-0.369212

>  <r_i_glide_ligand_efficiency_ln>  (115) 
-0.785848

>  <r_i_glide_gscore>  (115) 
-3.40445

>  <r_i_glide_lipo>  (115) 
-0.409318

>  <r_i_glide_hbond>  (115) 
-0.32

>  <r_i_glide_metal>  (115) 
-0

>  <r_i_glide_rewards>  (115) 
-1.20287

>  <r_i_glide_evdw>  (115) 
-23.3742

>  <r_i_glide_ecoul>  (115) 
-5.36908

>  <r_i_glide_erotb>  (115) 
0.511603

>  <r_i_glide_esite>  (115) 
-0.00979377

>  <r_i_glide_emodel>  (115) 
-30.6286

>  <r_i_glide_energy>  (115) 
-28.7433

>  <r_i_glide_einternal>  (115) 
10.4098

>  <r_i_glide_intrahb_reward>  (115) 
-0

>  <i_i_glide_confnum>  (115) 
4

>  <i_i_glide_posenum>  (115) 
7

>  <r_i_glide_eff_state_penalty>  (115) 
0

>  <ligand_id>  (115) 
41

>  <original_smiles>  (115) 
CCN1C(CC(=O)N=CC(=O)O)C(C)C2CCC(C)C3CCC(C)C4C1OC324

>  <smiles>  (115) 
[H]C(=NC(=O)C([H])([H])C1([H])C([H])(C([H])([H])[H])C2([H])C([H])([H])C([H])([H])C([H])(C([H])([H])[H])C3([H])C([H])([H])C([H])([H])C([H])(C([H])([H])[H])C4([H])C32OC4([H])[N+]1([H])C([H])([H])C([H])([H])[H])C(=O)[O-]

$$$$
41:2:1
     RDKit          3D

 62 65  0  0  1  0  0  0  0  0999 V2000
    4.8365   -2.3630    3.0541 C   0  0  0  0  0  0  0  0  0  0  0  0
    4.9742   -3.8258    2.5750 C   0  0  0  0  0  0  0  0  0  0  0  0
    3.6796   -4.3696    2.0487 N   0  0  1  0  0  0  0  0  0  0  0  0
    3.7265   -5.5382    1.1127 C   0  0  1  0  0  0  0  0  0  0  0  0
    4.7432   -5.4051   -0.0652 C   0  0  0  0  0  0  0  0  0  0  0  0
    4.6879   -4.1392   -0.9348 C   0  0  0  0  0  0  0  0  0  0  0  0
    5.3306   -4.1494   -1.9853 O   0  0  0  0  0  0  0  0  0  0  0  0
    3.9189   -3.1113   -0.3923 N   0  0  0  0  0  0  0  0  0  0  0  0
    4.0316   -1.8935   -0.7541 C   0  0  0  0  0  0  0  0  0  0  0  0
    4.9946   -1.2473   -1.7212 C   0  0  0  0  0  0  0  0  0  0  0  0
    4.5106   -0.5592   -2.6410 O   0  0  0  0  0  0  0  0  0  0  0  0
    6.2097   -1.4429   -1.5060 O   0  0  0  0  0  0  0  0  0  0  0  0
    3.7888   -6.9048    1.8316 C   0  0  1  0  0  0  0  0  0  0  0  0
    5.0885   -7.1756    2.6182 C   0  0  0  0  0  0  0  0  0  0  0  0
    2.4950   -7.2874    2.6193 C   0  0  2  0  0  0  0  0  0  0  0  0
    1.4663   -7.9547    1.6679 C   0  0  0  0  0  0  0  0  0  0  0  0
    0.2433   -8.4992    2.4048 C   0  0  0  0  0  0  0  0  0  0  0  0
   -0.4527   -7.4190    3.2412 C   0  0  1  0  0  0  0  0  0  0  0  0
   -1.6848   -8.0139    3.9432 C   0  0  0  0  0  0  0  0  0  0  0  0
    0.5840   -6.7857    4.2043 C   0  0  2  0  0  0  0  0  0  0  0  0
   -0.0152   -5.8602    5.2787 C   0  0  0  0  0  0  0  0  0  0  0  0
    1.0535   -5.3273    6.2366 C   0  0  0  0  0  0  0  0  0  0  0  0
    2.0113   -4.4135    5.4783 C   0  0  1  0  0  0  0  0  0  0  0  0
    3.0593   -3.7920    6.4122 C   0  0  0  0  0  0  0  0  0  0  0  0
    2.6201   -5.1100    4.2468 C   0  0  2  0  0  0  0  0  0  0  0  0
    2.5133   -4.2953    2.9698 C   0  0  2  0  0  0  0  0  0  0  0  0
    1.4264   -5.1330    2.4885 O   0  0  0  0  0  0  0  0  0  0  0  0
    1.8004   -6.1622    3.4551 C   0  0  1  0  0  0  0  0  0  0  0  0
    5.8130   -2.0067    3.3854 H   0  0  0  0  0  0  0  0  0  0  0  0
    4.1523   -2.2679    3.9051 H   0  0  0  0  0  0  0  0  0  0  0  0
    4.4859   -1.6783    2.2671 H   0  0  0  0  0  0  0  0  0  0  0  0
    5.7109   -3.8266    1.7691 H   0  0  0  0  0  0  0  0  0  0  0  0
    5.3816   -4.4367    3.3861 H   0  0  0  0  0  0  0  0  0  0  0  0
    2.7801   -5.5356    0.5753 H   0  0  0  0  0  0  0  0  0  0  0  0
    5.7719   -5.5051    0.2784 H   0  0  0  0  0  0  0  0  0  0  0  0
    4.5772   -6.2323   -0.7519 H   0  0  0  0  0  0  0  0  0  0  0  0
    3.3806   -1.1935   -0.2242 H   0  0  0  0  0  0  0  0  0  0  0  0
    3.8460   -7.6212    1.0132 H   0  0  0  0  0  0  0  0  0  0  0  0
    5.1895   -6.5859    3.5274 H   0  0  0  0  0  0  0  0  0  0  0  0
    5.9696   -6.9900    2.0002 H   0  0  0  0  0  0  0  0  0  0  0  0
    5.1294   -8.2254    2.9153 H   0  0  0  0  0  0  0  0  0  0  0  0
    2.7925   -8.0804    3.3081 H   0  0  0  0  0  0  0  0  0  0  0  0
    1.1201   -7.2497    0.9107 H   0  0  0  0  0  0  0  0  0  0  0  0
    1.9335   -8.7826    1.1334 H   0  0  0  0  0  0  0  0  0  0  0  0
   -0.4622   -8.9116    1.6898 H   0  0  0  0  0  0  0  0  0  0  0  0
    0.5541   -9.3221    3.0467 H   0  0  0  0  0  0  0  0  0  0  0  0
   -0.8132   -6.6488    2.5615 H   0  0  0  0  0  0  0  0  0  0  0  0
   -1.4190   -8.7516    4.7018 H   0  0  0  0  0  0  0  0  0  0  0  0
   -2.3329   -8.5120    3.2279 H   0  0  0  0  0  0  0  0  0  0  0  0
   -2.2784   -7.2374    4.4173 H   0  0  0  0  0  0  0  0  0  0  0  0
    0.9763   -7.6202    4.7800 H   0  0  0  0  0  0  0  0  0  0  0  0
   -0.5515   -5.0328    4.8092 H   0  0  0  0  0  0  0  0  0  0  0  0
   -0.7329   -6.4179    5.8718 H   0  0  0  0  0  0  0  0  0  0  0  0
    0.5699   -4.7783    7.0495 H   0  0  0  0  0  0  0  0  0  0  0  0
    1.5893   -6.1605    6.6911 H   0  0  0  0  0  0  0  0  0  0  0  0
    1.3819   -3.5748    5.1569 H   0  0  0  0  0  0  0  0  0  0  0  0
    3.6939   -4.5527    6.8726 H   0  0  0  0  0  0  0  0  0  0  0  0
    2.5671   -3.2290    7.2073 H   0  0  0  0  0  0  0  0  0  0  0  0
    3.7016   -3.0947    5.8792 H   0  0  0  0  0  0  0  0  0  0  0  0
    3.6180   -5.4889    4.4423 H   0  0  0  0  0  0  0  0  0  0  0  0
    2.1875   -3.2696    3.1271 H   0  0  0  0  0  0  0  0  0  0  0  0
    3.4501   -3.6836    1.3373 H   0  0  0  0  0  0  0  0  0  0  0  0
  1  2  1  0
  1 29  1  0
  1 30  1  0
  1 31  1  0
  2  3  1  0
  2 32  1  0
  2 33  1  0
  3 26  1  0
  3  4  1  0
  3 62  1  6
  4  5  1  0
  4 13  1  0
  4 34  1  6
  5  6  1  0
  5 35  1  0
  5 36  1  0
  6  7  2  0
  6  8  1  0
  8  9  2  3
  9 10  1  0
  9 37  1  0
 10 11  2  0
 10 12  1  0
 13 14  1  0
 13 15  1  0
 13 38  1  6
 14 39  1  0
 14 40  1  0
 14 41  1  0
 15 28  1  0
 15 16  1  0
 15 42  1  1
 16 17  1  0
 16 43  1  0
 16 44  1  0
 17 18  1  0
 17 45  1  0
 17 46  1  0
 18 19  1  0
 18 20  1  0
 18 47  1  6
 19 48  1  0
 19 49  1  0
 19 50  1  0
 20 28  1  0
 20 21  1  0
 20 51  1  1
 21 22  1  0
 21 52  1  0
 21 53  1  0
 22 23  1  0
 22 54  1  0
 22 55  1  0
 23 24  1  0
 23 25  1  0
 23 56  1  6
 24 57  1  0
 24 58  1  0
 24 59  1  0
 25 28  1  0
 25 26  1  0
 25 60  1  1
 26 27  1  0
 26 61  1  1
 28 27  1  6
M  CHG  2   3   1  12  -1
M  END
>  <i_m_ct_stereo_status>  (116) 
1

>  <s_m_source_file>  (116) 
/var/tmp/pbs.5076255.sched01/tmpdonsa7tf/408ubvndgu.sdf

>  <i_m_source_file_index>  (116) 
15

>  <i_lp_mmshare_version>  (116) 
48012

>  <i_f3d_flags>  (116) 
0

>  <s_epik_input>  (116) 
Tz1DKFtPSF0pL1tDSF09TlxDKD1PKVtDSDJdW0NAQEhdKFtDQEBIXShbQ0gzXSlbQ0BIXTFbQ0BAXTIzNClOKFtDSDJdW0NIM10pW0NAQEhdKE80KVtDQEhdM1tDQEhdKFtDSDNdKVtDSDJdW0NIMl1bQ0BIXTJbQ0BIXShbQ0gzXSlbQ0gyXVtDSDJdMQ==

>  <s_epik_cmdline>  (116) 
J2VwaWtfcHl0aG9uJywgJy1waHQnLCAnMi4wJywgJy1waCcsICc3LjAnLCAnLXRuJywgJzgnLCAnLW1hJywgJzIwMCcsICctaW1hZScsICc8aW5maWxlLm1hZT4nLCAnLW9tYWUnLCAnPG91dGZpbGUubWFlPic=

>  <r_epik_Ionization_Penalty>  (116) 
1.09129

>  <r_epik_Ionization_Penalty_Charging>  (116) 
1.09129

>  <r_epik_Ionization_Penalty_Neutral>  (116) 
2.49961e-15

>  <r_epik_State_Penalty>  (116) 
1.1476

>  <r_epik_Charging_Adjusted_Penalty>  (116) 
2.23889

>  <i_epik_Tot_Q>  (116) 
0

>  <i_epik_Tot_abs_Q>  (116) 
2

>  <s_epik_Chemistry_Notes>  (116) 
This compound has an imine and may undergo hydrolysis. This compound contains an acetal/aminal-like group ( X-CH(R)-Y where X, Y are N, S, or O) that may be acid/base labile, releasing an aldehyde.

>  <s_lp_Force_Field>  (116) 
OPLS3e

>  <r_lp_Energy>  (116) 
61.9874

>  <b_lp_Chiralities_Consistent>  (116) 
1

>  <s_lp_Variant>  (116) 
41:0-3

>  <s_i_glide_gridfile>  (116) 
pfpi4k_grid

>  <i_i_glide_lignum>  (116) 
15

>  <i_i_glide_rotatable_bonds>  (116) 
5

>  <r_i_docking_score>  (116) 
-2.81418

>  <r_i_glide_ligand_efficiency>  (116) 
-0.100506

>  <r_i_glide_ligand_efficiency_sa>  (116) 
-0.305196

>  <r_i_glide_ligand_efficiency_ln>  (116) 
-0.649595

>  <r_i_glide_gscore>  (116) 
-2.81418

>  <r_i_glide_lipo>  (116) 
-0.13845

>  <r_i_glide_hbond>  (116) 
-0.150451

>  <r_i_glide_metal>  (116) 
-0

>  <r_i_glide_rewards>  (116) 
-1.24648

>  <r_i_glide_evdw>  (116) 
-21.0156

>  <r_i_glide_ecoul>  (116) 
-4.25674

>  <r_i_glide_erotb>  (116) 
0.511603

>  <r_i_glide_esite>  (116) 
-0.101109

>  <r_i_glide_emodel>  (116) 
-33.9871

>  <r_i_glide_energy>  (116) 
-25.2723

>  <r_i_glide_einternal>  (116) 
4.81888

>  <r_i_glide_intrahb_reward>  (116) 
-0.5

>  <i_i_glide_confnum>  (116) 
2

>  <i_i_glide_posenum>  (116) 
20

>  <r_i_glide_eff_state_penalty>  (116) 
0

>  <ligand_id>  (116) 
41

>  <original_smiles>  (116) 
CCN1C(CC(=O)N=CC(=O)O)C(C)C2CCC(C)C3CCC(C)C4C1OC324

>  <smiles>  (116) 
[H]C(=NC(=O)C([H])([H])C1([H])C([H])(C([H])([H])[H])C2([H])C([H])([H])C([H])([H])C([H])(C([H])([H])[H])C3([H])C([H])([H])C([H])([H])C([H])(C([H])([H])[H])C4([H])C32OC4([H])[N+]1([H])C([H])([H])C([H])([H])[H])C(=O)[O-]

$$$$
41:2:2
     RDKit          3D

 62 65  0  0  1  0  0  0  0  0999 V2000
    4.8443   -1.8529    2.8355 C   0  0  0  0  0  0  0  0  0  0  0  0
    5.0024   -3.3414    2.4459 C   0  0  0  0  0  0  0  0  0  0  0  0
    3.7244   -3.9274    1.9104 N   0  0  1  0  0  0  0  0  0  0  0  0
    3.8321   -5.1272    1.0117 C   0  0  1  0  0  0  0  0  0  0  0  0
    4.8298   -4.9805   -0.1843 C   0  0  0  0  0  0  0  0  0  0  0  0
    4.7608   -3.6618   -0.9542 C   0  0  0  0  0  0  0  0  0  0  0  0
    5.8022   -2.9747   -1.0109 O   0  0  0  0  0  0  0  0  0  0  0  0
    3.5205   -3.4008   -1.4903 N   0  0  0  0  0  0  0  0  0  0  0  0
    3.3151   -2.5292   -2.4180 C   0  0  0  0  0  0  0  0  0  0  0  0
    4.2157   -1.5406   -3.1165 C   0  0  0  0  0  0  0  0  0  0  0  0
    4.1660   -1.5523   -4.3811 O   0  0  0  0  0  0  0  0  0  0  0  0
    4.8764   -0.7639   -2.4087 O   0  0  0  0  0  0  0  0  0  0  0  0
    3.9891   -6.4800    1.7490 C   0  0  1  0  0  0  0  0  0  0  0  0
    5.3258   -6.6824    2.5022 C   0  0  0  0  0  0  0  0  0  0  0  0
    2.7389   -6.9484    2.5526 C   0  0  2  0  0  0  0  0  0  0  0  0
    1.7360   -7.6763    1.6199 C   0  0  0  0  0  0  0  0  0  0  0  0
    0.5659   -8.3021    2.3828 C   0  0  0  0  0  0  0  0  0  0  0  0
   -0.1781   -7.2746    3.2461 C   0  0  1  0  0  0  0  0  0  0  0  0
   -1.3688   -7.9488    3.9606 C   0  0  0  0  0  0  0  0  0  0  0  0
    0.8418   -6.5822    4.1875 C   0  0  2  0  0  0  0  0  0  0  0  0
    0.2039   -5.7063    5.2846 C   0  0  0  0  0  0  0  0  0  0  0  0
    1.2679   -5.1162    6.2139 C   0  0  0  0  0  0  0  0  0  0  0  0
    2.1564   -4.1440    5.4399 C   0  0  1  0  0  0  0  0  0  0  0  0
    3.1804   -3.4595    6.3555 C   0  0  0  0  0  0  0  0  0  0  0  0
    2.7902   -4.7850    4.1855 C   0  0  2  0  0  0  0  0  0  0  0  0
    2.6047   -3.9574    2.9097 C   0  0  2  0  0  0  0  0  0  0  0  0
    1.5468   -4.8563    2.4706 O   0  0  0  0  0  0  0  0  0  0  0  0
    1.9992   -5.8740    3.4142 C   0  0  1  0  0  0  0  0  0  0  0  0
    5.8089   -1.4507    3.1610 H   0  0  0  0  0  0  0  0  0  0  0  0
    4.1472   -1.7120    3.6670 H   0  0  0  0  0  0  0  0  0  0  0  0
    4.5050   -1.2361    1.9952 H   0  0  0  0  0  0  0  0  0  0  0  0
    5.7925   -3.3917    1.6981 H   0  0  0  0  0  0  0  0  0  0  0  0
    5.3616   -3.8957    3.3091 H   0  0  0  0  0  0  0  0  0  0  0  0
    2.8700   -5.1801    0.4992 H   0  0  0  0  0  0  0  0  0  0  0  0
    5.8537   -5.0961    0.1696 H   0  0  0  0  0  0  0  0  0  0  0  0
    4.6756   -5.8075   -0.8956 H   0  0  0  0  0  0  0  0  0  0  0  0
    2.2864   -2.4630   -2.7564 H   0  0  0  0  0  0  0  0  0  0  0  0
    4.0812   -7.2016    0.9356 H   0  0  0  0  0  0  0  0  0  0  0  0
    5.4129   -6.0887    3.4079 H   0  0  0  0  0  0  0  0  0  0  0  0
    6.1833   -6.4520    1.8720 H   0  0  0  0  0  0  0  0  0  0  0  0
    5.4332   -7.7286    2.7958 H   0  0  0  0  0  0  0  0  0  0  0  0
    3.0984   -7.7228    3.2336 H   0  0  0  0  0  0  0  0  0  0  0  0
    1.3410   -6.9889    0.8701 H   0  0  0  0  0  0  0  0  0  0  0  0
    2.2432   -8.4720    1.0723 H   0  0  0  0  0  0  0  0  0  0  0  0
   -0.1310   -8.7573    1.6769 H   0  0  0  0  0  0  0  0  0  0  0  0
    0.9400   -9.1158    3.0065 H   0  0  0  0  0  0  0  0  0  0  0  0
   -0.5896   -6.5204    2.5771 H   0  0  0  0  0  0  0  0  0  0  0  0
   -1.0502   -8.6810    4.7049 H   0  0  0  0  0  0  0  0  0  0  0  0
   -2.0012   -8.4785    3.2487 H   0  0  0  0  0  0  0  0  0  0  0  0
   -2.0118   -7.2234    4.4573 H   0  0  0  0  0  0  0  0  0  0  0  0
    1.2994   -7.3947    4.7528 H   0  0  0  0  0  0  0  0  0  0  0  0
   -0.3872   -4.9098    4.8341 H   0  0  0  0  0  0  0  0  0  0  0  0
   -0.4756   -6.3033    5.8894 H   0  0  0  0  0  0  0  0  0  0  0  0
    0.7766   -4.5983    7.0411 H   0  0  0  0  0  0  0  0  0  0  0  0
    1.8599   -5.9173    6.6590 H   0  0  0  0  0  0  0  0  0  0  0  0
    1.4746   -3.3495    5.1249 H   0  0  0  0  0  0  0  0  0  0  0  0
    3.8654   -4.1789    6.8051 H   0  0  0  0  0  0  0  0  0  0  0  0
    2.6697   -2.9340    7.1662 H   0  0  0  0  0  0  0  0  0  0  0  0
    3.7664   -2.7222    5.8090 H   0  0  0  0  0  0  0  0  0  0  0  0
    3.8010   -5.1298    4.3737 H   0  0  0  0  0  0  0  0  0  0  0  0
    2.2312   -2.9522    3.0944 H   0  0  0  0  0  0  0  0  0  0  0  0
    3.4236   -3.2345    1.2432 H   0  0  0  0  0  0  0  0  0  0  0  0
  1  2  1  0
  1 29  1  0
  1 30  1  0
  1 31  1  0
  2  3  1  0
  2 32  1  0
  2 33  1  0
  3 26  1  0
  3  4  1  0
  3 62  1  6
  4  5  1  0
  4 13  1  0
  4 34  1  6
  5  6  1  0
  5 35  1  0
  5 36  1  0
  6  7  2  0
  6  8  1  0
  8  9  2  3
  9 10  1  0
  9 37  1  0
 10 11  2  0
 10 12  1  0
 13 14  1  0
 13 15  1  0
 13 38  1  6
 14 39  1  0
 14 40  1  0
 14 41  1  0
 15 28  1  0
 15 16  1  0
 15 42  1  1
 16 17  1  0
 16 43  1  0
 16 44  1  0
 17 18  1  0
 17 45  1  0
 17 46  1  0
 18 19  1  0
 18 20  1  0
 18 47  1  6
 19 48  1  0
 19 49  1  0
 19 50  1  0
 20 28  1  0
 20 21  1  0
 20 51  1  1
 21 22  1  0
 21 52  1  0
 21 53  1  0
 22 23  1  0
 22 54  1  0
 22 55  1  0
 23 24  1  0
 23 25  1  0
 23 56  1  6
 24 57  1  0
 24 58  1  0
 24 59  1  0
 25 28  1  0
 25 26  1  0
 25 60  1  1
 26 27  1  0
 26 61  1  1
 28 27  1  6
M  CHG  2   3   1  12  -1
M  END
>  <i_m_ct_stereo_status>  (117) 
1

>  <s_m_source_file>  (117) 
/var/tmp/pbs.5076255.sched01/tmpdonsa7tf/408ubvndgu.sdf

>  <i_m_source_file_index>  (117) 
15

>  <i_lp_mmshare_version>  (117) 
48012

>  <i_f3d_flags>  (117) 
0

>  <s_epik_input>  (117) 
Tz1DKFtPSF0pL1tDSF09TlxDKD1PKVtDSDJdW0NAQEhdKFtDQEBIXShbQ0gzXSlbQ0BIXTFbQ0BAXTIzNClOKFtDSDJdW0NIM10pW0NAQEhdKE80KVtDQEhdM1tDQEhdKFtDSDNdKVtDSDJdW0NIMl1bQ0BIXTJbQ0BIXShbQ0gzXSlbQ0gyXVtDSDJdMQ==

>  <s_epik_cmdline>  (117) 
J2VwaWtfcHl0aG9uJywgJy1waHQnLCAnMi4wJywgJy1waCcsICc3LjAnLCAnLXRuJywgJzgnLCAnLW1hJywgJzIwMCcsICctaW1hZScsICc8aW5maWxlLm1hZT4nLCAnLW9tYWUnLCAnPG91dGZpbGUubWFlPic=

>  <r_epik_Ionization_Penalty>  (117) 
1.09129

>  <r_epik_Ionization_Penalty_Charging>  (117) 
1.09129

>  <r_epik_Ionization_Penalty_Neutral>  (117) 
2.49961e-15

>  <r_epik_State_Penalty>  (117) 
1.1476

>  <r_epik_Charging_Adjusted_Penalty>  (117) 
2.23889

>  <i_epik_Tot_Q>  (117) 
0

>  <i_epik_Tot_abs_Q>  (117) 
2

>  <s_epik_Chemistry_Notes>  (117) 
This compound has an imine and may undergo hydrolysis. This compound contains an acetal/aminal-like group ( X-CH(R)-Y where X, Y are N, S, or O) that may be acid/base labile, releasing an aldehyde.

>  <s_lp_Force_Field>  (117) 
OPLS3e

>  <r_lp_Energy>  (117) 
61.9874

>  <b_lp_Chiralities_Consistent>  (117) 
1

>  <s_lp_Variant>  (117) 
41:0-3

>  <s_i_glide_gridfile>  (117) 
pfpi4k_grid

>  <i_i_glide_lignum>  (117) 
15

>  <i_i_glide_rotatable_bonds>  (117) 
5

>  <r_i_docking_score>  (117) 
-2.46013

>  <r_i_glide_ligand_efficiency>  (117) 
-0.0878619

>  <r_i_glide_ligand_efficiency_sa>  (117) 
-0.2668

>  <r_i_glide_ligand_efficiency_ln>  (117) 
-0.567871

>  <r_i_glide_gscore>  (117) 
-2.46013

>  <r_i_glide_lipo>  (117) 
-0.162901

>  <r_i_glide_hbond>  (117) 
-0.164274

>  <r_i_glide_metal>  (117) 
-0

>  <r_i_glide_rewards>  (117) 
-0.847479

>  <r_i_glide_evdw>  (117) 
-24.0746

>  <r_i_glide_ecoul>  (117) 
-3.73375

>  <r_i_glide_erotb>  (117) 
0.511603

>  <r_i_glide_esite>  (117) 
-0.0332866

>  <r_i_glide_emodel>  (117) 
-32.1531

>  <r_i_glide_energy>  (117) 
-27.8084

>  <r_i_glide_einternal>  (117) 
2.70038

>  <r_i_glide_intrahb_reward>  (117) 
-0

>  <i_i_glide_confnum>  (117) 
2

>  <i_i_glide_posenum>  (117) 
35

>  <r_i_glide_eff_state_penalty>  (117) 
0

>  <ligand_id>  (117) 
41

>  <original_smiles>  (117) 
CCN1C(CC(=O)N=CC(=O)O)C(C)C2CCC(C)C3CCC(C)C4C1OC324

>  <smiles>  (117) 
[H]C(=NC(=O)C([H])([H])C1([H])C([H])(C([H])([H])[H])C2([H])C([H])([H])C([H])([H])C([H])(C([H])([H])[H])C3([H])C([H])([H])C([H])([H])C([H])(C([H])([H])[H])C4([H])C32OC4([H])[N+]1([H])C([H])([H])C([H])([H])[H])C(=O)[O-]

$$$$
41:3:0
     RDKit          3D

 62 65  0  0  1  0  0  0  0  0999 V2000
    6.2018   -4.1737    1.6420 C   0  0  0  0  0  0  0  0  0  0  0  0
    5.1623   -4.0608    2.7689 C   0  0  0  0  0  0  0  0  0  0  0  0
    3.7053   -4.1769    2.3622 N   0  0  1  0  0  0  0  0  0  0  0  0
    3.3323   -4.8443    1.0547 C   0  0  1  0  0  0  0  0  0  0  0  0
    4.0143   -4.3042   -0.2549 C   0  0  0  0  0  0  0  0  0  0  0  0
    3.7088   -2.8296   -0.5654 C   0  0  0  0  0  0  0  0  0  0  0  0
    3.4043   -2.0291    0.3293 O   0  0  0  0  0  0  0  0  0  0  0  0
    3.8705   -2.5754   -1.9065 N   0  0  0  0  0  0  0  0  0  0  0  0
    3.5188   -1.4395   -2.3728 C   0  0  0  0  0  0  0  0  0  0  0  0
    3.7223   -1.0989   -3.8113 C   0  0  0  0  0  0  0  0  0  0  0  0
    3.7741    0.1421   -4.0614 O   0  0  0  0  0  0  0  0  0  0  0  0
    3.8768   -2.0223   -4.6111 O   0  0  0  0  0  0  0  0  0  0  0  0
    3.2848   -6.3954    1.1319 C   0  0  1  0  0  0  0  0  0  0  0  0
    4.6264   -7.1308    1.3279 C   0  0  0  0  0  0  0  0  0  0  0  0
    2.1295   -6.9941    2.0050 C   0  0  2  0  0  0  0  0  0  0  0  0
    0.8268   -7.0977    1.1766 C   0  0  0  0  0  0  0  0  0  0  0  0
   -0.2839   -7.8641    1.9059 C   0  0  0  0  0  0  0  0  0  0  0  0
   -0.5793   -7.2670    3.2904 C   0  0  1  0  0  0  0  0  0  0  0  0
   -1.7322   -8.0433    3.9668 C   0  0  0  0  0  0  0  0  0  0  0  0
    0.7303   -7.1903    4.1141 C   0  0  2  0  0  0  0  0  0  0  0  0
    0.5345   -6.8207    5.5987 C   0  0  0  0  0  0  0  0  0  0  0  0
    1.8713   -6.8488    6.3473 C   0  0  0  0  0  0  0  0  0  0  0  0
    2.8024   -5.7602    5.8096 C   0  0  1  0  0  0  0  0  0  0  0  0
    4.1124   -5.6982    6.6094 C   0  0  0  0  0  0  0  0  0  0  0  0
    3.0065   -5.8502    4.2814 C   0  0  2  0  0  0  0  0  0  0  0  0
    2.8059   -4.5058    3.5443 C   0  0  2  0  0  0  0  0  0  0  0  0
    1.4773   -4.9560    3.1094 O   0  0  0  0  0  0  0  0  0  0  0  0
    1.8392   -6.3472    3.3951 C   0  0  1  0  0  0  0  0  0  0  0  0
    7.2281   -4.2240    1.9881 H   0  0  0  0  0  0  0  0  0  0  0  0
    6.1088   -3.3313    0.9396 H   0  0  0  0  0  0  0  0  0  0  0  0
    6.0510   -5.1137    1.1290 H   0  0  0  0  0  0  0  0  0  0  0  0
    5.3838   -4.8274    3.5127 H   0  0  0  0  0  0  0  0  0  0  0  0
    5.2987   -3.0907    3.2694 H   0  0  0  0  0  0  0  0  0  0  0  0
    2.2843   -4.5320    0.9125 H   0  0  0  0  0  0  0  0  0  0  0  0
    5.0811   -4.4165   -0.3403 H   0  0  0  0  0  0  0  0  0  0  0  0
    3.7061   -4.9099   -1.1072 H   0  0  0  0  0  0  0  0  0  0  0  0
    3.0330   -0.6928   -1.7441 H   0  0  0  0  0  0  0  0  0  0  0  0
    3.0332   -6.6490    0.1047 H   0  0  0  0  0  0  0  0  0  0  0  0
    5.0468   -6.9789    2.3192 H   0  0  0  0  0  0  0  0  0  0  0  0
    5.3563   -6.8200    0.5856 H   0  0  0  0  0  0  0  0  0  0  0  0
    4.5166   -8.2031    1.1767 H   0  0  0  0  0  0  0  0  0  0  0  0
    2.4157   -8.0283    2.1936 H   0  0  0  0  0  0  0  0  0  0  0  0
    0.4678   -6.1078    0.9038 H   0  0  0  0  0  0  0  0  0  0  0  0
    1.0141   -7.6098    0.2372 H   0  0  0  0  0  0  0  0  0  0  0  0
   -1.1880   -7.8825    1.2920 H   0  0  0  0  0  0  0  0  0  0  0  0
    0.0108   -8.9110    2.0172 H   0  0  0  0  0  0  0  0  0  0  0  0
   -0.9310   -6.2518    3.1484 H   0  0  0  0  0  0  0  0  0  0  0  0
   -1.4509   -9.0639    4.2299 H   0  0  0  0  0  0  0  0  0  0  0  0
   -2.6011   -8.1075    3.3057 H   0  0  0  0  0  0  0  0  0  0  0  0
   -2.0805   -7.5359    4.8708 H   0  0  0  0  0  0  0  0  0  0  0  0
    1.1003   -8.2178    4.1558 H   0  0  0  0  0  0  0  0  0  0  0  0
    0.0691   -5.8400    5.6809 H   0  0  0  0  0  0  0  0  0  0  0  0
   -0.1458   -7.5196    6.0848 H   0  0  0  0  0  0  0  0  0  0  0  0
    1.6928   -6.6915    7.4123 H   0  0  0  0  0  0  0  0  0  0  0  0
    2.3326   -7.8351    6.2617 H   0  0  0  0  0  0  0  0  0  0  0  0
    2.2783   -4.8268    6.0252 H   0  0  0  0  0  0  0  0  0  0  0  0
    4.6795   -6.6252    6.5270 H   0  0  0  0  0  0  0  0  0  0  0  0
    3.9037   -5.5331    7.6693 H   0  0  0  0  0  0  0  0  0  0  0  0
    4.7435   -4.8782    6.2710 H   0  0  0  0  0  0  0  0  0  0  0  0
    3.9187   -6.3903    4.0378 H   0  0  0  0  0  0  0  0  0  0  0  0
    2.7470   -3.6429    4.2227 H   0  0  0  0  0  0  0  0  0  0  0  0
    3.4355   -3.2161    2.1713 H   0  0  0  0  0  0  0  0  0  0  0  0
  1  2  1  0
  1 29  1  0
  1 30  1  0
  1 31  1  0
  2  3  1  0
  2 32  1  0
  2 33  1  0
  3 26  1  0
  3  4  1  0
  3 62  1  6
  4  5  1  0
  4 13  1  0
  4 34  1  6
  5  6  1  0
  5 35  1  0
  5 36  1  0
  6  7  2  0
  6  8  1  0
  8  9  2  3
  9 10  1  0
  9 37  1  0
 10 11  2  0
 10 12  1  0
 13 14  1  0
 13 15  1  0
 13 38  1  6
 14 39  1  0
 14 40  1  0
 14 41  1  0
 15 28  1  0
 15 16  1  0
 15 42  1  1
 16 17  1  0
 16 43  1  0
 16 44  1  0
 17 18  1  0
 17 45  1  0
 17 46  1  0
 18 19  1  0
 18 20  1  0
 18 47  1  6
 19 48  1  0
 19 49  1  0
 19 50  1  0
 20 28  1  0
 20 21  1  0
 20 51  1  1
 21 22  1  0
 21 52  1  0
 21 53  1  0
 22 23  1  0
 22 54  1  0
 22 55  1  0
 23 24  1  0
 23 25  1  0
 23 56  1  6
 24 57  1  0
 24 58  1  0
 24 59  1  0
 25 28  1  0
 25 26  1  0
 25 60  1  1
 26 27  1  0
 26 61  1  1
 28 27  1  6
M  CHG  2   3   1  12  -1
M  END
>  <i_m_ct_stereo_status>  (118) 
1

>  <s_m_source_file>  (118) 
/var/tmp/pbs.5076255.sched01/tmpdonsa7tf/408ubvndgu.sdf

>  <i_m_source_file_index>  (118) 
16

>  <i_lp_mmshare_version>  (118) 
48012

>  <i_f3d_flags>  (118) 
0

>  <s_epik_input>  (118) 
Tz1DKFtPSF0pL1tDSF09TlxDKD1PKVtDSDJdW0NAQEhdKFtDQEBIXShbQ0gzXSlbQ0BIXTFbQ0BAXTIzNClOKFtDSDJdW0NIM10pW0NAQEhdKE80KVtDQEhdM1tDQEhdKFtDSDNdKVtDSDJdW0NIMl1bQ0BIXTJbQ0BIXShbQ0gzXSlbQ0gyXVtDSDJdMQ==

>  <s_epik_cmdline>  (118) 
J2VwaWtfcHl0aG9uJywgJy1waHQnLCAnMi4wJywgJy1waCcsICc3LjAnLCAnLXRuJywgJzgnLCAnLW1hJywgJzIwMCcsICctaW1hZScsICc8aW5maWxlLm1hZT4nLCAnLW9tYWUnLCAnPG91dGZpbGUubWFlPic=

>  <r_epik_Ionization_Penalty>  (118) 
1.09129

>  <r_epik_Ionization_Penalty_Charging>  (118) 
1.09129

>  <r_epik_Ionization_Penalty_Neutral>  (118) 
2.49961e-15

>  <r_epik_State_Penalty>  (118) 
1.1476

>  <r_epik_Charging_Adjusted_Penalty>  (118) 
2.23889

>  <i_epik_Tot_Q>  (118) 
0

>  <i_epik_Tot_abs_Q>  (118) 
2

>  <s_epik_Chemistry_Notes>  (118) 
This compound has an imine and may undergo hydrolysis. This compound contains an acetal/aminal-like group ( X-CH(R)-Y where X, Y are N, S, or O) that may be acid/base labile, releasing an aldehyde.

>  <s_lp_Force_Field>  (118) 
OPLS3e

>  <r_lp_Energy>  (118) 
54.2668

>  <b_lp_Chiralities_Consistent>  (118) 
1

>  <s_lp_Variant>  (118) 
41:0-4

>  <s_i_glide_gridfile>  (118) 
pfpi4k_grid

>  <i_i_glide_lignum>  (118) 
16

>  <i_i_glide_rotatable_bonds>  (118) 
5

>  <r_i_docking_score>  (118) 
-3.15326

>  <r_i_glide_ligand_efficiency>  (118) 
-0.112616

>  <r_i_glide_ligand_efficiency_sa>  (118) 
-0.34197

>  <r_i_glide_ligand_efficiency_ln>  (118) 
-0.727865

>  <r_i_glide_gscore>  (118) 
-3.15326

>  <r_i_glide_lipo>  (118) 
-0.220816

>  <r_i_glide_hbond>  (118) 
-0.16

>  <r_i_glide_metal>  (118) 
-0

>  <r_i_glide_rewards>  (118) 
-1.49118

>  <r_i_glide_evdw>  (118) 
-23.0048

>  <r_i_glide_ecoul>  (118) 
-3.74693

>  <r_i_glide_erotb>  (118) 
0.511603

>  <r_i_glide_esite>  (118) 
-0.0805831

>  <r_i_glide_emodel>  (118) 
-33.4687

>  <r_i_glide_energy>  (118) 
-26.7518

>  <r_i_glide_einternal>  (118) 
10.0673

>  <r_i_glide_intrahb_reward>  (118) 
-0.5

>  <i_i_glide_confnum>  (118) 
1

>  <i_i_glide_posenum>  (118) 
34

>  <r_i_glide_eff_state_penalty>  (118) 
0

>  <ligand_id>  (118) 
41

>  <original_smiles>  (118) 
CCN1C(CC(=O)N=CC(=O)O)C(C)C2CCC(C)C3CCC(C)C4C1OC324

>  <smiles>  (118) 
[H]C(=NC(=O)C([H])([H])C1([H])C([H])(C([H])([H])[H])C2([H])C([H])([H])C([H])([H])C([H])(C([H])([H])[H])C3([H])C([H])([H])C([H])([H])C([H])(C([H])([H])[H])C4([H])C32OC4([H])[N+]1([H])C([H])([H])C([H])([H])[H])C(=O)[O-]

$$$$
41:3:1
     RDKit          3D

 62 65  0  0  1  0  0  0  0  0999 V2000
    2.3646   -1.2966    3.4783 C   0  0  0  0  0  0  0  0  0  0  0  0
    3.4138   -2.3709    3.1223 C   0  0  0  0  0  0  0  0  0  0  0  0
    2.8529   -3.4296    2.2259 N   0  0  1  0  0  0  0  0  0  0  0  0
    3.8150   -4.2080    1.3847 C   0  0  1  0  0  0  0  0  0  0  0  0
    4.8182   -3.3416    0.5660 C   0  0  0  0  0  0  0  0  0  0  0  0
    4.1843   -2.2230   -0.2716 C   0  0  0  0  0  0  0  0  0  0  0  0
    3.6911   -1.2414    0.2913 O   0  0  0  0  0  0  0  0  0  0  0  0
    4.2974   -2.4682   -1.6220 N   0  0  0  0  0  0  0  0  0  0  0  0
    3.7952   -1.6321   -2.4368 C   0  0  0  0  0  0  0  0  0  0  0  0
    3.9183   -1.8112   -3.9226 C   0  0  0  0  0  0  0  0  0  0  0  0
    3.8166   -0.7863   -4.6298 O   0  0  0  0  0  0  0  0  0  0  0  0
    4.1593   -2.9696   -4.3127 O   0  0  0  0  0  0  0  0  0  0  0  0
    4.4994   -5.3897    2.1251 C   0  0  1  0  0  0  0  0  0  0  0  0
    5.4951   -4.9977    3.2371 C   0  0  0  0  0  0  0  0  0  0  0  0
    3.5591   -6.5715    2.5220 C   0  0  2  0  0  0  0  0  0  0  0  0
    3.3944   -7.5530    1.3360 C   0  0  0  0  0  0  0  0  0  0  0  0
    2.6157   -8.8189    1.7124 C   0  0  0  0  0  0  0  0  0  0  0  0
    1.2421   -8.4975    2.3221 C   0  0  1  0  0  0  0  0  0  0  0  0
    0.5018   -9.8069    2.6758 C   0  0  0  0  0  0  0  0  0  0  0  0
    1.4374   -7.5303    3.5189 C   0  0  2  0  0  0  0  0  0  0  0  0
    0.1751   -7.3088    4.3758 C   0  0  0  0  0  0  0  0  0  0  0  0
    0.4634   -6.4130    5.5826 C   0  0  0  0  0  0  0  0  0  0  0  0
    0.8378   -5.0090    5.1134 C   0  0  1  0  0  0  0  0  0  0  0  0
    1.0614   -4.0584    6.2965 C   0  0  0  0  0  0  0  0  0  0  0  0
    2.0062   -5.0133    4.0998 C   0  0  2  0  0  0  0  0  0  0  0  0
    1.7254   -4.2059    2.8314 C   0  0  2  0  0  0  0  0  0  0  0  0
    1.4838   -5.4352    2.0851 O   0  0  0  0  0  0  0  0  0  0  0  0
    2.1659   -6.2063    3.1220 C   0  0  1  0  0  0  0  0  0  0  0  0
    2.8418   -0.5028    4.0545 H   0  0  0  0  0  0  0  0  0  0  0  0
    1.5599   -1.6974    4.0983 H   0  0  0  0  0  0  0  0  0  0  0  0
    1.9186   -0.8316    2.5921 H   0  0  0  0  0  0  0  0  0  0  0  0
    4.2452   -1.8554    2.6417 H   0  0  0  0  0  0  0  0  0  0  0  0
    3.8252   -2.7948    4.0365 H   0  0  0  0  0  0  0  0  0  0  0  0
    3.2148   -4.6641    0.5939 H   0  0  0  0  0  0  0  0  0  0  0  0
    5.5750   -2.8713    1.1909 H   0  0  0  0  0  0  0  0  0  0  0  0
    5.3797   -4.0064   -0.0982 H   0  0  0  0  0  0  0  0  0  0  0  0
    3.2291   -0.7586   -2.1037 H   0  0  0  0  0  0  0  0  0  0  0  0
    5.1619   -5.8142    1.3690 H   0  0  0  0  0  0  0  0  0  0  0  0
    5.0212   -4.6128    4.1353 H   0  0  0  0  0  0  0  0  0  0  0  0
    6.2069   -4.2543    2.8823 H   0  0  0  0  0  0  0  0  0  0  0  0
    6.0804   -5.8677    3.5383 H   0  0  0  0  0  0  0  0  0  0  0  0
    4.1050   -7.1433    3.2745 H   0  0  0  0  0  0  0  0  0  0  0  0
    2.8833   -7.0531    0.5168 H   0  0  0  0  0  0  0  0  0  0  0  0
    4.3673   -7.8597    0.9522 H   0  0  0  0  0  0  0  0  0  0  0  0
    2.4919   -9.4590    0.8381 H   0  0  0  0  0  0  0  0  0  0  0  0
    3.2058   -9.4010    2.4222 H   0  0  0  0  0  0  0  0  0  0  0  0
    0.6458   -7.9868    1.5653 H   0  0  0  0  0  0  0  0  0  0  0  0
    0.9800  -10.3618    3.4833 H   0  0  0  0  0  0  0  0  0  0  0  0
    0.4637  -10.4757    1.8190 H   0  0  0  0  0  0  0  0  0  0  0  0
   -0.5344   -9.6287    2.9595 H   0  0  0  0  0  0  0  0  0  0  0  0
    2.1077   -8.0593    4.1984 H   0  0  0  0  0  0  0  0  0  0  0  0
   -0.6228   -6.8853    3.7668 H   0  0  0  0  0  0  0  0  0  0  0  0
   -0.1892   -8.2645    4.7511 H   0  0  0  0  0  0  0  0  0  0  0  0
   -0.4218   -6.3710    6.2200 H   0  0  0  0  0  0  0  0  0  0  0  0
    1.2614   -6.8507    6.1843 H   0  0  0  0  0  0  0  0  0  0  0  0
   -0.0652   -4.6440    4.6177 H   0  0  0  0  0  0  0  0  0  0  0  0
    1.8924   -4.3813    6.9259 H   0  0  0  0  0  0  0  0  0  0  0  0
    0.1659   -4.0187    6.9210 H   0  0  0  0  0  0  0  0  0  0  0  0
    1.2657   -3.0441    5.9550 H   0  0  0  0  0  0  0  0  0  0  0  0
    2.9584   -4.7980    4.5767 H   0  0  0  0  0  0  0  0  0  0  0  0
    0.8317   -3.5889    2.9113 H   0  0  0  0  0  0  0  0  0  0  0  0
    2.3992   -2.8911    1.5040 H   0  0  0  0  0  0  0  0  0  0  0  0
  1  2  1  0
  1 29  1  0
  1 30  1  0
  1 31  1  0
  2  3  1  0
  2 32  1  0
  2 33  1  0
  3 26  1  0
  3  4  1  0
  3 62  1  6
  4  5  1  0
  4 13  1  0
  4 34  1  6
  5  6  1  0
  5 35  1  0
  5 36  1  0
  6  7  2  0
  6  8  1  0
  8  9  2  3
  9 10  1  0
  9 37  1  0
 10 11  2  0
 10 12  1  0
 13 14  1  0
 13 15  1  0
 13 38  1  6
 14 39  1  0
 14 40  1  0
 14 41  1  0
 15 28  1  0
 15 16  1  0
 15 42  1  1
 16 17  1  0
 16 43  1  0
 16 44  1  0
 17 18  1  0
 17 45  1  0
 17 46  1  0
 18 19  1  0
 18 20  1  0
 18 47  1  6
 19 48  1  0
 19 49  1  0
 19 50  1  0
 20 28  1  0
 20 21  1  0
 20 51  1  1
 21 22  1  0
 21 52  1  0
 21 53  1  0
 22 23  1  0
 22 54  1  0
 22 55  1  0
 23 24  1  0
 23 25  1  0
 23 56  1  6
 24 57  1  0
 24 58  1  0
 24 59  1  0
 25 28  1  0
 25 26  1  0
 25 60  1  1
 26 27  1  0
 26 61  1  1
 28 27  1  6
M  CHG  2   3   1  12  -1
M  END
>  <i_m_ct_stereo_status>  (119) 
1

>  <s_m_source_file>  (119) 
/var/tmp/pbs.5076255.sched01/tmpdonsa7tf/408ubvndgu.sdf

>  <i_m_source_file_index>  (119) 
16

>  <i_lp_mmshare_version>  (119) 
48012

>  <i_f3d_flags>  (119) 
0

>  <s_epik_input>  (119) 
Tz1DKFtPSF0pL1tDSF09TlxDKD1PKVtDSDJdW0NAQEhdKFtDQEBIXShbQ0gzXSlbQ0BIXTFbQ0BAXTIzNClOKFtDSDJdW0NIM10pW0NAQEhdKE80KVtDQEhdM1tDQEhdKFtDSDNdKVtDSDJdW0NIMl1bQ0BIXTJbQ0BIXShbQ0gzXSlbQ0gyXVtDSDJdMQ==

>  <s_epik_cmdline>  (119) 
J2VwaWtfcHl0aG9uJywgJy1waHQnLCAnMi4wJywgJy1waCcsICc3LjAnLCAnLXRuJywgJzgnLCAnLW1hJywgJzIwMCcsICctaW1hZScsICc8aW5maWxlLm1hZT4nLCAnLW9tYWUnLCAnPG91dGZpbGUubWFlPic=

>  <r_epik_Ionization_Penalty>  (119) 
1.09129

>  <r_epik_Ionization_Penalty_Charging>  (119) 
1.09129

>  <r_epik_Ionization_Penalty_Neutral>  (119) 
2.49961e-15

>  <r_epik_State_Penalty>  (119) 
1.1476

>  <r_epik_Charging_Adjusted_Penalty>  (119) 
2.23889

>  <i_epik_Tot_Q>  (119) 
0

>  <i_epik_Tot_abs_Q>  (119) 
2

>  <s_epik_Chemistry_Notes>  (119) 
This compound has an imine and may undergo hydrolysis. This compound contains an acetal/aminal-like group ( X-CH(R)-Y where X, Y are N, S, or O) that may be acid/base labile, releasing an aldehyde.

>  <s_lp_Force_Field>  (119) 
OPLS3e

>  <r_lp_Energy>  (119) 
54.2668

>  <b_lp_Chiralities_Consistent>  (119) 
1

>  <s_lp_Variant>  (119) 
41:0-4

>  <s_i_glide_gridfile>  (119) 
pfpi4k_grid

>  <i_i_glide_lignum>  (119) 
16

>  <i_i_glide_rotatable_bonds>  (119) 
5

>  <r_i_docking_score>  (119) 
-2.98834

>  <r_i_glide_ligand_efficiency>  (119) 
-0.106727

>  <r_i_glide_ligand_efficiency_sa>  (119) 
-0.324085

>  <r_i_glide_ligand_efficiency_ln>  (119) 
-0.689797

>  <r_i_glide_gscore>  (119) 
-2.98834

>  <r_i_glide_lipo>  (119) 
-0.151123

>  <r_i_glide_hbond>  (119) 
-0.240297

>  <r_i_glide_metal>  (119) 
-0

>  <r_i_glide_rewards>  (119) 
-0.835716

>  <r_i_glide_evdw>  (119) 
-23.7309

>  <r_i_glide_ecoul>  (119) 
-6.79186

>  <r_i_glide_erotb>  (119) 
0.511603

>  <r_i_glide_esite>  (119) 
-0.0674855

>  <r_i_glide_emodel>  (119) 
-37.9669

>  <r_i_glide_energy>  (119) 
-30.5228

>  <r_i_glide_einternal>  (119) 
0.904744

>  <r_i_glide_intrahb_reward>  (119) 
-0

>  <i_i_glide_confnum>  (119) 
3

>  <i_i_glide_posenum>  (119) 
1

>  <r_i_glide_eff_state_penalty>  (119) 
0

>  <ligand_id>  (119) 
41

>  <original_smiles>  (119) 
CCN1C(CC(=O)N=CC(=O)O)C(C)C2CCC(C)C3CCC(C)C4C1OC324

>  <smiles>  (119) 
[H]C(=NC(=O)C([H])([H])C1([H])C([H])(C([H])([H])[H])C2([H])C([H])([H])C([H])([H])C([H])(C([H])([H])[H])C3([H])C([H])([H])C([H])([H])C([H])(C([H])([H])[H])C4([H])C32OC4([H])[N+]1([H])C([H])([H])C([H])([H])[H])C(=O)[O-]

$$$$
41:3:2
     RDKit          3D

 62 65  0  0  1  0  0  0  0  0999 V2000
    3.1645   -1.1433    2.8337 C   0  0  0  0  0  0  0  0  0  0  0  0
    4.0695   -2.3853    2.7069 C   0  0  0  0  0  0  0  0  0  0  0  0
    3.4210   -3.4347    1.8556 N   0  0  1  0  0  0  0  0  0  0  0  0
    4.3026   -4.4015    1.1325 C   0  0  1  0  0  0  0  0  0  0  0  0
    5.4350   -3.7580    0.2776 C   0  0  0  0  0  0  0  0  0  0  0  0
    5.0804   -2.4848   -0.5111 C   0  0  0  0  0  0  0  0  0  0  0  0
    5.2351   -1.3818    0.0022 O   0  0  0  0  0  0  0  0  0  0  0  0
    4.6729   -2.7834   -1.7944 N   0  0  0  0  0  0  0  0  0  0  0  0
    4.2337   -1.8223   -2.5057 C   0  0  0  0  0  0  0  0  0  0  0  0
    3.8925   -1.9971   -3.9360 C   0  0  0  0  0  0  0  0  0  0  0  0
    3.8260   -0.9523   -4.6333 O   0  0  0  0  0  0  0  0  0  0  0  0
    3.7712   -3.1695   -4.3392 O   0  0  0  0  0  0  0  0  0  0  0  0
    4.7970   -5.5829    2.0208 C   0  0  1  0  0  0  0  0  0  0  0  0
    5.7877   -5.2130    3.1411 C   0  0  0  0  0  0  0  0  0  0  0  0
    3.7014   -6.5905    2.4978 C   0  0  2  0  0  0  0  0  0  0  0  0
    3.4499   -7.6664    1.4156 C   0  0  0  0  0  0  0  0  0  0  0  0
    2.4946   -8.7760    1.8744 C   0  0  0  0  0  0  0  0  0  0  0  0
    1.1538   -8.2186    2.3749 C   0  0  1  0  0  0  0  0  0  0  0  0
    0.2404   -9.3760    2.8402 C   0  0  0  0  0  0  0  0  0  0  0  0
    1.4302   -7.1592    3.4720 C   0  0  2  0  0  0  0  0  0  0  0  0
    0.1816   -6.6884    4.2383 C   0  0  0  0  0  0  0  0  0  0  0  0
    0.5319   -5.7069    5.3569 C   0  0  0  0  0  0  0  0  0  0  0  0
    1.1030   -4.4192    4.7619 C   0  0  1  0  0  0  0  0  0  0  0  0
    1.4091   -3.3821    5.8505 C   0  0  0  0  0  0  0  0  0  0  0  0
    2.2983   -4.6893    3.8165 C   0  0  2  0  0  0  0  0  0  0  0  0
    2.1749   -3.9988    2.4597 C   0  0  2  0  0  0  0  0  0  0  0  0
    1.8205   -5.2637    1.8255 O   0  0  0  0  0  0  0  0  0  0  0  0
    2.3451   -5.9922    2.9784 C   0  0  1  0  0  0  0  0  0  0  0  0
    3.7246   -0.3610    3.3367 H   0  0  0  0  0  0  0  0  0  0  0  0
    2.2757   -1.3455    3.4392 H   0  0  0  0  0  0  0  0  0  0  0  0
    2.8325   -0.7384    1.8672 H   0  0  0  0  0  0  0  0  0  0  0  0
    5.0341   -2.0787    2.3008 H   0  0  0  0  0  0  0  0  0  0  0  0
    4.3227   -2.7688    3.6980 H   0  0  0  0  0  0  0  0  0  0  0  0
    3.6807   -4.8624    0.3602 H   0  0  0  0  0  0  0  0  0  0  0  0
    6.3014   -3.4901    0.8705 H   0  0  0  0  0  0  0  0  0  0  0  0
    5.7816   -4.5165   -0.4211 H   0  0  0  0  0  0  0  0  0  0  0  0
    4.0701   -0.8250   -2.0829 H   0  0  0  0  0  0  0  0  0  0  0  0
    5.4167   -6.1622    1.3406 H   0  0  0  0  0  0  0  0  0  0  0  0
    5.3395   -4.6691    3.9703 H   0  0  0  0  0  0  0  0  0  0  0  0
    6.6142   -4.6260    2.7489 H   0  0  0  0  0  0  0  0  0  0  0  0
    6.2340   -6.1171    3.5609 H   0  0  0  0  0  0  0  0  0  0  0  0
    4.1419   -7.1449    3.3294 H   0  0  0  0  0  0  0  0  0  0  0  0
    3.0357   -7.1841    0.5322 H   0  0  0  0  0  0  0  0  0  0  0  0
    4.3855   -8.1381    1.1125 H   0  0  0  0  0  0  0  0  0  0  0  0
    2.3199   -9.4835    1.0633 H   0  0  0  0  0  0  0  0  0  0  0  0
    2.9727   -9.3456    2.6717 H   0  0  0  0  0  0  0  0  0  0  0  0
    0.6547   -7.7284    1.5364 H   0  0  0  0  0  0  0  0  0  0  0  0
    0.6125   -9.8894    3.7274 H   0  0  0  0  0  0  0  0  0  0  0  0
    0.1494  -10.1348    2.0698 H   0  0  0  0  0  0  0  0  0  0  0  0
   -0.7749   -9.0405    3.0451 H   0  0  0  0  0  0  0  0  0  0  0  0
    2.0004   -7.6913    4.2313 H   0  0  0  0  0  0  0  0  0  0  0  0
   -0.5350   -6.2480    3.5488 H   0  0  0  0  0  0  0  0  0  0  0  0
   -0.3047   -7.5470    4.6955 H   0  0  0  0  0  0  0  0  0  0  0  0
   -0.3670   -5.4910    5.9394 H   0  0  0  0  0  0  0  0  0  0  0  0
    1.2457   -6.1724    6.0385 H   0  0  0  0  0  0  0  0  0  0  0  0
    0.2648   -3.9978    4.1954 H   0  0  0  0  0  0  0  0  0  0  0  0
    2.1692   -3.7376    6.5487 H   0  0  0  0  0  0  0  0  0  0  0  0
    0.5055   -3.1596    6.4213 H   0  0  0  0  0  0  0  0  0  0  0  0
    1.7574   -2.4476    5.4117 H   0  0  0  0  0  0  0  0  0  0  0  0
    3.2512   -4.5337    4.3114 H   0  0  0  0  0  0  0  0  0  0  0  0
    1.3631   -3.2745    2.4386 H   0  0  0  0  0  0  0  0  0  0  0  0
    3.0559   -2.9324    1.0520 H   0  0  0  0  0  0  0  0  0  0  0  0
  1  2  1  0
  1 29  1  0
  1 30  1  0
  1 31  1  0
  2  3  1  0
  2 32  1  0
  2 33  1  0
  3 26  1  0
  3  4  1  0
  3 62  1  6
  4  5  1  0
  4 13  1  0
  4 34  1  6
  5  6  1  0
  5 35  1  0
  5 36  1  0
  6  7  2  0
  6  8  1  0
  8  9  2  3
  9 10  1  0
  9 37  1  0
 10 11  2  0
 10 12  1  0
 13 14  1  0
 13 15  1  0
 13 38  1  6
 14 39  1  0
 14 40  1  0
 14 41  1  0
 15 28  1  0
 15 16  1  0
 15 42  1  1
 16 17  1  0
 16 43  1  0
 16 44  1  0
 17 18  1  0
 17 45  1  0
 17 46  1  0
 18 19  1  0
 18 20  1  0
 18 47  1  6
 19 48  1  0
 19 49  1  0
 19 50  1  0
 20 28  1  0
 20 21  1  0
 20 51  1  1
 21 22  1  0
 21 52  1  0
 21 53  1  0
 22 23  1  0
 22 54  1  0
 22 55  1  0
 23 24  1  0
 23 25  1  0
 23 56  1  6
 24 57  1  0
 24 58  1  0
 24 59  1  0
 25 28  1  0
 25 26  1  0
 25 60  1  1
 26 27  1  0
 26 61  1  1
 28 27  1  6
M  CHG  2   3   1  12  -1
M  END
>  <i_m_ct_stereo_status>  (120) 
1

>  <s_m_source_file>  (120) 
/var/tmp/pbs.5076255.sched01/tmpdonsa7tf/408ubvndgu.sdf

>  <i_m_source_file_index>  (120) 
16

>  <i_lp_mmshare_version>  (120) 
48012

>  <i_f3d_flags>  (120) 
0

>  <s_epik_input>  (120) 
Tz1DKFtPSF0pL1tDSF09TlxDKD1PKVtDSDJdW0NAQEhdKFtDQEBIXShbQ0gzXSlbQ0BIXTFbQ0BAXTIzNClOKFtDSDJdW0NIM10pW0NAQEhdKE80KVtDQEhdM1tDQEhdKFtDSDNdKVtDSDJdW0NIMl1bQ0BIXTJbQ0BIXShbQ0gzXSlbQ0gyXVtDSDJdMQ==

>  <s_epik_cmdline>  (120) 
J2VwaWtfcHl0aG9uJywgJy1waHQnLCAnMi4wJywgJy1waCcsICc3LjAnLCAnLXRuJywgJzgnLCAnLW1hJywgJzIwMCcsICctaW1hZScsICc8aW5maWxlLm1hZT4nLCAnLW9tYWUnLCAnPG91dGZpbGUubWFlPic=

>  <r_epik_Ionization_Penalty>  (120) 
1.09129

>  <r_epik_Ionization_Penalty_Charging>  (120) 
1.09129

>  <r_epik_Ionization_Penalty_Neutral>  (120) 
2.49961e-15

>  <r_epik_State_Penalty>  (120) 
1.1476

>  <r_epik_Charging_Adjusted_Penalty>  (120) 
2.23889

>  <i_epik_Tot_Q>  (120) 
0

>  <i_epik_Tot_abs_Q>  (120) 
2

>  <s_epik_Chemistry_Notes>  (120) 
This compound has an imine and may undergo hydrolysis. This compound contains an acetal/aminal-like group ( X-CH(R)-Y where X, Y are N, S, or O) that may be acid/base labile, releasing an aldehyde.

>  <s_lp_Force_Field>  (120) 
OPLS3e

>  <r_lp_Energy>  (120) 
54.2668

>  <b_lp_Chiralities_Consistent>  (120) 
1

>  <s_lp_Variant>  (120) 
41:0-4

>  <s_i_glide_gridfile>  (120) 
pfpi4k_grid

>  <i_i_glide_lignum>  (120) 
16

>  <i_i_glide_rotatable_bonds>  (120) 
5

>  <r_i_docking_score>  (120) 
-2.69574

>  <r_i_glide_ligand_efficiency>  (120) 
-0.0962764

>  <r_i_glide_ligand_efficiency_sa>  (120) 
-0.292352

>  <r_i_glide_ligand_efficiency_ln>  (120) 
-0.622256

>  <r_i_glide_gscore>  (120) 
-2.69574

>  <r_i_glide_lipo>  (120) 
-0.140767

>  <r_i_glide_hbond>  (120) 
-0.264206

>  <r_i_glide_metal>  (120) 
-0

>  <r_i_glide_rewards>  (120) 
-0.816017

>  <r_i_glide_evdw>  (120) 
-23.9774

>  <r_i_glide_ecoul>  (120) 
-5.09678

>  <r_i_glide_erotb>  (120) 
0.511603

>  <r_i_glide_esite>  (120) 
-0.0229636

>  <r_i_glide_emodel>  (120) 
-34.9899

>  <r_i_glide_energy>  (120) 
-29.0742

>  <r_i_glide_einternal>  (120) 
1.77908

>  <r_i_glide_intrahb_reward>  (120) 
-0

>  <i_i_glide_confnum>  (120) 
3

>  <i_i_glide_posenum>  (120) 
29

>  <r_i_glide_eff_state_penalty>  (120) 
0

>  <ligand_id>  (120) 
41

>  <original_smiles>  (120) 
CCN1C(CC(=O)N=CC(=O)O)C(C)C2CCC(C)C3CCC(C)C4C1OC324

>  <smiles>  (120) 
[H]C(=NC(=O)C([H])([H])C1([H])C([H])(C([H])([H])[H])C2([H])C([H])([H])C([H])([H])C([H])(C([H])([H])[H])C3([H])C([H])([H])C([H])([H])C([H])(C([H])([H])[H])C4([H])C32OC4([H])[N+]1([H])C([H])([H])C([H])([H])[H])C(=O)[O-]

$$$$
42:0:0
     RDKit          3D

 64 69  0  0  1  0  0  0  0  0999 V2000
   -0.1070   -4.4056    6.0575 C   0  0  0  0  0  0  0  0  0  0  0  0
    0.0912   -3.1657    6.9152 C   0  0  0  0  0  0  0  0  0  0  0  0
   -0.4513   -3.0561    8.0202 O   0  0  0  0  0  0  0  0  0  0  0  0
    0.8855   -2.2484    6.3242 O   0  0  0  0  0  0  0  0  0  0  0  0
    1.3196   -1.0734    7.0113 C   0  0  2  0  0  0  0  0  0  0  0  0
    0.1843   -0.0286    7.0698 C   0  0  0  0  0  0  0  0  0  0  0  0
    0.1559    1.1012    6.0019 C   0  0  1  0  0  0  0  0  0  0  0  0
   -1.0524    2.0019    6.4427 C   0  0  0  0  0  0  0  0  0  0  0  0
   -1.7178    2.8970    5.3870 C   0  0  0  0  0  0  0  0  0  0  0  0
   -1.7545    2.2261    4.0171 C   0  0  1  0  0  0  0  0  0  0  0  0
   -2.5352    3.0890    3.0063 C   0  0  0  0  0  0  0  0  0  0  0  0
   -0.3234    1.7630    3.5836 C   0  0  1  0  0  0  0  0  0  0  0  0
   -0.3843    1.2817    2.1126 C   0  0  0  0  0  0  0  0  0  0  0  0
    0.7477    2.9044    3.6806 C   0  0  0  0  0  0  0  0  0  0  0  0
    1.4321    3.0845    5.0671 C   0  0  0  0  0  0  0  0  0  0  0  0
    1.5283    1.7980    5.9430 C   0  0  2  0  0  0  0  0  0  0  0  0
    2.4436    0.6521    5.3863 C   0  0  2  0  0  0  0  0  0  0  0  0
    3.7742    1.2254    4.8164 C   0  0  0  0  0  0  0  0  0  0  0  0
    1.5543    0.1506    4.2111 C   0  0  1  0  0  0  0  0  0  0  0  0
    1.6211   -1.2342    3.9567 O   0  0  0  0  0  0  0  0  0  0  0  0
    2.8024   -1.7622    3.6548 C   0  0  0  0  0  0  0  0  0  0  0  0
    3.3490   -1.6810    2.5582 O   0  0  0  0  0  0  0  0  0  0  0  0
    3.3885   -2.4954    4.8309 C   0  0  1  0  0  0  0  0  0  0  0  0
    3.0812   -3.9720    4.9226 C   0  0  0  0  0  0  0  0  0  0  0  0
    4.3620   -3.5078    4.5088 O   0  0  0  0  0  0  0  0  0  0  0  0
    3.6796   -1.6542    6.0957 C   0  0  1  0  0  0  0  0  0  0  0  0
    5.0308   -1.2081    6.0489 O   0  0  0  0  0  0  0  0  0  0  0  0
    2.6870   -0.4768    6.5056 C   0  0  2  0  0  0  0  0  0  0  0  0
    3.3224    0.1549    7.7821 C   0  0  0  0  0  0  0  0  0  0  0  0
    0.0982    0.5949    4.5333 C   0  0  1  0  0  0  0  0  0  0  0  0
   -0.1714   -4.1366    5.0005 H   0  0  0  0  0  0  0  0  0  0  0  0
   -1.0216   -4.9249    6.3407 H   0  0  0  0  0  0  0  0  0  0  0  0
    0.7301   -5.0934    6.1888 H   0  0  0  0  0  0  0  0  0  0  0  0
    1.4919   -1.4112    8.0354 H   0  0  0  0  0  0  0  0  0  0  0  0
   -0.7732   -0.5462    7.0555 H   0  0  0  0  0  0  0  0  0  0  0  0
    0.2405    0.4480    8.0495 H   0  0  0  0  0  0  0  0  0  0  0  0
   -1.8513    1.3659    6.8243 H   0  0  0  0  0  0  0  0  0  0  0  0
   -0.7575    2.6220    7.2899 H   0  0  0  0  0  0  0  0  0  0  0  0
   -2.7313    3.1290    5.7166 H   0  0  0  0  0  0  0  0  0  0  0  0
   -1.2267    3.8645    5.3182 H   0  0  0  0  0  0  0  0  0  0  0  0
   -2.3588    1.3258    4.1346 H   0  0  0  0  0  0  0  0  0  0  0  0
   -1.9944    3.9930    2.7296 H   0  0  0  0  0  0  0  0  0  0  0  0
   -3.5033    3.3772    3.4166 H   0  0  0  0  0  0  0  0  0  0  0  0
   -2.7573    2.5338    2.0945 H   0  0  0  0  0  0  0  0  0  0  0  0
    0.5525    0.8485    1.7613 H   0  0  0  0  0  0  0  0  0  0  0  0
   -0.5826    2.1219    1.4472 H   0  0  0  0  0  0  0  0  0  0  0  0
   -1.1682    0.5416    1.9598 H   0  0  0  0  0  0  0  0  0  0  0  0
    1.5343    2.7193    2.9479 H   0  0  0  0  0  0  0  0  0  0  0  0
    0.3195    3.8546    3.3618 H   0  0  0  0  0  0  0  0  0  0  0  0
    2.4099    3.5437    4.9343 H   0  0  0  0  0  0  0  0  0  0  0  0
    0.8921    3.8385    5.6357 H   0  0  0  0  0  0  0  0  0  0  0  0
    1.8472    2.1334    6.9269 H   0  0  0  0  0  0  0  0  0  0  0  0
    4.3915    0.4621    4.3499 H   0  0  0  0  0  0  0  0  0  0  0  0
    4.3689    1.7258    5.5805 H   0  0  0  0  0  0  0  0  0  0  0  0
    3.6048    1.9435    4.0141 H   0  0  0  0  0  0  0  0  0  0  0  0
    1.9014    0.6238    3.2972 H   0  0  0  0  0  0  0  0  0  0  0  0
    3.0805   -4.4473    5.8959 H   0  0  0  0  0  0  0  0  0  0  0  0
    2.5106   -4.4665    4.1410 H   0  0  0  0  0  0  0  0  0  0  0  0
    3.6567   -2.3667    6.9234 H   0  0  0  0  0  0  0  0  0  0  0  0
    5.1428   -0.6378    5.3062 H   0  0  0  0  0  0  0  0  0  0  0  0
    4.1962    0.7675    7.5613 H   0  0  0  0  0  0  0  0  0  0  0  0
    3.6575   -0.6209    8.4720 H   0  0  0  0  0  0  0  0  0  0  0  0
    2.6278    0.7698    8.3509 H   0  0  0  0  0  0  0  0  0  0  0  0
   -0.6064   -0.2336    4.4418 H   0  0  0  0  0  0  0  0  0  0  0  0
  1  2  1  0
  1 31  1  0
  1 32  1  0
  1 33  1  0
  2  3  2  0
  2  4  1  0
  4  5  1  0
  5 28  1  0
  5  6  1  0
  5 34  1  1
  7  6  1  1
  6 35  1  0
  6 36  1  0
  7 16  1  0
  7 30  1  0
  7  8  1  0
  8  9  1  0
  8 37  1  0
  8 38  1  0
  9 10  1  0
  9 39  1  0
  9 40  1  0
 10 11  1  0
 10 12  1  0
 10 41  1  1
 11 42  1  0
 11 43  1  0
 11 44  1  0
 12 30  1  0
 12 13  1  6
 12 14  1  0
 13 45  1  0
 13 46  1  0
 13 47  1  0
 14 15  1  0
 14 48  1  0
 14 49  1  0
 15 16  1  0
 15 50  1  0
 15 51  1  0
 16 17  1  0
 16 52  1  1
 17 28  1  0
 17 18  1  6
 17 19  1  0
 18 53  1  0
 18 54  1  0
 18 55  1  0
 19 20  1  0
 19 30  1  0
 19 56  1  6
 20 21  1  0
 21 22  2  0
 21 23  1  0
 23 25  1  6
 23 24  1  0
 23 26  1  0
 24 25  1  0
 24 57  1  0
 24 58  1  0
 26 27  1  0
 26 28  1  0
 26 59  1  1
 27 60  1  0
 28 29  1  1
 29 61  1  0
 29 62  1  0
 29 63  1  0
 30 64  1  1
M  END
>  <i_m_ct_stereo_status>  (121) 
1

>  <s_m_source_file>  (121) 
/var/tmp/pbs.5076255.sched01/tmpdonsa7tf/408ubvndgu.sdf

>  <i_m_source_file_index>  (121) 
17

>  <i_lp_mmshare_version>  (121) 
48012

>  <i_f3d_flags>  (121) 
0

>  <s_epik_input>  (121) 
W0NIM11DKD1PKU9bQ0BIXShbQ0gyXTEpW0NAQF0yKFtDSDNdKVtDQEhdKFtPSF0pW0NAQF0zKFtDSDJdTzMpQyg9TylPW0NASF0oW0NAXTIoW0NAQEhdNFtDQEBdMTU2KVtDSDNdKVtDQEBIXTZbQ0BdKFtDSDNdKShbQ0gyXVtDSDJdNClbQ0BIXShbQ0gzXSlbQ0gyXVtDSDJdNQ==

>  <s_epik_cmdline>  (121) 
J2VwaWtfcHl0aG9uJywgJy1waHQnLCAnMi4wJywgJy1waCcsICc3LjAnLCAnLXRuJywgJzgnLCAnLW1hJywgJzIwMCcsICctaW1hZScsICc8aW5maWxlLm1hZT4nLCAnLW9tYWUnLCAnPG91dGZpbGUubWFlPic=

>  <r_lp_tautomer_probability>  (121) 
1

>  <r_epik_Ionization_Penalty>  (121) 
1.80662e-06

>  <r_epik_Ionization_Penalty_Charging>  (121) 
0

>  <r_epik_Ionization_Penalty_Neutral>  (121) 
1.80662e-06

>  <r_epik_State_Penalty>  (121) 
-0

>  <r_epik_Charging_Adjusted_Penalty>  (121) 
0

>  <i_epik_Tot_Q>  (121) 
0

>  <i_epik_Tot_abs_Q>  (121) 
0

>  <s_epik_Chemistry_Notes>  (121) 
This compound has an ester and may undergo hydrolysis at high or low pH.

>  <s_lp_Force_Field>  (121) 
OPLS3e

>  <r_lp_Energy>  (121) 
91.8303

>  <b_lp_Chiralities_Consistent>  (121) 
1

>  <s_lp_Variant>  (121) 
42:0-1

>  <s_i_glide_gridfile>  (121) 
pfpi4k_grid

>  <i_i_glide_lignum>  (121) 
17

>  <i_i_glide_rotatable_bonds>  (121) 
3

>  <r_i_docking_score>  (121) 
-1.97155

>  <r_i_glide_ligand_efficiency>  (121) 
-0.0657184

>  <r_i_glide_ligand_efficiency_sa>  (121) 
-0.204202

>  <r_i_glide_ligand_efficiency_ln>  (121) 
-0.447958

>  <r_i_glide_gscore>  (121) 
-1.97155

>  <r_i_glide_lipo>  (121) 
-0.0176009

>  <r_i_glide_hbond>  (121) 
-0.107947

>  <r_i_glide_metal>  (121) 
-0

>  <r_i_glide_rewards>  (121) 
-0.555524

>  <r_i_glide_evdw>  (121) 
-23.1565

>  <r_i_glide_ecoul>  (121) 
-1.49117

>  <r_i_glide_erotb>  (121) 
0.112896

>  <r_i_glide_esite>  (121) 
-0.021872

>  <r_i_glide_emodel>  (121) 
-27.0032

>  <r_i_glide_energy>  (121) 
-24.6477

>  <r_i_glide_einternal>  (121) 
0.395103

>  <r_i_glide_intrahb_reward>  (121) 
-0

>  <i_i_glide_confnum>  (121) 
1

>  <i_i_glide_posenum>  (121) 
37

>  <r_i_glide_eff_state_penalty>  (121) 
0

>  <ligand_id>  (121) 
42

>  <original_smiles>  (121) 
CC(=O)OC1CC23CCC(C)C4(C)CCC2C2(C)C(OC(=O)C5(CO5)C(O)C12C)C43

>  <smiles>  (121) 
[H]OC1([H])C2(OC2([H])[H])C(=O)OC2([H])C3([H])C4(C([H])([H])[H])C([H])([H])C([H])([H])C5([H])C3(C([H])([H])C([H])([H])C4([H])C([H])([H])[H])C([H])([H])C([H])(OC(=O)C([H])([H])[H])C1(C([H])([H])[H])C25C([H])([H])[H]

$$$$
42:0:1
     RDKit          3D

 64 69  0  0  1  0  0  0  0  0999 V2000
   -0.3999   -4.3898    6.4898 C   0  0  0  0  0  0  0  0  0  0  0  0
    0.1754   -3.1242    7.1063 C   0  0  0  0  0  0  0  0  0  0  0  0
   -0.1478   -2.7590    8.2406 O   0  0  0  0  0  0  0  0  0  0  0  0
    1.0238   -2.4882    6.2726 O   0  0  0  0  0  0  0  0  0  0  0  0
    1.8447   -1.4060    6.7122 C   0  0  2  0  0  0  0  0  0  0  0  0
    1.0185   -0.1181    6.9227 C   0  0  0  0  0  0  0  0  0  0  0  0
    0.9835    0.9375    5.7827 C   0  0  1  0  0  0  0  0  0  0  0  0
    0.1553    2.1192    6.3974 C   0  0  0  0  0  0  0  0  0  0  0  0
   -0.5370    3.0996    5.4398 C   0  0  0  0  0  0  0  0  0  0  0  0
   -1.0639    2.3950    4.1923 C   0  0  1  0  0  0  0  0  0  0  0  0
   -1.8554    3.3789    3.3091 C   0  0  0  0  0  0  0  0  0  0  0  0
    0.0794    1.5889    3.4886 C   0  0  1  0  0  0  0  0  0  0  0  0
   -0.4428    1.0748    2.1262 C   0  0  0  0  0  0  0  0  0  0  0  0
    1.3672    2.4436    3.2223 C   0  0  0  0  0  0  0  0  0  0  0  0
    2.3986    2.5128    4.3863 C   0  0  0  0  0  0  0  0  0  0  0  0
    2.4178    1.2794    5.3402 C   0  0  2  0  0  0  0  0  0  0  0  0
    2.8871   -0.0759    4.7054 C   0  0  2  0  0  0  0  0  0  0  0  0
    4.1268    0.1358    3.7889 C   0  0  0  0  0  0  0  0  0  0  0  0
    1.6445   -0.3997    3.8233 C   0  0  1  0  0  0  0  0  0  0  0  0
    1.3348   -1.7697    3.7004 O   0  0  0  0  0  0  0  0  0  0  0  0
    2.2564   -2.5784    3.1901 C   0  0  0  0  0  0  0  0  0  0  0  0
    2.5158   -2.6830    1.9935 O   0  0  0  0  0  0  0  0  0  0  0  0
    2.9356   -3.3799    4.2655 C   0  0  1  0  0  0  0  0  0  0  0  0
    2.3428   -4.7334    4.5726 C   0  0  0  0  0  0  0  0  0  0  0  0
    3.5490   -4.6070    3.8290 O   0  0  0  0  0  0  0  0  0  0  0  0
    3.7108   -2.5784    5.3393 C   0  0  1  0  0  0  0  0  0  0  0  0
    5.0693   -2.4721    4.9363 O   0  0  0  0  0  0  0  0  0  0  0  0
    3.1407   -1.1804    5.8466 C   0  0  2  0  0  0  0  0  0  0  0  0
    4.1986   -0.6659    6.8708 C   0  0  0  0  0  0  0  0  0  0  0  0
    0.4518    0.3952    4.4263 C   0  0  1  0  0  0  0  0  0  0  0  0
   -0.5789   -4.2460    5.4233 H   0  0  0  0  0  0  0  0  0  0  0  0
   -1.3396   -4.6597    6.9692 H   0  0  0  0  0  0  0  0  0  0  0  0
    0.2980   -5.2196    6.6151 H   0  0  0  0  0  0  0  0  0  0  0  0
    2.1840   -1.7270    7.6986 H   0  0  0  0  0  0  0  0  0  0  0  0
   -0.0041   -0.3809    7.1914 H   0  0  0  0  0  0  0  0  0  0  0  0
    1.4246    0.3730    7.8084 H   0  0  0  0  0  0  0  0  0  0  0  0
   -0.6441    1.7131    7.0168 H   0  0  0  0  0  0  0  0  0  0  0  0
    0.7816    2.6880    7.0865 H   0  0  0  0  0  0  0  0  0  0  0  0
   -1.3567    3.5835    5.9708 H   0  0  0  0  0  0  0  0  0  0  0  0
    0.1239    3.9164    5.1590 H   0  0  0  0  0  0  0  0  0  0  0  0
   -1.8059    1.6719    4.5364 H   0  0  0  0  0  0  0  0  0  0  0  0
   -1.2073    4.1160    2.8380 H   0  0  0  0  0  0  0  0  0  0  0  0
   -2.5959    3.9162    3.9011 H   0  0  0  0  0  0  0  0  0  0  0  0
   -2.4113    2.8595    2.5276 H   0  0  0  0  0  0  0  0  0  0  0  0
    0.2536    0.4085    1.6171 H   0  0  0  0  0  0  0  0  0  0  0  0
   -0.5831    1.9092    1.4388 H   0  0  0  0  0  0  0  0  0  0  0  0
   -1.3899    0.5441    2.2293 H   0  0  0  0  0  0  0  0  0  0  0  0
    1.8865    2.0456    2.3497 H   0  0  0  0  0  0  0  0  0  0  0  0
    1.0954    3.4550    2.9183 H   0  0  0  0  0  0  0  0  0  0  0  0
    3.3888    2.7179    3.9840 H   0  0  0  0  0  0  0  0  0  0  0  0
    2.1979    3.3983    4.9850 H   0  0  0  0  0  0  0  0  0  0  0  0
    3.0369    1.5705    6.1855 H   0  0  0  0  0  0  0  0  0  0  0  0
    4.4240   -0.7720    3.2714 H   0  0  0  0  0  0  0  0  0  0  0  0
    4.9886    0.5129    4.3395 H   0  0  0  0  0  0  0  0  0  0  0  0
    3.9239    0.8382    2.9810 H   0  0  0  0  0  0  0  0  0  0  0  0
    1.8518   -0.0633    2.8111 H   0  0  0  0  0  0  0  0  0  0  0  0
    2.4791   -5.1542    5.5616 H   0  0  0  0  0  0  0  0  0  0  0  0
    1.4994   -5.1100    3.9970 H   0  0  0  0  0  0  0  0  0  0  0  0
    3.7369   -3.2284    6.2172 H   0  0  0  0  0  0  0  0  0  0  0  0
    5.1141   -2.0032    4.1200 H   0  0  0  0  0  0  0  0  0  0  0  0
    5.1040   -0.2919    6.3934 H   0  0  0  0  0  0  0  0  0  0  0  0
    4.5126   -1.4693    7.5382 H   0  0  0  0  0  0  0  0  0  0  0  0
    3.8226    0.1222    7.5204 H   0  0  0  0  0  0  0  0  0  0  0  0
   -0.4189   -0.2427    4.5841 H   0  0  0  0  0  0  0  0  0  0  0  0
  1  2  1  0
  1 31  1  0
  1 32  1  0
  1 33  1  0
  2  3  2  0
  2  4  1  0
  4  5  1  0
  5 28  1  0
  5  6  1  0
  5 34  1  1
  7  6  1  1
  6 35  1  0
  6 36  1  0
  7 16  1  0
  7 30  1  0
  7  8  1  0
  8  9  1  0
  8 37  1  0
  8 38  1  0
  9 10  1  0
  9 39  1  0
  9 40  1  0
 10 11  1  0
 10 12  1  0
 10 41  1  1
 11 42  1  0
 11 43  1  0
 11 44  1  0
 12 30  1  0
 12 13  1  6
 12 14  1  0
 13 45  1  0
 13 46  1  0
 13 47  1  0
 14 15  1  0
 14 48  1  0
 14 49  1  0
 15 16  1  0
 15 50  1  0
 15 51  1  0
 16 17  1  0
 16 52  1  1
 17 28  1  0
 17 18  1  6
 17 19  1  0
 18 53  1  0
 18 54  1  0
 18 55  1  0
 19 20  1  0
 19 30  1  0
 19 56  1  6
 20 21  1  0
 21 22  2  0
 21 23  1  0
 23 25  1  6
 23 24  1  0
 23 26  1  0
 24 25  1  0
 24 57  1  0
 24 58  1  0
 26 27  1  0
 26 28  1  0
 26 59  1  1
 27 60  1  0
 28 29  1  1
 29 61  1  0
 29 62  1  0
 29 63  1  0
 30 64  1  1
M  END
>  <i_m_ct_stereo_status>  (122) 
1

>  <s_m_source_file>  (122) 
/var/tmp/pbs.5076255.sched01/tmpdonsa7tf/408ubvndgu.sdf

>  <i_m_source_file_index>  (122) 
17

>  <i_lp_mmshare_version>  (122) 
48012

>  <i_f3d_flags>  (122) 
0

>  <s_epik_input>  (122) 
W0NIM11DKD1PKU9bQ0BIXShbQ0gyXTEpW0NAQF0yKFtDSDNdKVtDQEhdKFtPSF0pW0NAQF0zKFtDSDJdTzMpQyg9TylPW0NASF0oW0NAXTIoW0NAQEhdNFtDQEBdMTU2KVtDSDNdKVtDQEBIXTZbQ0BdKFtDSDNdKShbQ0gyXVtDSDJdNClbQ0BIXShbQ0gzXSlbQ0gyXVtDSDJdNQ==

>  <s_epik_cmdline>  (122) 
J2VwaWtfcHl0aG9uJywgJy1waHQnLCAnMi4wJywgJy1waCcsICc3LjAnLCAnLXRuJywgJzgnLCAnLW1hJywgJzIwMCcsICctaW1hZScsICc8aW5maWxlLm1hZT4nLCAnLW9tYWUnLCAnPG91dGZpbGUubWFlPic=

>  <r_lp_tautomer_probability>  (122) 
1

>  <r_epik_Ionization_Penalty>  (122) 
1.80662e-06

>  <r_epik_Ionization_Penalty_Charging>  (122) 
0

>  <r_epik_Ionization_Penalty_Neutral>  (122) 
1.80662e-06

>  <r_epik_State_Penalty>  (122) 
-0

>  <r_epik_Charging_Adjusted_Penalty>  (122) 
0

>  <i_epik_Tot_Q>  (122) 
0

>  <i_epik_Tot_abs_Q>  (122) 
0

>  <s_epik_Chemistry_Notes>  (122) 
This compound has an ester and may undergo hydrolysis at high or low pH.

>  <s_lp_Force_Field>  (122) 
OPLS3e

>  <r_lp_Energy>  (122) 
91.8303

>  <b_lp_Chiralities_Consistent>  (122) 
1

>  <s_lp_Variant>  (122) 
42:0-1

>  <s_i_glide_gridfile>  (122) 
pfpi4k_grid

>  <i_i_glide_lignum>  (122) 
17

>  <i_i_glide_rotatable_bonds>  (122) 
3

>  <r_i_docking_score>  (122) 
-1.9373

>  <r_i_glide_ligand_efficiency>  (122) 
-0.0645766

>  <r_i_glide_ligand_efficiency_sa>  (122) 
-0.200655

>  <r_i_glide_ligand_efficiency_ln>  (122) 
-0.440175

>  <r_i_glide_gscore>  (122) 
-1.9373

>  <r_i_glide_lipo>  (122) 
-0.000204546

>  <r_i_glide_hbond>  (122) 
-0.130765

>  <r_i_glide_metal>  (122) 
-0

>  <r_i_glide_rewards>  (122) 
-0.555524

>  <r_i_glide_evdw>  (122) 
-23.0897

>  <r_i_glide_ecoul>  (122) 
-1.23252

>  <r_i_glide_erotb>  (122) 
0.112896

>  <r_i_glide_esite>  (122) 
-0.0243366

>  <r_i_glide_emodel>  (122) 
-26.027

>  <r_i_glide_energy>  (122) 
-24.3223

>  <r_i_glide_einternal>  (122) 
0.831802

>  <r_i_glide_intrahb_reward>  (122) 
-0

>  <i_i_glide_confnum>  (122) 
1

>  <i_i_glide_posenum>  (122) 
35

>  <r_i_glide_eff_state_penalty>  (122) 
0

>  <ligand_id>  (122) 
42

>  <original_smiles>  (122) 
CC(=O)OC1CC23CCC(C)C4(C)CCC2C2(C)C(OC(=O)C5(CO5)C(O)C12C)C43

>  <smiles>  (122) 
[H]OC1([H])C2(OC2([H])[H])C(=O)OC2([H])C3([H])C4(C([H])([H])[H])C([H])([H])C([H])([H])C5([H])C3(C([H])([H])C([H])([H])C4([H])C([H])([H])[H])C([H])([H])C([H])(OC(=O)C([H])([H])[H])C1(C([H])([H])[H])C25C([H])([H])[H]

$$$$
42:0:2
     RDKit          3D

 64 69  0  0  1  0  0  0  0  0999 V2000
    0.6401   -3.0061    8.7149 C   0  0  0  0  0  0  0  0  0  0  0  0
    0.2384   -3.0723    7.2356 C   0  0  0  0  0  0  0  0  0  0  0  0
   -0.6577   -3.8337    6.8798 O   0  0  0  0  0  0  0  0  0  0  0  0
    0.8742   -2.2561    6.3504 O   0  0  0  0  0  0  0  0  0  0  0  0
    1.8173   -1.2544    6.7176 C   0  0  2  0  0  0  0  0  0  0  0  0
    1.0423    0.0499    6.9296 C   0  0  0  0  0  0  0  0  0  0  0  0
    1.0376    1.0967    5.7889 C   0  0  1  0  0  0  0  0  0  0  0  0
    0.2793    2.3114    6.4240 C   0  0  0  0  0  0  0  0  0  0  0  0
   -0.3652    3.3304    5.4777 C   0  0  0  0  0  0  0  0  0  0  0  0
   -0.9504    2.6526    4.2424 C   0  0  1  0  0  0  0  0  0  0  0  0
   -1.7022    3.6740    3.3702 C   0  0  0  0  0  0  0  0  0  0  0  0
    0.1333    1.7835    3.5227 C   0  0  1  0  0  0  0  0  0  0  0  0
   -0.4501    1.2861    2.1809 C   0  0  0  0  0  0  0  0  0  0  0  0
    1.4662    2.5512    3.2209 C   0  0  0  0  0  0  0  0  0  0  0  0
    2.5123    2.5824    4.3712 C   0  0  0  0  0  0  0  0  0  0  0  0
    2.4799    1.3543    5.3234 C   0  0  2  0  0  0  0  0  0  0  0  0
    2.8657   -0.0210    4.6782 C   0  0  2  0  0  0  0  0  0  0  0  0
    4.1008    0.1128    3.7460 C   0  0  0  0  0  0  0  0  0  0  0  0
    1.5950   -0.2855    3.8233 C   0  0  1  0  0  0  0  0  0  0  0  0
    1.2228   -1.6397    3.7395 O   0  0  0  0  0  0  0  0  0  0  0  0
    2.0763   -2.5026    3.2080 C   0  0  0  0  0  0  0  0  0  0  0  0
    2.3213   -2.6408    2.0185 O   0  0  0  0  0  0  0  0  0  0  0  0
    2.7114   -3.3347    4.2823 C   0  0  1  0  0  0  0  0  0  0  0  0
    2.0413   -4.6534    4.6071 C   0  0  0  0  0  0  0  0  0  0  0  0
    3.2315   -4.6059    3.8433 O   0  0  0  0  0  0  0  0  0  0  0  0
    3.5630   -2.5608    5.3205 C   0  0  1  0  0  0  0  0  0  0  0  0
    4.9229   -2.5483    4.8976 O   0  0  0  0  0  0  0  0  0  0  0  0
    3.0885   -1.1247    5.8137 C   0  0  2  0  0  0  0  0  0  0  0  0
    4.1984   -0.6754    6.8127 C   0  0  0  0  0  0  0  0  0  0  0  0
    0.4553    0.5730    4.4492 C   0  0  1  0  0  0  0  0  0  0  0  0
    1.7215   -3.0644    8.8619 H   0  0  0  0  0  0  0  0  0  0  0  0
    0.1795   -3.8238    9.2756 H   0  0  0  0  0  0  0  0  0  0  0  0
    0.2812   -2.0779    9.1473 H   0  0  0  0  0  0  0  0  0  0  0  0
    2.2091   -1.5222    7.7064 H   0  0  0  0  0  0  0  0  0  0  0  0
    0.0160   -0.1903    7.2169 H   0  0  0  0  0  0  0  0  0  0  0  0
    1.4856    0.5241    7.8047 H   0  0  0  0  0  0  0  0  0  0  0  0
   -0.5258    1.9473    7.0719 H   0  0  0  0  0  0  0  0  0  0  0  0
    0.9522    2.8497    7.0906 H   0  0  0  0  0  0  0  0  0  0  0  0
   -1.1461    3.8613    6.0224 H   0  0  0  0  0  0  0  0  0  0  0  0
    0.3425    4.1042    5.1824 H   0  0  0  0  0  0  0  0  0  0  0  0
   -1.7243    1.9745    4.6040 H   0  0  0  0  0  0  0  0  0  0  0  0
   -1.0215    4.3688    2.8799 H   0  0  0  0  0  0  0  0  0  0  0  0
   -2.4062    4.2455    3.9729 H   0  0  0  0  0  0  0  0  0  0  0  0
   -2.2951    3.1810    2.6007 H   0  0  0  0  0  0  0  0  0  0  0  0
    0.2062    0.5909    1.6534 H   0  0  0  0  0  0  0  0  0  0  0  0
   -0.5797    2.1277    1.4995 H   0  0  0  0  0  0  0  0  0  0  0  0
   -1.4207    0.7985    2.3094 H   0  0  0  0  0  0  0  0  0  0  0  0
    1.9439    2.1214    2.3355 H   0  0  0  0  0  0  0  0  0  0  0  0
    1.2463    3.5736    2.9350 H   0  0  0  0  0  0  0  0  0  0  0  0
    3.5082    2.7271    3.9579 H   0  0  0  0  0  0  0  0  0  0  0  0
    2.3679    3.4786    4.9758 H   0  0  0  0  0  0  0  0  0  0  0  0
    3.1282    1.6072    6.1615 H   0  0  0  0  0  0  0  0  0  0  0  0
    4.3375   -0.8186    3.2348 H   0  0  0  0  0  0  0  0  0  0  0  0
    4.9908    0.4360    4.2902 H   0  0  0  0  0  0  0  0  0  0  0  0
    3.9294    0.8222    2.9358 H   0  0  0  0  0  0  0  0  0  0  0  0
    1.7964    0.0328    2.8034 H   0  0  0  0  0  0  0  0  0  0  0  0
    2.1747   -5.0835    5.5908 H   0  0  0  0  0  0  0  0  0  0  0  0
    1.1706   -4.9908    4.0505 H   0  0  0  0  0  0  0  0  0  0  0  0
    3.5608   -3.2008    6.2031 H   0  0  0  0  0  0  0  0  0  0  0  0
    4.9891   -2.0844    4.0762 H   0  0  0  0  0  0  0  0  0  0  0  0
    5.1254   -0.3598    6.3358 H   0  0  0  0  0  0  0  0  0  0  0  0
    4.4582   -1.4995    7.4776 H   0  0  0  0  0  0  0  0  0  0  0  0
    3.8707    0.1229    7.4725 H   0  0  0  0  0  0  0  0  0  0  0  0
   -0.4462   -0.0161    4.6308 H   0  0  0  0  0  0  0  0  0  0  0  0
  1  2  1  0
  1 31  1  0
  1 32  1  0
  1 33  1  0
  2  3  2  0
  2  4  1  0
  4  5  1  0
  5 28  1  0
  5  6  1  0
  5 34  1  1
  7  6  1  1
  6 35  1  0
  6 36  1  0
  7 16  1  0
  7 30  1  0
  7  8  1  0
  8  9  1  0
  8 37  1  0
  8 38  1  0
  9 10  1  0
  9 39  1  0
  9 40  1  0
 10 11  1  0
 10 12  1  0
 10 41  1  1
 11 42  1  0
 11 43  1  0
 11 44  1  0
 12 30  1  0
 12 13  1  6
 12 14  1  0
 13 45  1  0
 13 46  1  0
 13 47  1  0
 14 15  1  0
 14 48  1  0
 14 49  1  0
 15 16  1  0
 15 50  1  0
 15 51  1  0
 16 17  1  0
 16 52  1  1
 17 28  1  0
 17 18  1  6
 17 19  1  0
 18 53  1  0
 18 54  1  0
 18 55  1  0
 19 20  1  0
 19 30  1  0
 19 56  1  6
 20 21  1  0
 21 22  2  0
 21 23  1  0
 23 25  1  6
 23 24  1  0
 23 26  1  0
 24 25  1  0
 24 57  1  0
 24 58  1  0
 26 27  1  0
 26 28  1  0
 26 59  1  1
 27 60  1  0
 28 29  1  1
 29 61  1  0
 29 62  1  0
 29 63  1  0
 30 64  1  1
M  END
>  <i_m_ct_stereo_status>  (123) 
1

>  <s_m_source_file>  (123) 
/var/tmp/pbs.5076255.sched01/tmpdonsa7tf/408ubvndgu.sdf

>  <i_m_source_file_index>  (123) 
17

>  <i_lp_mmshare_version>  (123) 
48012

>  <i_f3d_flags>  (123) 
0

>  <s_epik_input>  (123) 
W0NIM11DKD1PKU9bQ0BIXShbQ0gyXTEpW0NAQF0yKFtDSDNdKVtDQEhdKFtPSF0pW0NAQF0zKFtDSDJdTzMpQyg9TylPW0NASF0oW0NAXTIoW0NAQEhdNFtDQEBdMTU2KVtDSDNdKVtDQEBIXTZbQ0BdKFtDSDNdKShbQ0gyXVtDSDJdNClbQ0BIXShbQ0gzXSlbQ0gyXVtDSDJdNQ==

>  <s_epik_cmdline>  (123) 
J2VwaWtfcHl0aG9uJywgJy1waHQnLCAnMi4wJywgJy1waCcsICc3LjAnLCAnLXRuJywgJzgnLCAnLW1hJywgJzIwMCcsICctaW1hZScsICc8aW5maWxlLm1hZT4nLCAnLW9tYWUnLCAnPG91dGZpbGUubWFlPic=

>  <r_lp_tautomer_probability>  (123) 
1

>  <r_epik_Ionization_Penalty>  (123) 
1.80662e-06

>  <r_epik_Ionization_Penalty_Charging>  (123) 
0

>  <r_epik_Ionization_Penalty_Neutral>  (123) 
1.80662e-06

>  <r_epik_State_Penalty>  (123) 
-0

>  <r_epik_Charging_Adjusted_Penalty>  (123) 
0

>  <i_epik_Tot_Q>  (123) 
0

>  <i_epik_Tot_abs_Q>  (123) 
0

>  <s_epik_Chemistry_Notes>  (123) 
This compound has an ester and may undergo hydrolysis at high or low pH.

>  <s_lp_Force_Field>  (123) 
OPLS3e

>  <r_lp_Energy>  (123) 
91.8303

>  <b_lp_Chiralities_Consistent>  (123) 
1

>  <s_lp_Variant>  (123) 
42:0-1

>  <s_i_glide_gridfile>  (123) 
pfpi4k_grid

>  <i_i_glide_lignum>  (123) 
17

>  <i_i_glide_rotatable_bonds>  (123) 
3

>  <r_i_docking_score>  (123) 
-1.51212

>  <r_i_glide_ligand_efficiency>  (123) 
-0.0504039

>  <r_i_glide_ligand_efficiency_sa>  (123) 
-0.156617

>  <r_i_glide_ligand_efficiency_ln>  (123) 
-0.343569

>  <r_i_glide_gscore>  (123) 
-1.51212

>  <r_i_glide_lipo>  (123) 
-0.00016106

>  <r_i_glide_hbond>  (123) 
0

>  <r_i_glide_metal>  (123) 
-0

>  <r_i_glide_rewards>  (123) 
-0.555524

>  <r_i_glide_evdw>  (123) 
-23.203

>  <r_i_glide_ecoul>  (123) 
0.771343

>  <r_i_glide_erotb>  (123) 
0.112896

>  <r_i_glide_esite>  (123) 
-0.0248783

>  <r_i_glide_emodel>  (123) 
-21.4475

>  <r_i_glide_energy>  (123) 
-22.4317

>  <r_i_glide_einternal>  (123) 
5.201

>  <r_i_glide_intrahb_reward>  (123) 
-0

>  <i_i_glide_confnum>  (123) 
1

>  <i_i_glide_posenum>  (123) 
5

>  <r_i_glide_eff_state_penalty>  (123) 
0

>  <ligand_id>  (123) 
42

>  <original_smiles>  (123) 
CC(=O)OC1CC23CCC(C)C4(C)CCC2C2(C)C(OC(=O)C5(CO5)C(O)C12C)C43

>  <smiles>  (123) 
[H]OC1([H])C2(OC2([H])[H])C(=O)OC2([H])C3([H])C4(C([H])([H])[H])C([H])([H])C([H])([H])C5([H])C3(C([H])([H])C([H])([H])C4([H])C([H])([H])[H])C([H])([H])C([H])(OC(=O)C([H])([H])[H])C1(C([H])([H])[H])C25C([H])([H])[H]

$$$$
43:0:0
     RDKit          3D

 65 70  0  0  1  0  0  0  0  0999 V2000
    4.6182   -5.1759    4.6772 C   0  0  0  0  0  0  0  0  0  0  0  0
    4.0375   -5.7341    3.3623 C   0  0  2  0  0  0  0  0  0  0  0  0
    4.8986   -6.8869    2.7760 C   0  0  2  0  0  0  0  0  0  0  0  0
    5.9207   -6.5549    1.6742 C   0  0  0  0  0  0  0  0  0  0  0  0
    5.4292   -5.4680    0.7166 C   0  0  0  0  0  0  0  0  0  0  0  0
    4.9138   -4.2154    1.4647 C   0  0  2  0  0  0  0  0  0  0  0  0
    3.6984   -4.5897    2.3691 C   0  0  2  0  0  0  0  0  0  0  0  0
    2.9538   -3.3750    3.0052 C   0  0  0  0  0  0  0  0  0  0  0  0
    2.7927   -2.1427    2.0768 C   0  0  0  0  0  0  0  0  0  0  0  0
    4.1301   -1.8056    1.4003 C   0  0  2  0  0  0  0  0  0  0  0  0
    5.1503   -1.3702    2.5007 C   0  0  0  0  0  0  0  0  0  0  0  0
    4.1117   -0.6593    0.3793 C   0  0  0  0  0  0  0  0  0  0  0  0
    5.3059   -0.9528   -0.5485 C   0  0  0  0  0  0  0  0  0  0  0  0
    5.7397   -2.4076   -0.2670 C   0  0  0  0  0  0  0  0  0  0  0  0
    4.5715   -3.0175    0.5265 C   0  0  1  0  0  0  0  0  0  0  0  0
    3.5074   -3.4460   -0.5329 C   0  0  0  0  0  0  0  0  0  0  0  0
    3.6054   -7.6254    2.4514 C   0  0  1  0  0  0  0  0  0  0  0  0
    3.4459   -9.1410    2.5437 C   0  0  0  0  0  0  0  0  0  0  0  0
    2.0129   -9.5344    2.1863 C   0  0  0  0  0  0  0  0  0  0  0  0
    0.9196   -8.9844    3.1358 C   0  0  1  0  0  0  0  0  0  0  0  0
    0.7581   -7.5593    3.6304 C   0  0  1  0  0  0  0  0  0  0  0  0
    1.6284   -6.5378    3.1337 O   0  0  0  0  0  0  0  0  0  0  0  0
    2.9540   -6.8192    3.5486 C   0  0  2  0  0  0  0  0  0  0  0  0
   -0.2309   -8.1178    2.6486 C   0  0  1  0  0  0  0  0  0  0  0  0
   -0.0900   -7.6089    1.3275 O   0  0  0  0  0  0  0  0  0  0  0  0
   -1.6937   -8.3989    3.0100 C   0  0  0  0  0  0  0  0  0  0  0  0
   -1.7950   -8.6636    4.3832 O   0  0  0  0  0  0  0  0  0  0  0  0
    5.0189   -5.9746    5.3041 H   0  0  0  0  0  0  0  0  0  0  0  0
    3.8621   -4.6867    5.2890 H   0  0  0  0  0  0  0  0  0  0  0  0
    5.4345   -4.4793    4.5070 H   0  0  0  0  0  0  0  0  0  0  0  0
    5.3691   -7.4414    3.5776 H   0  0  0  0  0  0  0  0  0  0  0  0
    6.8379   -6.2091    2.1408 H   0  0  0  0  0  0  0  0  0  0  0  0
    6.1881   -7.4504    1.1210 H   0  0  0  0  0  0  0  0  0  0  0  0
    6.2428   -5.1909    0.0345 H   0  0  0  0  0  0  0  0  0  0  0  0
    4.6345   -5.8885    0.1024 H   0  0  0  0  0  0  0  0  0  0  0  0
    5.7389   -3.9176    2.1029 H   0  0  0  0  0  0  0  0  0  0  0  0
    2.9623   -5.0118    1.6858 H   0  0  0  0  0  0  0  0  0  0  0  0
    1.9620   -3.7031    3.3220 H   0  0  0  0  0  0  0  0  0  0  0  0
    3.4463   -3.0370    3.9097 H   0  0  0  0  0  0  0  0  0  0  0  0
    2.0116   -2.3196    1.3351 H   0  0  0  0  0  0  0  0  0  0  0  0
    2.4345   -1.2929    2.6598 H   0  0  0  0  0  0  0  0  0  0  0  0
    6.1233   -1.0942    2.0984 H   0  0  0  0  0  0  0  0  0  0  0  0
    5.3339   -2.1275    3.2589 H   0  0  0  0  0  0  0  0  0  0  0  0
    4.7800   -0.4939    3.0356 H   0  0  0  0  0  0  0  0  0  0  0  0
    3.1788   -0.6685   -0.1853 H   0  0  0  0  0  0  0  0  0  0  0  0
    4.2002    0.3284    0.8402 H   0  0  0  0  0  0  0  0  0  0  0  0
    5.0132   -0.8080   -1.5898 H   0  0  0  0  0  0  0  0  0  0  0  0
    6.1323   -0.2761   -0.3404 H   0  0  0  0  0  0  0  0  0  0  0  0
    5.9479   -2.9455   -1.1940 H   0  0  0  0  0  0  0  0  0  0  0  0
    6.6566   -2.4144    0.3211 H   0  0  0  0  0  0  0  0  0  0  0  0
    3.1633   -2.6212   -1.1572 H   0  0  0  0  0  0  0  0  0  0  0  0
    2.6097   -3.8871   -0.1048 H   0  0  0  0  0  0  0  0  0  0  0  0
    3.9068   -4.1861   -1.2281 H   0  0  0  0  0  0  0  0  0  0  0  0
    3.2466   -7.2650    1.4893 H   0  0  0  0  0  0  0  0  0  0  0  0
    4.1315   -9.6296    1.8517 H   0  0  0  0  0  0  0  0  0  0  0  0
    3.7019   -9.4856    3.5450 H   0  0  0  0  0  0  0  0  0  0  0  0
    1.8008   -9.2644    1.1683 H   0  0  0  0  0  0  0  0  0  0  0  0
    1.9371  -10.6277    2.2388 H   0  0  0  0  0  0  0  0  0  0  0  0
    0.6579   -9.7279    3.8764 H   0  0  0  0  0  0  0  0  0  0  0  0
    0.4719   -7.4045    4.6720 H   0  0  0  0  0  0  0  0  0  0  0  0
    3.0601   -7.2989    4.5190 H   0  0  0  0  0  0  0  0  0  0  0  0
   -0.1147   -8.3553    0.7533 H   0  0  0  0  0  0  0  0  0  0  0  0
   -2.2827   -7.5141    2.7730 H   0  0  0  0  0  0  0  0  0  0  0  0
   -2.0786   -9.2358    2.4271 H   0  0  0  0  0  0  0  0  0  0  0  0
   -1.7902   -9.6007    4.5559 H   0  0  0  0  0  0  0  0  0  0  0  0
  2  1  1  1
  1 28  1  0
  1 29  1  0
  1 30  1  0
  2  7  1  0
  2 23  1  0
  2  3  1  0
  3  4  1  0
  3 17  1  0
  3 31  1  1
  4  5  1  0
  4 32  1  0
  4 33  1  0
  5  6  1  0
  5 34  1  0
  5 35  1  0
  6 15  1  0
  6  7  1  0
  6 36  1  1
  7  8  1  0
  7 37  1  6
  8  9  1  0
  8 38  1  0
  8 39  1  0
  9 10  1  0
  9 40  1  0
  9 41  1  0
 10 15  1  0
 10 11  1  1
 10 12  1  0
 11 42  1  0
 11 43  1  0
 11 44  1  0
 12 13  1  0
 12 45  1  0
 12 46  1  0
 13 14  1  0
 13 47  1  0
 13 48  1  0
 14 15  1  0
 14 49  1  0
 14 50  1  0
 15 16  1  6
 16 51  1  0
 16 52  1  0
 16 53  1  0
 17 23  1  0
 17 18  1  0
 17 54  1  6
 18 19  1  0
 18 55  1  0
 18 56  1  0
 19 20  1  0
 19 57  1  0
 19 58  1  0
 20 24  1  0
 20 21  1  0
 20 59  1  1
 21 22  1  0
 21 24  1  0
 21 60  1  1
 22 23  1  0
 23 61  1  1
 24 25  1  6
 24 26  1  0
 25 62  1  0
 26 27  1  0
 26 63  1  0
 26 64  1  0
 27 65  1  0
M  END
>  <i_m_ct_stereo_status>  (124) 
1

>  <s_m_source_file>  (124) 
/var/tmp/pbs.5076255.sched01/tmpdonsa7tf/408ubvndgu.sdf

>  <i_m_source_file_index>  (124) 
18

>  <i_lp_mmshare_version>  (124) 
48012

>  <i_f3d_flags>  (124) 
0

>  <s_epik_input>  (124) 
W09IXVtDSDJdW0NAXTEoW09IXSlbQ0BASF0oW0NIMl1bQ0gyXTIpW0NASF0xT1tDQEhdM1tDQEhdMltDQEhdKFtDQF0zNFtDSDNdKVtDSDJdW0NIMl1bQ0BASF01W0NAQEhdNFtDSDJdW0NIMl1bQ0BAXTYoW0NIM10pW0NAQF01KFtDSDNdKVtDSDJdW0NIMl1bQ0gyXTY=

>  <s_epik_cmdline>  (124) 
J2VwaWtfcHl0aG9uJywgJy1waHQnLCAnMi4wJywgJy1waCcsICc3LjAnLCAnLXRuJywgJzgnLCAnLW1hJywgJzIwMCcsICctaW1hZScsICc8aW5maWxlLm1hZT4nLCAnLW9tYWUnLCAnPG91dGZpbGUubWFlPic=

>  <r_lp_tautomer_probability>  (124) 
1

>  <r_epik_Ionization_Penalty>  (124) 
1.65039e-07

>  <r_epik_Ionization_Penalty_Charging>  (124) 
0

>  <r_epik_Ionization_Penalty_Neutral>  (124) 
1.65039e-07

>  <r_epik_State_Penalty>  (124) 
-0

>  <r_epik_Charging_Adjusted_Penalty>  (124) 
0

>  <i_epik_Tot_Q>  (124) 
0

>  <i_epik_Tot_abs_Q>  (124) 
0

>  <s_lp_Force_Field>  (124) 
OPLS3e

>  <r_lp_Energy>  (124) 
61.9586

>  <b_lp_Chiralities_Consistent>  (124) 
1

>  <s_lp_Variant>  (124) 
43:0-1

>  <s_i_glide_gridfile>  (124) 
pfpi4k_grid

>  <i_i_glide_lignum>  (124) 
18

>  <i_i_glide_rotatable_bonds>  (124) 
3

>  <r_i_docking_score>  (124) 
-4.04078

>  <r_i_glide_ligand_efficiency>  (124) 
-0.149658

>  <r_i_glide_ligand_efficiency_sa>  (124) 
-0.448975

>  <r_i_glide_ligand_efficiency_ln>  (124) 
-0.940627

>  <r_i_glide_gscore>  (124) 
-4.04078

>  <r_i_glide_lipo>  (124) 
-0.517756

>  <r_i_glide_hbond>  (124) 
-0.152

>  <r_i_glide_metal>  (124) 
-0

>  <r_i_glide_rewards>  (124) 
-0.855295

>  <r_i_glide_evdw>  (124) 
-18.6913

>  <r_i_glide_ecoul>  (124) 
-11.46

>  <r_i_glide_erotb>  (124) 
0.137835

>  <r_i_glide_esite>  (124) 
0

>  <r_i_glide_emodel>  (124) 
-38.4037

>  <r_i_glide_energy>  (124) 
-30.1513

>  <r_i_glide_einternal>  (124) 
1.18811

>  <r_i_glide_intrahb_reward>  (124) 
-0

>  <i_i_glide_confnum>  (124) 
3

>  <i_i_glide_posenum>  (124) 
30

>  <r_i_glide_eff_state_penalty>  (124) 
0

>  <ligand_id>  (124) 
43

>  <original_smiles>  (124) 
CC12C(CCC3C1CCC1(C)CCCC31C)C1CCC3C(OC12)C3(O)CO

>  <smiles>  (124) 
[H]OC([H])([H])C1(O[H])C2([H])OC3([H])C([H])(C([H])([H])C([H])([H])C21[H])C1([H])C([H])([H])C([H])([H])C2([H])C([H])(C([H])([H])C([H])([H])C4(C([H])([H])[H])C([H])([H])C([H])([H])C([H])([H])C24C([H])([H])[H])C31C([H])([H])[H]

$$$$
43:0:1
     RDKit          3D

 65 70  0  0  1  0  0  0  0  0999 V2000
    4.9658   -5.1828    4.6138 C   0  0  0  0  0  0  0  0  0  0  0  0
    4.3398   -5.6784    3.2996 C   0  0  2  0  0  0  0  0  0  0  0  0
    5.1863   -6.7908    2.6126 C   0  0  2  0  0  0  0  0  0  0  0  0
    6.1505   -6.3854    1.4965 C   0  0  0  0  0  0  0  0  0  0  0  0
    5.6089   -5.2517    0.6102 C   0  0  0  0  0  0  0  0  0  0  0  0
    5.1197   -4.0466    1.4464 C   0  0  2  0  0  0  0  0  0  0  0  0
    3.9421   -4.4843    2.3761 C   0  0  2  0  0  0  0  0  0  0  0  0
    3.2100   -3.3131    3.1075 C   0  0  0  0  0  0  0  0  0  0  0  0
    3.0054   -2.0339    2.2606 C   0  0  0  0  0  0  0  0  0  0  0  0
    4.3145   -1.6438    1.5466 C   0  0  2  0  0  0  0  0  0  0  0  0
    5.3749   -1.2586    2.6273 C   0  0  0  0  0  0  0  0  0  0  0  0
    4.2393   -0.4402    0.5951 C   0  0  0  0  0  0  0  0  0  0  0  0
    5.3929   -0.6735   -0.4013 C   0  0  0  0  0  0  0  0  0  0  0  0
    5.8538   -2.1362   -0.2197 C   0  0  0  0  0  0  0  0  0  0  0  0
    4.7272   -2.8034    0.5898 C   0  0  1  0  0  0  0  0  0  0  0  0
    3.6196   -3.1871   -0.4492 C   0  0  0  0  0  0  0  0  0  0  0  0
    3.8773   -7.5179    2.2848 C   0  0  1  0  0  0  0  0  0  0  0  0
    3.7281   -9.0249    2.3108 C   0  0  0  0  0  0  0  0  0  0  0  0
    2.2732   -9.4262    2.0074 C   0  0  0  0  0  0  0  0  0  0  0  0
    1.2194   -8.9519    3.0155 C   0  0  1  0  0  0  0  0  0  0  0  0
    1.0828   -7.5533    3.6123 C   0  0  1  0  0  0  0  0  0  0  0  0
    1.9251   -6.4972    3.1594 O   0  0  0  0  0  0  0  0  0  0  0  0
    3.2752   -6.7827    3.4693 C   0  0  2  0  0  0  0  0  0  0  0  0
    0.0478   -8.0394    2.6275 C   0  0  1  0  0  0  0  0  0  0  0  0
    0.1371   -7.4540    1.3386 O   0  0  0  0  0  0  0  0  0  0  0  0
   -1.3753   -8.3702    3.0311 C   0  0  0  0  0  0  0  0  0  0  0  0
   -1.9322   -7.2487    3.6798 O   0  0  0  0  0  0  0  0  0  0  0  0
    5.3990   -6.0123    5.1760 H   0  0  0  0  0  0  0  0  0  0  0  0
    4.2278   -4.7336    5.2797 H   0  0  0  0  0  0  0  0  0  0  0  0
    5.7682   -4.4653    4.4415 H   0  0  0  0  0  0  0  0  0  0  0  0
    5.7084   -7.3860    3.3672 H   0  0  0  0  0  0  0  0  0  0  0  0
    7.0892   -6.0521    1.9402 H   0  0  0  0  0  0  0  0  0  0  0  0
    6.4017   -7.2492    0.8797 H   0  0  0  0  0  0  0  0  0  0  0  0
    6.3870   -4.9336   -0.0843 H   0  0  0  0  0  0  0  0  0  0  0  0
    4.7964   -5.6463   -0.0003 H   0  0  0  0  0  0  0  0  0  0  0  0
    5.9685   -3.7734    2.0717 H   0  0  0  0  0  0  0  0  0  0  0  0
    3.1806   -4.8687    1.6995 H   0  0  0  0  0  0  0  0  0  0  0  0
    2.2400   -3.6679    3.4569 H   0  0  0  0  0  0  0  0  0  0  0  0
    3.7425   -3.0159    4.0061 H   0  0  0  0  0  0  0  0  0  0  0  0
    2.1979   -2.1812    1.5443 H   0  0  0  0  0  0  0  0  0  0  0  0
    2.6674   -1.2191    2.9008 H   0  0  0  0  0  0  0  0  0  0  0  0
    6.3277   -0.9522    2.1975 H   0  0  0  0  0  0  0  0  0  0  0  0
    5.5961   -2.0564    3.3320 H   0  0  0  0  0  0  0  0  0  0  0  0
    5.0201   -0.4169    3.2227 H   0  0  0  0  0  0  0  0  0  0  0  0
    3.2789   -0.4142    0.0801 H   0  0  0  0  0  0  0  0  0  0  0  0
    4.3394    0.5186    1.1052 H   0  0  0  0  0  0  0  0  0  0  0  0
    5.0545   -0.4838   -1.4209 H   0  0  0  0  0  0  0  0  0  0  0  0
    6.2170    0.0040   -0.1877 H   0  0  0  0  0  0  0  0  0  0  0  0
    6.0333   -2.6272   -1.1770 H   0  0  0  0  0  0  0  0  0  0  0  0
    6.7945   -2.1699    0.3306 H   0  0  0  0  0  0  0  0  0  0  0  0
    3.2463   -2.3318   -1.0104 H   0  0  0  0  0  0  0  0  0  0  0  0
    2.7452   -3.6581   -0.0062 H   0  0  0  0  0  0  0  0  0  0  0  0
    3.9978   -3.8836   -1.1973 H   0  0  0  0  0  0  0  0  0  0  0  0
    3.4692   -7.1157    1.3525 H   0  0  0  0  0  0  0  0  0  0  0  0
    4.3900   -9.4808    1.5754 H   0  0  0  0  0  0  0  0  0  0  0  0
    4.0318   -9.4353    3.2760 H   0  0  0  0  0  0  0  0  0  0  0  0
    2.0135   -9.1169    0.9962 H   0  0  0  0  0  0  0  0  0  0  0  0
    2.2285  -10.5154    2.0022 H   0  0  0  0  0  0  0  0  0  0  0  0
    0.9939   -9.7378    3.7402 H   0  0  0  0  0  0  0  0  0  0  0  0
    0.8134   -7.4645    4.6610 H   0  0  0  0  0  0  0  0  0  0  0  0
    3.4037   -7.3148    4.4180 H   0  0  0  0  0  0  0  0  0  0  0  0
    0.0582   -8.1601    0.7115 H   0  0  0  0  0  0  0  0  0  0  0  0
   -1.9753   -8.6587    2.1651 H   0  0  0  0  0  0  0  0  0  0  0  0
   -1.3816   -9.2108    3.7272 H   0  0  0  0  0  0  0  0  0  0  0  0
   -2.7226   -7.5330    4.1152 H   0  0  0  0  0  0  0  0  0  0  0  0
  2  1  1  1
  1 28  1  0
  1 29  1  0
  1 30  1  0
  2  7  1  0
  2 23  1  0
  2  3  1  0
  3  4  1  0
  3 17  1  0
  3 31  1  1
  4  5  1  0
  4 32  1  0
  4 33  1  0
  5  6  1  0
  5 34  1  0
  5 35  1  0
  6 15  1  0
  6  7  1  0
  6 36  1  1
  7  8  1  0
  7 37  1  6
  8  9  1  0
  8 38  1  0
  8 39  1  0
  9 10  1  0
  9 40  1  0
  9 41  1  0
 10 15  1  0
 10 11  1  1
 10 12  1  0
 11 42  1  0
 11 43  1  0
 11 44  1  0
 12 13  1  0
 12 45  1  0
 12 46  1  0
 13 14  1  0
 13 47  1  0
 13 48  1  0
 14 15  1  0
 14 49  1  0
 14 50  1  0
 15 16  1  6
 16 51  1  0
 16 52  1  0
 16 53  1  0
 17 23  1  0
 17 18  1  0
 17 54  1  6
 18 19  1  0
 18 55  1  0
 18 56  1  0
 19 20  1  0
 19 57  1  0
 19 58  1  0
 20 24  1  0
 20 21  1  0
 20 59  1  1
 21 22  1  0
 21 24  1  0
 21 60  1  1
 22 23  1  0
 23 61  1  1
 24 25  1  6
 24 26  1  0
 25 62  1  0
 26 27  1  0
 26 63  1  0
 26 64  1  0
 27 65  1  0
M  END
>  <i_m_ct_stereo_status>  (125) 
1

>  <s_m_source_file>  (125) 
/var/tmp/pbs.5076255.sched01/tmpdonsa7tf/408ubvndgu.sdf

>  <i_m_source_file_index>  (125) 
18

>  <i_lp_mmshare_version>  (125) 
48012

>  <i_f3d_flags>  (125) 
0

>  <s_epik_input>  (125) 
W09IXVtDSDJdW0NAXTEoW09IXSlbQ0BASF0oW0NIMl1bQ0gyXTIpW0NASF0xT1tDQEhdM1tDQEhdMltDQEhdKFtDQF0zNFtDSDNdKVtDSDJdW0NIMl1bQ0BASF01W0NAQEhdNFtDSDJdW0NIMl1bQ0BAXTYoW0NIM10pW0NAQF01KFtDSDNdKVtDSDJdW0NIMl1bQ0gyXTY=

>  <s_epik_cmdline>  (125) 
J2VwaWtfcHl0aG9uJywgJy1waHQnLCAnMi4wJywgJy1waCcsICc3LjAnLCAnLXRuJywgJzgnLCAnLW1hJywgJzIwMCcsICctaW1hZScsICc8aW5maWxlLm1hZT4nLCAnLW9tYWUnLCAnPG91dGZpbGUubWFlPic=

>  <r_lp_tautomer_probability>  (125) 
1

>  <r_epik_Ionization_Penalty>  (125) 
1.65039e-07

>  <r_epik_Ionization_Penalty_Charging>  (125) 
0

>  <r_epik_Ionization_Penalty_Neutral>  (125) 
1.65039e-07

>  <r_epik_State_Penalty>  (125) 
-0

>  <r_epik_Charging_Adjusted_Penalty>  (125) 
0

>  <i_epik_Tot_Q>  (125) 
0

>  <i_epik_Tot_abs_Q>  (125) 
0

>  <s_lp_Force_Field>  (125) 
OPLS3e

>  <r_lp_Energy>  (125) 
61.9586

>  <b_lp_Chiralities_Consistent>  (125) 
1

>  <s_lp_Variant>  (125) 
43:0-1

>  <s_i_glide_gridfile>  (125) 
pfpi4k_grid

>  <i_i_glide_lignum>  (125) 
18

>  <i_i_glide_rotatable_bonds>  (125) 
3

>  <r_i_docking_score>  (125) 
-3.18463

>  <r_i_glide_ligand_efficiency>  (125) 
-0.117949

>  <r_i_glide_ligand_efficiency_sa>  (125) 
-0.353848

>  <r_i_glide_ligand_efficiency_ln>  (125) 
-0.74133

>  <r_i_glide_gscore>  (125) 
-3.18463

>  <r_i_glide_lipo>  (125) 
-0.561494

>  <r_i_glide_hbond>  (125) 
0

>  <r_i_glide_metal>  (125) 
-0

>  <r_i_glide_rewards>  (125) 
-0.855295

>  <r_i_glide_evdw>  (125) 
-22.0719

>  <r_i_glide_ecoul>  (125) 
-5.34723

>  <r_i_glide_erotb>  (125) 
0.137835

>  <r_i_glide_esite>  (125) 
0

>  <r_i_glide_emodel>  (125) 
-33.3764

>  <r_i_glide_energy>  (125) 
-27.4191

>  <r_i_glide_einternal>  (125) 
2.35886

>  <r_i_glide_intrahb_reward>  (125) 
-0

>  <i_i_glide_confnum>  (125) 
3

>  <i_i_glide_posenum>  (125) 
2

>  <r_i_glide_eff_state_penalty>  (125) 
0

>  <ligand_id>  (125) 
43

>  <original_smiles>  (125) 
CC12C(CCC3C1CCC1(C)CCCC31C)C1CCC3C(OC12)C3(O)CO

>  <smiles>  (125) 
[H]OC([H])([H])C1(O[H])C2([H])OC3([H])C([H])(C([H])([H])C([H])([H])C21[H])C1([H])C([H])([H])C([H])([H])C2([H])C([H])(C([H])([H])C([H])([H])C4(C([H])([H])[H])C([H])([H])C([H])([H])C([H])([H])C24C([H])([H])[H])C31C([H])([H])[H]

$$$$
43:0:2
     RDKit          3D

 65 70  0  0  1  0  0  0  0  0999 V2000
    6.0849   -6.4281    2.5367 C   0  0  0  0  0  0  0  0  0  0  0  0
    4.7113   -5.7887    2.2660 C   0  0  2  0  0  0  0  0  0  0  0  0
    4.4146   -4.5817    3.2042 C   0  0  2  0  0  0  0  0  0  0  0  0
    3.5686   -4.8229    4.4576 C   0  0  0  0  0  0  0  0  0  0  0  0
    2.4515   -5.8545    4.2425 C   0  0  0  0  0  0  0  0  0  0  0  0
    2.9776   -7.1622    3.6099 C   0  0  2  0  0  0  0  0  0  0  0  0
    3.5900   -6.8704    2.2035 C   0  0  2  0  0  0  0  0  0  0  0  0
    3.9570   -8.1400    1.3724 C   0  0  0  0  0  0  0  0  0  0  0  0
    2.9422   -9.3044    1.4765 C   0  0  0  0  0  0  0  0  0  0  0  0
    2.5776   -9.5760    2.9468 C   0  0  2  0  0  0  0  0  0  0  0  0
    3.8612  -10.0645    3.6905 C   0  0  0  0  0  0  0  0  0  0  0  0
    1.5163  -10.6592    3.2082 C   0  0  0  0  0  0  0  0  0  0  0  0
    0.9141  -10.2776    4.5763 C   0  0  0  0  0  0  0  0  0  0  0  0
    1.3807   -8.8364    4.8800 C   0  0  0  0  0  0  0  0  0  0  0  0
    1.9124   -8.3003    3.5397 C   0  0  1  0  0  0  0  0  0  0  0  0
    0.6599   -7.8192    2.7387 C   0  0  0  0  0  0  0  0  0  0  0  0
    3.8288   -3.8462    1.9981 C   0  0  1  0  0  0  0  0  0  0  0  0
    3.9773   -2.3585    1.7592 C   0  0  0  0  0  0  0  0  0  0  0  0
    3.3238   -1.9661    0.4266 C   0  0  0  0  0  0  0  0  0  0  0  0
    3.9596   -2.5848   -0.8252 C   0  0  1  0  0  0  0  0  0  0  0  0
    4.3184   -4.0601   -1.0419 C   0  0  1  0  0  0  0  0  0  0  0  0
    3.9775   -5.0180   -0.0424 O   0  0  0  0  0  0  0  0  0  0  0  0
    4.7009   -4.7380    1.1381 C   0  0  2  0  0  0  0  0  0  0  0  0
    3.1715   -3.4377   -1.8140 C   0  0  1  0  0  0  0  0  0  0  0  0
    1.9030   -3.8472   -1.3487 O   0  0  0  0  0  0  0  0  0  0  0  0
    3.1881   -3.2199   -3.3275 C   0  0  0  0  0  0  0  0  0  0  0  0
    4.4991   -3.1343   -3.8383 O   0  0  0  0  0  0  0  0  0  0  0  0
    6.8345   -5.6647    2.7513 H   0  0  0  0  0  0  0  0  0  0  0  0
    6.4648   -6.9716    1.6715 H   0  0  0  0  0  0  0  0  0  0  0  0
    6.0655   -7.1020    3.3936 H   0  0  0  0  0  0  0  0  0  0  0  0
    5.3440   -4.0739    3.4625 H   0  0  0  0  0  0  0  0  0  0  0  0
    4.2166   -5.1818    5.2566 H   0  0  0  0  0  0  0  0  0  0  0  0
    3.1423   -3.8847    4.8135 H   0  0  0  0  0  0  0  0  0  0  0  0
    1.9676   -6.0654    5.1989 H   0  0  0  0  0  0  0  0  0  0  0  0
    1.6918   -5.4071    3.6033 H   0  0  0  0  0  0  0  0  0  0  0  0
    3.7775   -7.4915    4.2738 H   0  0  0  0  0  0  0  0  0  0  0  0
    2.7815   -6.4269    1.6325 H   0  0  0  0  0  0  0  0  0  0  0  0
    4.0725   -7.8541    0.3260 H   0  0  0  0  0  0  0  0  0  0  0  0
    4.9285   -8.5362    1.6554 H   0  0  0  0  0  0  0  0  0  0  0  0
    2.0553   -9.0909    0.8836 H   0  0  0  0  0  0  0  0  0  0  0  0
    3.3681  -10.2015    1.0346 H   0  0  0  0  0  0  0  0  0  0  0  0
    3.6826  -10.2963    4.7395 H   0  0  0  0  0  0  0  0  0  0  0  0
    4.6868   -9.3592    3.6672 H   0  0  0  0  0  0  0  0  0  0  0  0
    4.2358  -10.9815    3.2318 H   0  0  0  0  0  0  0  0  0  0  0  0
    0.7448  -10.6531    2.4383 H   0  0  0  0  0  0  0  0  0  0  0  0
    1.9315  -11.6685    3.2191 H   0  0  0  0  0  0  0  0  0  0  0  0
   -0.1733  -10.3374    4.5338 H   0  0  0  0  0  0  0  0  0  0  0  0
    1.2466  -10.9582    5.3630 H   0  0  0  0  0  0  0  0  0  0  0  0
    0.5666   -8.2347    5.2852 H   0  0  0  0  0  0  0  0  0  0  0  0
    2.1686   -8.8512    5.6337 H   0  0  0  0  0  0  0  0  0  0  0  0
   -0.0732   -8.6082    2.5828 H   0  0  0  0  0  0  0  0  0  0  0  0
    0.8918   -7.4277    1.7486 H   0  0  0  0  0  0  0  0  0  0  0  0
    0.1289   -7.0291    3.2685 H   0  0  0  0  0  0  0  0  0  0  0  0
    2.7861   -4.1468    1.8783 H   0  0  0  0  0  0  0  0  0  0  0  0
    3.5074   -1.8078    2.5706 H   0  0  0  0  0  0  0  0  0  0  0  0
    5.0274   -2.0653    1.7643 H   0  0  0  0  0  0  0  0  0  0  0  0
    2.2610   -2.1778    0.4749 H   0  0  0  0  0  0  0  0  0  0  0  0
    3.3932   -0.8841    0.3074 H   0  0  0  0  0  0  0  0  0  0  0  0
    4.6633   -1.8987   -1.2925 H   0  0  0  0  0  0  0  0  0  0  0  0
    5.2531   -4.2994   -1.5462 H   0  0  0  0  0  0  0  0  0  0  0  0
    5.7029   -4.3274    0.9784 H   0  0  0  0  0  0  0  0  0  0  0  0
    1.6307   -4.5796   -1.8966 H   0  0  0  0  0  0  0  0  0  0  0  0
    2.6905   -4.0525   -3.8302 H   0  0  0  0  0  0  0  0  0  0  0  0
    2.6349   -2.3130   -3.5690 H   0  0  0  0  0  0  0  0  0  0  0  0
    4.9759   -3.8991   -3.5436 H   0  0  0  0  0  0  0  0  0  0  0  0
  2  1  1  1
  1 28  1  0
  1 29  1  0
  1 30  1  0
  2  7  1  0
  2 23  1  0
  2  3  1  0
  3  4  1  0
  3 17  1  0
  3 31  1  1
  4  5  1  0
  4 32  1  0
  4 33  1  0
  5  6  1  0
  5 34  1  0
  5 35  1  0
  6 15  1  0
  6  7  1  0
  6 36  1  1
  7  8  1  0
  7 37  1  6
  8  9  1  0
  8 38  1  0
  8 39  1  0
  9 10  1  0
  9 40  1  0
  9 41  1  0
 10 15  1  0
 10 11  1  1
 10 12  1  0
 11 42  1  0
 11 43  1  0
 11 44  1  0
 12 13  1  0
 12 45  1  0
 12 46  1  0
 13 14  1  0
 13 47  1  0
 13 48  1  0
 14 15  1  0
 14 49  1  0
 14 50  1  0
 15 16  1  6
 16 51  1  0
 16 52  1  0
 16 53  1  0
 17 23  1  0
 17 18  1  0
 17 54  1  6
 18 19  1  0
 18 55  1  0
 18 56  1  0
 19 20  1  0
 19 57  1  0
 19 58  1  0
 20 24  1  0
 20 21  1  0
 20 59  1  6
 21 22  1  0
 21 24  1  0
 21 60  1  6
 22 23  1  0
 23 61  1  6
 24 25  1  1
 24 26  1  0
 25 62  1  0
 26 27  1  0
 26 63  1  0
 26 64  1  0
 27 65  1  0
M  END
>  <i_m_ct_stereo_status>  (126) 
1

>  <s_m_source_file>  (126) 
/var/tmp/pbs.5076255.sched01/tmpdonsa7tf/408ubvndgu.sdf

>  <i_m_source_file_index>  (126) 
18

>  <i_lp_mmshare_version>  (126) 
48012

>  <i_f3d_flags>  (126) 
0

>  <s_epik_input>  (126) 
W09IXVtDSDJdW0NAXTEoW09IXSlbQ0BASF0oW0NIMl1bQ0gyXTIpW0NASF0xT1tDQEhdM1tDQEhdMltDQEhdKFtDQF0zNFtDSDNdKVtDSDJdW0NIMl1bQ0BASF01W0NAQEhdNFtDSDJdW0NIMl1bQ0BAXTYoW0NIM10pW0NAQF01KFtDSDNdKVtDSDJdW0NIMl1bQ0gyXTY=

>  <s_epik_cmdline>  (126) 
J2VwaWtfcHl0aG9uJywgJy1waHQnLCAnMi4wJywgJy1waCcsICc3LjAnLCAnLXRuJywgJzgnLCAnLW1hJywgJzIwMCcsICctaW1hZScsICc8aW5maWxlLm1hZT4nLCAnLW9tYWUnLCAnPG91dGZpbGUubWFlPic=

>  <r_lp_tautomer_probability>  (126) 
1

>  <r_epik_Ionization_Penalty>  (126) 
1.65039e-07

>  <r_epik_Ionization_Penalty_Charging>  (126) 
0

>  <r_epik_Ionization_Penalty_Neutral>  (126) 
1.65039e-07

>  <r_epik_State_Penalty>  (126) 
-0

>  <r_epik_Charging_Adjusted_Penalty>  (126) 
0

>  <i_epik_Tot_Q>  (126) 
0

>  <i_epik_Tot_abs_Q>  (126) 
0

>  <s_lp_Force_Field>  (126) 
OPLS3e

>  <r_lp_Energy>  (126) 
61.9586

>  <b_lp_Chiralities_Consistent>  (126) 
1

>  <s_lp_Variant>  (126) 
43:0-1

>  <s_i_glide_gridfile>  (126) 
pfpi4k_grid

>  <i_i_glide_lignum>  (126) 
18

>  <i_i_glide_rotatable_bonds>  (126) 
3

>  <r_i_docking_score>  (126) 
-3.01116

>  <r_i_glide_ligand_efficiency>  (126) 
-0.111525

>  <r_i_glide_ligand_efficiency_sa>  (126) 
-0.334574

>  <r_i_glide_ligand_efficiency_ln>  (126) 
-0.700949

>  <r_i_glide_gscore>  (126) 
-3.01116

>  <r_i_glide_lipo>  (126) 
-0.39127

>  <r_i_glide_hbond>  (126) 
-0.00944628

>  <r_i_glide_metal>  (126) 
-0

>  <r_i_glide_rewards>  (126) 
-0.855295

>  <r_i_glide_evdw>  (126) 
-21.4777

>  <r_i_glide_ecoul>  (126) 
-5.4607

>  <r_i_glide_erotb>  (126) 
0.137835

>  <r_i_glide_esite>  (126) 
0

>  <r_i_glide_emodel>  (126) 
-33.4461

>  <r_i_glide_energy>  (126) 
-26.9384

>  <r_i_glide_einternal>  (126) 
0.414364

>  <r_i_glide_intrahb_reward>  (126) 
-0

>  <i_i_glide_confnum>  (126) 
6

>  <i_i_glide_posenum>  (126) 
22

>  <r_i_glide_eff_state_penalty>  (126) 
0

>  <ligand_id>  (126) 
43

>  <original_smiles>  (126) 
CC12C(CCC3C1CCC1(C)CCCC31C)C1CCC3C(OC12)C3(O)CO

>  <smiles>  (126) 
[H]OC([H])([H])C1(O[H])C2([H])OC3([H])C([H])(C([H])([H])C([H])([H])C21[H])C1([H])C([H])([H])C([H])([H])C2([H])C([H])(C([H])([H])C([H])([H])C4(C([H])([H])[H])C([H])([H])C([H])([H])C([H])([H])C24C([H])([H])[H])C31C([H])([H])[H]

$$$$
44:0:0
     RDKit          3D

 54 58  0  0  1  0  0  0  0  0999 V2000
    0.3293   -6.1966    3.5604 C   0  0  0  0  0  0  0  0  0  0  0  0
    1.4712   -5.9513    2.5906 C   0  0  0  0  0  0  0  0  0  0  0  0
    2.0678   -4.7619    2.4130 C   0  0  0  0  0  0  0  0  0  0  0  0
    3.2359   -4.4876    1.4652 C   0  0  2  0  0  0  0  0  0  0  0  0
    4.6068   -4.2109    2.1177 C   0  0  2  0  0  0  0  0  0  0  0  0
    4.5186   -3.4263    3.4533 C   0  0  0  0  0  0  0  0  0  0  0  0
    3.6717   -2.1484    3.3276 C   0  0  0  0  0  0  0  0  0  0  0  0
    2.6882   -1.8206    4.1979 C   0  0  0  0  0  0  0  0  0  0  0  0
    2.3599   -2.5907    5.4767 C   0  0  0  0  0  0  0  0  0  0  0  0
    1.7600   -0.6954    3.8905 C   0  0  0  0  0  0  0  0  0  0  0  0
    0.9069   -0.3267    4.6925 O   0  0  0  0  0  0  0  0  0  0  0  0
    1.8610   -0.0480    2.5769 C   0  0  0  0  0  0  0  0  0  0  0  0
    2.8705   -0.3515    1.7461 C   0  0  0  0  0  0  0  0  0  0  0  0
    3.9928   -1.3359    2.0632 C   0  0  1  0  0  0  0  0  0  0  0  0
    5.2438   -0.4784    2.3496 C   0  0  0  0  0  0  0  0  0  0  0  0
    4.2176   -2.2756    0.8349 C   0  0  1  0  0  0  0  0  0  0  0  0
    5.3042   -3.3312    1.0572 C   0  0  2  0  0  0  0  0  0  0  0  0
    5.6625   -4.0767   -0.2654 C   0  0  0  0  0  0  0  0  0  0  0  0
    4.5716   -4.1540   -1.2923 N   0  0  2  0  0  0  0  0  0  0  0  0
    4.6246   -3.1743   -2.3809 C   0  0  0  0  0  0  0  0  0  0  0  0
    3.1651   -2.8280   -2.1321 C   0  0  1  0  0  0  0  0  0  0  0  0
    2.1459   -3.0676   -3.2382 C   0  0  0  0  0  0  0  0  0  0  0  0
    3.1944   -3.7638   -0.9280 C   0  0  2  0  0  0  0  0  0  0  0  0
    3.0602   -3.2640    0.5135 C   0  0  1  0  0  0  0  0  0  0  0  0
    0.6111   -6.9465    4.3023 H   0  0  0  0  0  0  0  0  0  0  0  0
   -0.5516   -6.5720    3.0394 H   0  0  0  0  0  0  0  0  0  0  0  0
    0.0559   -5.2846    4.0973 H   0  0  0  0  0  0  0  0  0  0  0  0
    1.8063   -6.8130    2.0352 H   0  0  0  0  0  0  0  0  0  0  0  0
    1.6932   -3.9264    2.9816 H   0  0  0  0  0  0  0  0  0  0  0  0
    3.3478   -5.4014    0.8759 H   0  0  0  0  0  0  0  0  0  0  0  0
    5.1562   -5.1393    2.2836 H   0  0  0  0  0  0  0  0  0  0  0  0
    4.1272   -4.0981    4.2113 H   0  0  0  0  0  0  0  0  0  0  0  0
    5.5165   -3.1407    3.7791 H   0  0  0  0  0  0  0  0  0  0  0  0
    2.0452   -1.9194    6.2756 H   0  0  0  0  0  0  0  0  0  0  0  0
    3.2209   -3.1312    5.8704 H   0  0  0  0  0  0  0  0  0  0  0  0
    1.5513   -3.3025    5.3036 H   0  0  0  0  0  0  0  0  0  0  0  0
    1.1063    0.6834    2.3023 H   0  0  0  0  0  0  0  0  0  0  0  0
    2.9254    0.1389    0.7844 H   0  0  0  0  0  0  0  0  0  0  0  0
    5.0410    0.2184    3.1650 H   0  0  0  0  0  0  0  0  0  0  0  0
    5.5326    0.1130    1.4812 H   0  0  0  0  0  0  0  0  0  0  0  0
    6.1093   -1.0643    2.6600 H   0  0  0  0  0  0  0  0  0  0  0  0
    4.4738   -1.6434   -0.0131 H   0  0  0  0  0  0  0  0  0  0  0  0
    6.2267   -2.9138    1.4578 H   0  0  0  0  0  0  0  0  0  0  0  0
    6.5395   -3.6262   -0.7246 H   0  0  0  0  0  0  0  0  0  0  0  0
    5.9582   -5.0933   -0.0317 H   0  0  0  0  0  0  0  0  0  0  0  0
    5.3004   -2.3362   -2.2112 H   0  0  0  0  0  0  0  0  0  0  0  0
    4.7926   -3.6379   -3.3534 H   0  0  0  0  0  0  0  0  0  0  0  0
    3.0985   -1.8075   -1.7701 H   0  0  0  0  0  0  0  0  0  0  0  0
    2.2128   -4.0802   -3.6422 H   0  0  0  0  0  0  0  0  0  0  0  0
    2.2796   -2.3755   -4.0727 H   0  0  0  0  0  0  0  0  0  0  0  0
    1.1276   -2.9375   -2.8653 H   0  0  0  0  0  0  0  0  0  0  0  0
    2.5244   -4.6004   -1.1108 H   0  0  0  0  0  0  0  0  0  0  0  0
    2.0915   -2.7905    0.6466 H   0  0  0  0  0  0  0  0  0  0  0  0
    4.5239   -5.0690   -1.7275 H   0  0  0  0  0  0  0  0  0  0  0  0
  1  2  1  0
  1 25  1  0
  1 26  1  0
  1 27  1  0
  2  3  2  3
  2 28  1  0
  3  4  1  0
  3 29  1  0
  4 24  1  0
  4  5  1  0
  4 30  1  6
  5 17  1  0
  5  6  1  0
  5 31  1  1
  6  7  1  0
  6 32  1  0
  6 33  1  0
  7 14  1  0
  7  8  2  0
  8  9  1  0
  8 10  1  0
  9 34  1  0
  9 35  1  0
  9 36  1  0
 10 11  2  0
 10 12  1  0
 12 13  2  0
 12 37  1  0
 13 14  1  0
 13 38  1  0
 14 15  1  1
 14 16  1  0
 15 39  1  0
 15 40  1  0
 15 41  1  0
 16 24  1  0
 16 17  1  0
 16 42  1  6
 17 18  1  0
 17 43  1  1
 18 19  1  0
 18 44  1  0
 18 45  1  0
 19 23  1  0
 19 20  1  0
 19 54  1  6
 20 21  1  0
 20 46  1  0
 20 47  1  0
 21 22  1  0
 21 23  1  0
 21 48  1  1
 22 49  1  0
 22 50  1  0
 22 51  1  0
 23 24  1  0
 23 52  1  6
 24 53  1  6
M  CHG  1  19   1
M  END
>  <i_m_ct_stereo_status>  (127) 
1

>  <s_m_source_file>  (127) 
/var/tmp/pbs.5076255.sched01/tmpdonsa7tf/408ubvndgu.sdf

>  <i_m_source_file_index>  (127) 
19

>  <i_lp_mmshare_version>  (127) 
48012

>  <i_f3d_flags>  (127) 
0

>  <s_epik_input>  (127) 
W0NIM11bQ0BASF0xW0NIMl1OKFtDSDJdMilbQ0BIXTFbQ0BASF0oW0NAQEhdM1xbQ0hdPVtDSF1cW0NIM10pW0NAQEhdNFtDQEhdMltDQEhdM1tDSDJdQyhbQ0BAXTQ1W0NIM10pPUMoW0NIM10pQyg9TylbQ0hdPVtDSF01

>  <s_epik_cmdline>  (127) 
J2VwaWtfcHl0aG9uJywgJy1waHQnLCAnMi4wJywgJy1waCcsICc3LjAnLCAnLXRuJywgJzgnLCAnLW1hJywgJzIwMCcsICctaW1hZScsICc8aW5maWxlLm1hZT4nLCAnLW9tYWUnLCAnPG91dGZpbGUubWFlPic=

>  <r_lp_tautomer_probability>  (127) 
1

>  <r_epik_Ionization_Penalty>  (127) 
0.000218124

>  <r_epik_Ionization_Penalty_Charging>  (127) 
0.000218124

>  <r_epik_Ionization_Penalty_Neutral>  (127) 
0

>  <r_epik_State_Penalty>  (127) 
-0

>  <r_epik_Charging_Adjusted_Penalty>  (127) 
0.000218124

>  <i_epik_Tot_Q>  (127) 
1

>  <i_epik_Tot_abs_Q>  (127) 
1

>  <s_lp_Force_Field>  (127) 
OPLS3e

>  <r_lp_Energy>  (127) 
58.2803

>  <b_lp_Chiralities_Consistent>  (127) 
1

>  <s_lp_Variant>  (127) 
44:0-1

>  <s_i_glide_gridfile>  (127) 
pfpi4k_grid

>  <i_i_glide_lignum>  (127) 
19

>  <i_i_glide_rotatable_bonds>  (127) 
1

>  <r_i_docking_score>  (127) 
-3.19886

>  <r_i_glide_ligand_efficiency>  (127) 
-0.133286

>  <r_i_glide_ligand_efficiency_sa>  (127) 
-0.384463

>  <r_i_glide_ligand_efficiency_ln>  (127) 
-0.765633

>  <r_i_glide_gscore>  (127) 
-3.19886

>  <r_i_glide_lipo>  (127) 
-0.514993

>  <r_i_glide_hbond>  (127) 
0

>  <r_i_glide_metal>  (127) 
-0

>  <r_i_glide_rewards>  (127) 
-1.19673

>  <r_i_glide_evdw>  (127) 
-18.238

>  <r_i_glide_ecoul>  (127) 
-4.80575

>  <r_i_glide_erotb>  (127) 
0.177878

>  <r_i_glide_esite>  (127) 
-0.0322501

>  <r_i_glide_emodel>  (127) 
-28.1241

>  <r_i_glide_energy>  (127) 
-23.0438

>  <r_i_glide_einternal>  (127) 
0.048426

>  <r_i_glide_intrahb_reward>  (127) 
-0

>  <i_i_glide_confnum>  (127) 
5

>  <i_i_glide_posenum>  (127) 
20

>  <r_i_glide_eff_state_penalty>  (127) 
0

>  <ligand_id>  (127) 
44

>  <original_smiles>  (127) 
CC=CC1C2CC3=C(C)C(=O)C=CC3(C)C3C2CN2CC(C)C2C13

>  <smiles>  (127) 
[H]C1=C([H])C2(C([H])([H])[H])C(=C(C([H])([H])[H])C1=O)C([H])([H])C1([H])C([H])(C([H])=C([H])C([H])([H])[H])C3([H])C2([H])C1([H])C([H])([H])[N+]1([H])C([H])([H])C([H])(C([H])([H])[H])C31[H]

$$$$
44:0:1
     RDKit          3D

 54 58  0  0  1  0  0  0  0  0999 V2000
    0.2048   -6.7530    2.3431 C   0  0  0  0  0  0  0  0  0  0  0  0
    1.4060   -6.2144    1.5879 C   0  0  0  0  0  0  0  0  0  0  0  0
    1.9145   -4.9859    1.7704 C   0  0  0  0  0  0  0  0  0  0  0  0
    3.1417   -4.4125    1.0598 C   0  0  2  0  0  0  0  0  0  0  0  0
    4.3533   -4.0682    1.9523 C   0  0  2  0  0  0  0  0  0  0  0  0
    3.9696   -3.5226    3.3557 C   0  0  0  0  0  0  0  0  0  0  0  0
    2.9650   -2.3578    3.2827 C   0  0  0  0  0  0  0  0  0  0  0  0
    1.8397   -2.2967    4.0284 C   0  0  0  0  0  0  0  0  0  0  0  0
    1.4549   -3.2991    5.1187 C   0  0  0  0  0  0  0  0  0  0  0  0
    0.8047   -1.2644    3.7364 C   0  0  0  0  0  0  0  0  0  0  0  0
   -0.1947   -1.1441    4.4364 O   0  0  0  0  0  0  0  0  0  0  0  0
    0.9812   -0.4112    2.5534 C   0  0  0  0  0  0  0  0  0  0  0  0
    2.1230   -0.4501    1.8553 C   0  0  0  0  0  0  0  0  0  0  0  0
    3.3280   -1.3242    2.2034 C   0  0  1  0  0  0  0  0  0  0  0  0
    4.3827   -0.3695    2.7990 C   0  0  0  0  0  0  0  0  0  0  0  0
    3.8533   -2.0202    0.9074 C   0  0  1  0  0  0  0  0  0  0  0  0
    5.0441   -2.9484    1.1470 C   0  0  2  0  0  0  0  0  0  0  0  0
    5.6833   -3.4224   -0.1911 C   0  0  0  0  0  0  0  0  0  0  0  0
    4.7654   -3.4760   -1.3777 N   0  0  2  0  0  0  0  0  0  0  0  0
    4.8265   -2.3381   -2.3005 C   0  0  0  0  0  0  0  0  0  0  0  0
    3.3139   -2.2222   -2.2393 C   0  0  1  0  0  0  0  0  0  0  0  0
    2.4898   -2.4175   -3.5142 C   0  0  0  0  0  0  0  0  0  0  0  0
    3.3106   -3.3206   -1.1867 C   0  0  2  0  0  0  0  0  0  0  0  0
    2.9125   -3.0824    0.2787 C   0  0  1  0  0  0  0  0  0  0  0  0
    0.4778   -7.6528    2.8956 H   0  0  0  0  0  0  0  0  0  0  0  0
   -0.5988   -7.0229    1.6570 H   0  0  0  0  0  0  0  0  0  0  0  0
   -0.1675   -6.0321    3.0731 H   0  0  0  0  0  0  0  0  0  0  0  0
    1.8608   -6.8876    0.8790 H   0  0  0  0  0  0  0  0  0  0  0  0
    1.4127   -4.3491    2.4790 H   0  0  0  0  0  0  0  0  0  0  0  0
    3.4642   -5.1968    0.3688 H   0  0  0  0  0  0  0  0  0  0  0  0
    5.0072   -4.9345    2.0733 H   0  0  0  0  0  0  0  0  0  0  0  0
    3.5842   -4.3476    3.9438 H   0  0  0  0  0  0  0  0  0  0  0  0
    4.8601   -3.1669    3.8675 H   0  0  0  0  0  0  0  0  0  0  0  0
    0.9376   -2.8087    5.9419 H   0  0  0  0  0  0  0  0  0  0  0  0
    2.3264   -3.7823    5.5618 H   0  0  0  0  0  0  0  0  0  0  0  0
    0.7912   -4.0717    4.7245 H   0  0  0  0  0  0  0  0  0  0  0  0
    0.1663    0.2524    2.2656 H   0  0  0  0  0  0  0  0  0  0  0  0
    2.2361    0.1824    0.9847 H   0  0  0  0  0  0  0  0  0  0  0  0
    3.9722    0.1549    3.6618 H   0  0  0  0  0  0  0  0  0  0  0  0
    4.6802    0.3922    2.0806 H   0  0  0  0  0  0  0  0  0  0  0  0
    5.2802   -0.8793    3.1517 H   0  0  0  0  0  0  0  0  0  0  0  0
    4.1260   -1.2312    0.2072 H   0  0  0  0  0  0  0  0  0  0  0  0
    5.8351   -2.4887    1.7379 H   0  0  0  0  0  0  0  0  0  0  0  0
    6.5331   -2.7998   -0.4436 H   0  0  0  0  0  0  0  0  0  0  0  0
    6.0929   -4.4133   -0.0622 H   0  0  0  0  0  0  0  0  0  0  0  0
    5.3333   -1.4582   -1.9085 H   0  0  0  0  0  0  0  0  0  0  0  0
    5.1938   -2.6091   -3.2855 H   0  0  0  0  0  0  0  0  0  0  0  0
    3.0595   -1.2922   -1.7571 H   0  0  0  0  0  0  0  0  0  0  0  0
    2.7585   -3.3409   -4.0346 H   0  0  0  0  0  0  0  0  0  0  0  0
    2.6354   -1.5879   -4.2124 H   0  0  0  0  0  0  0  0  0  0  0  0
    1.4168   -2.4809   -3.2925 H   0  0  0  0  0  0  0  0  0  0  0  0
    2.8102   -4.1943   -1.5969 H   0  0  0  0  0  0  0  0  0  0  0  0
    1.8771   -2.7701    0.3229 H   0  0  0  0  0  0  0  0  0  0  0  0
    4.9250   -4.3110   -1.9267 H   0  0  0  0  0  0  0  0  0  0  0  0
  1  2  1  0
  1 25  1  0
  1 26  1  0
  1 27  1  0
  2  3  2  3
  2 28  1  0
  3  4  1  0
  3 29  1  0
  4 24  1  0
  4  5  1  0
  4 30  1  6
  5 17  1  0
  5  6  1  0
  5 31  1  1
  6  7  1  0
  6 32  1  0
  6 33  1  0
  7 14  1  0
  7  8  2  0
  8  9  1  0
  8 10  1  0
  9 34  1  0
  9 35  1  0
  9 36  1  0
 10 11  2  0
 10 12  1  0
 12 13  2  0
 12 37  1  0
 13 14  1  0
 13 38  1  0
 14 15  1  1
 14 16  1  0
 15 39  1  0
 15 40  1  0
 15 41  1  0
 16 24  1  0
 16 17  1  0
 16 42  1  6
 17 18  1  0
 17 43  1  1
 18 19  1  0
 18 44  1  0
 18 45  1  0
 19 23  1  0
 19 20  1  0
 19 54  1  6
 20 21  1  0
 20 46  1  0
 20 47  1  0
 21 22  1  0
 21 23  1  0
 21 48  1  1
 22 49  1  0
 22 50  1  0
 22 51  1  0
 23 24  1  0
 23 52  1  6
 24 53  1  6
M  CHG  1  19   1
M  END
>  <i_m_ct_stereo_status>  (128) 
1

>  <s_m_source_file>  (128) 
/var/tmp/pbs.5076255.sched01/tmpdonsa7tf/408ubvndgu.sdf

>  <i_m_source_file_index>  (128) 
19

>  <i_lp_mmshare_version>  (128) 
48012

>  <i_f3d_flags>  (128) 
0

>  <s_epik_input>  (128) 
W0NIM11bQ0BASF0xW0NIMl1OKFtDSDJdMilbQ0BIXTFbQ0BASF0oW0NAQEhdM1xbQ0hdPVtDSF1cW0NIM10pW0NAQEhdNFtDQEhdMltDQEhdM1tDSDJdQyhbQ0BAXTQ1W0NIM10pPUMoW0NIM10pQyg9TylbQ0hdPVtDSF01

>  <s_epik_cmdline>  (128) 
J2VwaWtfcHl0aG9uJywgJy1waHQnLCAnMi4wJywgJy1waCcsICc3LjAnLCAnLXRuJywgJzgnLCAnLW1hJywgJzIwMCcsICctaW1hZScsICc8aW5maWxlLm1hZT4nLCAnLW9tYWUnLCAnPG91dGZpbGUubWFlPic=

>  <r_lp_tautomer_probability>  (128) 
1

>  <r_epik_Ionization_Penalty>  (128) 
0.000218124

>  <r_epik_Ionization_Penalty_Charging>  (128) 
0.000218124

>  <r_epik_Ionization_Penalty_Neutral>  (128) 
0

>  <r_epik_State_Penalty>  (128) 
-0

>  <r_epik_Charging_Adjusted_Penalty>  (128) 
0.000218124

>  <i_epik_Tot_Q>  (128) 
1

>  <i_epik_Tot_abs_Q>  (128) 
1

>  <s_lp_Force_Field>  (128) 
OPLS3e

>  <r_lp_Energy>  (128) 
58.2803

>  <b_lp_Chiralities_Consistent>  (128) 
1

>  <s_lp_Variant>  (128) 
44:0-1

>  <s_i_glide_gridfile>  (128) 
pfpi4k_grid

>  <i_i_glide_lignum>  (128) 
19

>  <i_i_glide_rotatable_bonds>  (128) 
1

>  <r_i_docking_score>  (128) 
-3.18856

>  <r_i_glide_ligand_efficiency>  (128) 
-0.132856

>  <r_i_glide_ligand_efficiency_sa>  (128) 
-0.383224

>  <r_i_glide_ligand_efficiency_ln>  (128) 
-0.763168

>  <r_i_glide_gscore>  (128) 
-3.18856

>  <r_i_glide_lipo>  (128) 
-0.596033

>  <r_i_glide_hbond>  (128) 
0

>  <r_i_glide_metal>  (128) 
-0

>  <r_i_glide_rewards>  (128) 
-1.19673

>  <r_i_glide_evdw>  (128) 
-19.6367

>  <r_i_glide_ecoul>  (128) 
-3.89858

>  <r_i_glide_erotb>  (128) 
0.177878

>  <r_i_glide_esite>  (128) 
-0.00704824

>  <r_i_glide_emodel>  (128) 
-28.546

>  <r_i_glide_energy>  (128) 
-23.5353

>  <r_i_glide_einternal>  (128) 
0.00624771

>  <r_i_glide_intrahb_reward>  (128) 
-0

>  <i_i_glide_confnum>  (128) 
2

>  <i_i_glide_posenum>  (128) 
22

>  <r_i_glide_eff_state_penalty>  (128) 
0

>  <ligand_id>  (128) 
44

>  <original_smiles>  (128) 
CC=CC1C2CC3=C(C)C(=O)C=CC3(C)C3C2CN2CC(C)C2C13

>  <smiles>  (128) 
[H]C1=C([H])C2(C([H])([H])[H])C(=C(C([H])([H])[H])C1=O)C([H])([H])C1([H])C([H])(C([H])=C([H])C([H])([H])[H])C3([H])C2([H])C1([H])C([H])([H])[N+]1([H])C([H])([H])C([H])(C([H])([H])[H])C31[H]

$$$$
44:0:2
     RDKit          3D

 54 58  0  0  1  0  0  0  0  0999 V2000
    1.7609   -7.4081    2.1730 C   0  0  0  0  0  0  0  0  0  0  0  0
    2.7447   -6.6063    1.3397 C   0  0  0  0  0  0  0  0  0  0  0  0
    2.9429   -5.2850    1.4686 C   0  0  0  0  0  0  0  0  0  0  0  0
    3.9350   -4.4536    0.6588 C   0  0  2  0  0  0  0  0  0  0  0  0
    5.1682   -3.9188    1.4217 C   0  0  2  0  0  0  0  0  0  0  0  0
    4.8751   -3.5226    2.8926 C   0  0  0  0  0  0  0  0  0  0  0  0
    3.6665   -2.5816    3.0128 C   0  0  0  0  0  0  0  0  0  0  0  0
    2.6493   -2.7836    3.8900 C   0  0  0  0  0  0  0  0  0  0  0  0
    2.6187   -3.8827    4.9485 C   0  0  0  0  0  0  0  0  0  0  0  0
    1.4079   -1.9640    3.8007 C   0  0  0  0  0  0  0  0  0  0  0  0
    0.4974   -2.0683    4.6243 O   0  0  0  0  0  0  0  0  0  0  0  0
    1.2689   -1.0394    2.6715 C   0  0  0  0  0  0  0  0  0  0  0  0
    2.2982   -0.8161    1.8377 C   0  0  0  0  0  0  0  0  0  0  0  0
    3.6785   -1.4456    1.9786 C   0  0  1  0  0  0  0  0  0  0  0  0
    4.6006   -0.3244    2.5087 C   0  0  0  0  0  0  0  0  0  0  0  0
    4.1536   -1.9672    0.5826 C   0  0  1  0  0  0  0  0  0  0  0  0
    5.5244   -2.6499    0.6163 C   0  0  2  0  0  0  0  0  0  0  0  0
    6.0596   -2.9302   -0.8259 C   0  0  0  0  0  0  0  0  0  0  0  0
    5.0243   -3.1096   -1.8958 N   0  0  2  0  0  0  0  0  0  0  0  0
    4.7373   -1.9382   -2.7302 C   0  0  0  0  0  0  0  0  0  0  0  0
    3.2456   -2.1280   -2.4791 C   0  0  1  0  0  0  0  0  0  0  0  0
    2.3277   -2.4298   -3.6586 C   0  0  0  0  0  0  0  0  0  0  0  0
    3.6061   -3.2586   -1.5165 C   0  0  2  0  0  0  0  0  0  0  0  0
    3.3559   -3.1662   -0.0063 C   0  0  1  0  0  0  0  0  0  0  0  0
    2.2796   -8.1964    2.7223 H   0  0  0  0  0  0  0  0  0  0  0  0
    1.0115   -7.8839    1.5387 H   0  0  0  0  0  0  0  0  0  0  0  0
    1.2443   -6.7793    2.9012 H   0  0  0  0  0  0  0  0  0  0  0  0
    3.3125   -7.1650    0.6097 H   0  0  0  0  0  0  0  0  0  0  0  0
    2.3544   -4.7643    2.2041 H   0  0  0  0  0  0  0  0  0  0  0  0
    4.3117   -5.1290   -0.1129 H   0  0  0  0  0  0  0  0  0  0  0  0
    5.9871   -4.6396    1.3999 H   0  0  0  0  0  0  0  0  0  0  0  0
    4.7382   -4.4378    3.4635 H   0  0  0  0  0  0  0  0  0  0  0  0
    5.7445   -3.0205    3.3188 H   0  0  0  0  0  0  0  0  0  0  0  0
    2.1305   -3.5452    5.8628 H   0  0  0  0  0  0  0  0  0  0  0  0
    3.6141   -4.2028    5.2520 H   0  0  0  0  0  0  0  0  0  0  0  0
    2.0723   -4.7541    4.5865 H   0  0  0  0  0  0  0  0  0  0  0  0
    0.3211   -0.5385    2.5327 H   0  0  0  0  0  0  0  0  0  0  0  0
    2.1666   -0.1276    1.0137 H   0  0  0  0  0  0  0  0  0  0  0  0
    4.2133    0.0674    3.4519 H   0  0  0  0  0  0  0  0  0  0  0  0
    4.6478    0.5102    1.8124 H   0  0  0  0  0  0  0  0  0  0  0  0
    5.6174   -0.6628    2.7142 H   0  0  0  0  0  0  0  0  0  0  0  0
    4.1749   -1.1090   -0.0885 H   0  0  0  0  0  0  0  0  0  0  0  0
    6.2797   -2.0641    1.1418 H   0  0  0  0  0  0  0  0  0  0  0  0
    6.7395   -2.1343   -1.1299 H   0  0  0  0  0  0  0  0  0  0  0  0
    6.6719   -3.8318   -0.8044 H   0  0  0  0  0  0  0  0  0  0  0  0
    5.1148   -0.9937   -2.3377 H   0  0  0  0  0  0  0  0  0  0  0  0
    5.0139   -2.0917   -3.7744 H   0  0  0  0  0  0  0  0  0  0  0  0
    2.8711   -1.2773   -1.9080 H   0  0  0  0  0  0  0  0  0  0  0  0
    2.6873   -3.2631   -4.2661 H   0  0  0  0  0  0  0  0  0  0  0  0
    2.2222   -1.5624   -4.3120 H   0  0  0  0  0  0  0  0  0  0  0  0
    1.3308   -2.6944   -3.3116 H   0  0  0  0  0  0  0  0  0  0  0  0
    3.2352   -4.1983   -1.9192 H   0  0  0  0  0  0  0  0  0  0  0  0
    2.2873   -3.0646    0.1853 H   0  0  0  0  0  0  0  0  0  0  0  0
    5.2773   -3.8711   -2.5074 H   0  0  0  0  0  0  0  0  0  0  0  0
  1  2  1  0
  1 25  1  0
  1 26  1  0
  1 27  1  0
  2  3  2  3
  2 28  1  0
  3  4  1  0
  3 29  1  0
  4 24  1  0
  4  5  1  0
  4 30  1  6
  5 17  1  0
  5  6  1  0
  5 31  1  1
  6  7  1  0
  6 32  1  0
  6 33  1  0
  7 14  1  0
  7  8  2  0
  8  9  1  0
  8 10  1  0
  9 34  1  0
  9 35  1  0
  9 36  1  0
 10 11  2  0
 10 12  1  0
 12 13  2  0
 12 37  1  0
 13 14  1  0
 13 38  1  0
 14 15  1  1
 14 16  1  0
 15 39  1  0
 15 40  1  0
 15 41  1  0
 16 24  1  0
 16 17  1  0
 16 42  1  6
 17 18  1  0
 17 43  1  1
 18 19  1  0
 18 44  1  0
 18 45  1  0
 19 23  1  0
 19 20  1  0
 19 54  1  6
 20 21  1  0
 20 46  1  0
 20 47  1  0
 21 22  1  0
 21 23  1  0
 21 48  1  1
 22 49  1  0
 22 50  1  0
 22 51  1  0
 23 24  1  0
 23 52  1  6
 24 53  1  6
M  CHG  1  19   1
M  END
>  <i_m_ct_stereo_status>  (129) 
1

>  <s_m_source_file>  (129) 
/var/tmp/pbs.5076255.sched01/tmpdonsa7tf/408ubvndgu.sdf

>  <i_m_source_file_index>  (129) 
19

>  <i_lp_mmshare_version>  (129) 
48012

>  <i_f3d_flags>  (129) 
0

>  <s_epik_input>  (129) 
W0NIM11bQ0BASF0xW0NIMl1OKFtDSDJdMilbQ0BIXTFbQ0BASF0oW0NAQEhdM1xbQ0hdPVtDSF1cW0NIM10pW0NAQEhdNFtDQEhdMltDQEhdM1tDSDJdQyhbQ0BAXTQ1W0NIM10pPUMoW0NIM10pQyg9TylbQ0hdPVtDSF01

>  <s_epik_cmdline>  (129) 
J2VwaWtfcHl0aG9uJywgJy1waHQnLCAnMi4wJywgJy1waCcsICc3LjAnLCAnLXRuJywgJzgnLCAnLW1hJywgJzIwMCcsICctaW1hZScsICc8aW5maWxlLm1hZT4nLCAnLW9tYWUnLCAnPG91dGZpbGUubWFlPic=

>  <r_lp_tautomer_probability>  (129) 
1

>  <r_epik_Ionization_Penalty>  (129) 
0.000218124

>  <r_epik_Ionization_Penalty_Charging>  (129) 
0.000218124

>  <r_epik_Ionization_Penalty_Neutral>  (129) 
0

>  <r_epik_State_Penalty>  (129) 
-0

>  <r_epik_Charging_Adjusted_Penalty>  (129) 
0.000218124

>  <i_epik_Tot_Q>  (129) 
1

>  <i_epik_Tot_abs_Q>  (129) 
1

>  <s_lp_Force_Field>  (129) 
OPLS3e

>  <r_lp_Energy>  (129) 
58.2803

>  <b_lp_Chiralities_Consistent>  (129) 
1

>  <s_lp_Variant>  (129) 
44:0-1

>  <s_i_glide_gridfile>  (129) 
pfpi4k_grid

>  <i_i_glide_lignum>  (129) 
19

>  <i_i_glide_rotatable_bonds>  (129) 
1

>  <r_i_docking_score>  (129) 
-3.01318

>  <r_i_glide_ligand_efficiency>  (129) 
-0.125549

>  <r_i_glide_ligand_efficiency_sa>  (129) 
-0.362147

>  <r_i_glide_ligand_efficiency_ln>  (129) 
-0.721193

>  <r_i_glide_gscore>  (129) 
-3.01318

>  <r_i_glide_lipo>  (129) 
-0.600881

>  <r_i_glide_hbond>  (129) 
0

>  <r_i_glide_metal>  (129) 
-0

>  <r_i_glide_rewards>  (129) 
-1.21568

>  <r_i_glide_evdw>  (129) 
-19.3202

>  <r_i_glide_ecoul>  (129) 
-2.7233

>  <r_i_glide_erotb>  (129) 
0.177878

>  <r_i_glide_esite>  (129) 
0

>  <r_i_glide_emodel>  (129) 
-26.8442

>  <r_i_glide_energy>  (129) 
-22.0435

>  <r_i_glide_einternal>  (129) 
0.0294394

>  <r_i_glide_intrahb_reward>  (129) 
-0

>  <i_i_glide_confnum>  (129) 
5

>  <i_i_glide_posenum>  (129) 
24

>  <r_i_glide_eff_state_penalty>  (129) 
0

>  <ligand_id>  (129) 
44

>  <original_smiles>  (129) 
CC=CC1C2CC3=C(C)C(=O)C=CC3(C)C3C2CN2CC(C)C2C13

>  <smiles>  (129) 
[H]C1=C([H])C2(C([H])([H])[H])C(=C(C([H])([H])[H])C1=O)C([H])([H])C1([H])C([H])(C([H])=C([H])C([H])([H])[H])C3([H])C2([H])C1([H])C([H])([H])[N+]1([H])C([H])([H])C([H])(C([H])([H])[H])C31[H]

$$$$
44:1:0
     RDKit          3D

 54 58  0  0  1  0  0  0  0  0999 V2000
    1.3017   -7.0997    1.5840 C   0  0  0  0  0  0  0  0  0  0  0  0
    1.0995   -5.8392    2.4034 C   0  0  0  0  0  0  0  0  0  0  0  0
    1.8152   -4.7039    2.3621 C   0  0  0  0  0  0  0  0  0  0  0  0
    3.0283   -4.3872    1.4876 C   0  0  2  0  0  0  0  0  0  0  0  0
    4.3481   -4.0385    2.2084 C   0  0  2  0  0  0  0  0  0  0  0  0
    4.1596   -3.2555    3.5339 C   0  0  0  0  0  0  0  0  0  0  0  0
    3.2562   -2.0264    3.3567 C   0  0  0  0  0  0  0  0  0  0  0  0
    2.2197   -1.7365    4.1894 C   0  0  0  0  0  0  0  0  0  0  0  0
    1.8808   -2.5149    5.4591 C   0  0  0  0  0  0  0  0  0  0  0  0
    1.2525   -0.6621    3.8386 C   0  0  0  0  0  0  0  0  0  0  0  0
    0.3575   -0.3164    4.6107 O   0  0  0  0  0  0  0  0  0  0  0  0
    1.3645   -0.0366    2.5146 C   0  0  0  0  0  0  0  0  0  0  0  0
    2.4128   -0.3017    1.7210 C   0  0  0  0  0  0  0  0  0  0  0  0
    3.5777   -1.2115    2.0933 C   0  0  1  0  0  0  0  0  0  0  0  0
    4.7637   -0.2792    2.4170 C   0  0  0  0  0  0  0  0  0  0  0  0
    3.9121   -2.1462    0.8837 C   0  0  1  0  0  0  0  0  0  0  0  0
    5.0465   -3.1338    1.1692 C   0  0  2  0  0  0  0  0  0  0  0  0
    5.5021   -3.8754   -0.1322 C   0  0  0  0  0  0  0  0  0  0  0  0
    4.4682   -4.0110   -1.2119 N   0  0  2  0  0  0  0  0  0  0  0  0
    4.5122   -3.0226   -2.2922 C   0  0  0  0  0  0  0  0  0  0  0  0
    3.0171   -2.7776   -2.1217 C   0  0  1  0  0  0  0  0  0  0  0  0
    2.0745   -3.1042   -3.2749 C   0  0  0  0  0  0  0  0  0  0  0  0
    3.0547   -3.7080   -0.9121 C   0  0  2  0  0  0  0  0  0  0  0  0
    2.8269   -3.1924    0.5147 C   0  0  1  0  0  0  0  0  0  0  0  0
    1.3505   -7.9594    2.2538 H   0  0  0  0  0  0  0  0  0  0  0  0
    2.2160   -7.0948    0.9950 H   0  0  0  0  0  0  0  0  0  0  0  0
    0.4594   -7.2437    0.9058 H   0  0  0  0  0  0  0  0  0  0  0  0
    0.2707   -5.8779    3.0965 H   0  0  0  0  0  0  0  0  0  0  0  0
    1.4822   -3.9179    3.0164 H   0  0  0  0  0  0  0  0  0  0  0  0
    3.2512   -5.2818    0.9117 H   0  0  0  0  0  0  0  0  0  0  0  0
    4.9359   -4.9372    2.4039 H   0  0  0  0  0  0  0  0  0  0  0  0
    3.7645   -3.9486    4.2740 H   0  0  0  0  0  0  0  0  0  0  0  0
    5.1302   -2.9240    3.9065 H   0  0  0  0  0  0  0  0  0  0  0  0
    1.5036   -1.8583    6.2438 H   0  0  0  0  0  0  0  0  0  0  0  0
    2.7443   -3.0192    5.8893 H   0  0  0  0  0  0  0  0  0  0  0  0
    1.1116   -3.2610    5.2588 H   0  0  0  0  0  0  0  0  0  0  0  0
    0.5833    0.6415    2.1988 H   0  0  0  0  0  0  0  0  0  0  0  0
    2.4641    0.1661    0.7476 H   0  0  0  0  0  0  0  0  0  0  0  0
    4.4859    0.4219    3.2077 H   0  0  0  0  0  0  0  0  0  0  0  0
    5.0522    0.3022    1.5420 H   0  0  0  0  0  0  0  0  0  0  0  0
    5.6440   -0.8144    2.7759 H   0  0  0  0  0  0  0  0  0  0  0  0
    4.1651   -1.5032    0.0424 H   0  0  0  0  0  0  0  0  0  0  0  0
    5.9270   -2.6599    1.6078 H   0  0  0  0  0  0  0  0  0  0  0  0
    6.3771   -3.3785   -0.5519 H   0  0  0  0  0  0  0  0  0  0  0  0
    5.8397   -4.8781    0.1297 H   0  0  0  0  0  0  0  0  0  0  0  0
    5.1145   -2.1394   -2.0746 H   0  0  0  0  0  0  0  0  0  0  0  0
    4.7678   -3.4685   -3.2553 H   0  0  0  0  0  0  0  0  0  0  0  0
    2.8563   -1.7574   -1.7719 H   0  0  0  0  0  0  0  0  0  0  0  0
    2.2320   -4.1116   -3.6692 H   0  0  0  0  0  0  0  0  0  0  0  0
    2.1992   -2.4064   -4.1027 H   0  0  0  0  0  0  0  0  0  0  0  0
    1.0347   -3.0484   -2.9515 H   0  0  0  0  0  0  0  0  0  0  0  0
    2.4473   -4.5930   -1.1149 H   0  0  0  0  0  0  0  0  0  0  0  0
    1.8266   -2.7683    0.5978 H   0  0  0  0  0  0  0  0  0  0  0  0
    4.5055   -4.9285   -1.6439 H   0  0  0  0  0  0  0  0  0  0  0  0
  1  2  1  0
  1 25  1  0
  1 26  1  0
  1 27  1  0
  2  3  2  3
  2 28  1  0
  3  4  1  0
  3 29  1  0
  4 24  1  0
  4  5  1  0
  4 30  1  6
  5 17  1  0
  5  6  1  0
  5 31  1  1
  6  7  1  0
  6 32  1  0
  6 33  1  0
  7 14  1  0
  7  8  2  0
  8  9  1  0
  8 10  1  0
  9 34  1  0
  9 35  1  0
  9 36  1  0
 10 11  2  0
 10 12  1  0
 12 13  2  0
 12 37  1  0
 13 14  1  0
 13 38  1  0
 14 15  1  1
 14 16  1  0
 15 39  1  0
 15 40  1  0
 15 41  1  0
 16 24  1  0
 16 17  1  0
 16 42  1  6
 17 18  1  0
 17 43  1  1
 18 19  1  0
 18 44  1  0
 18 45  1  0
 19 23  1  0
 19 20  1  0
 19 54  1  6
 20 21  1  0
 20 46  1  0
 20 47  1  0
 21 22  1  0
 21 23  1  0
 21 48  1  1
 22 49  1  0
 22 50  1  0
 22 51  1  0
 23 24  1  0
 23 52  1  6
 24 53  1  6
M  CHG  1  19   1
M  END
>  <i_m_ct_stereo_status>  (130) 
1

>  <s_m_source_file>  (130) 
/var/tmp/pbs.5076255.sched01/tmpdonsa7tf/408ubvndgu.sdf

>  <i_m_source_file_index>  (130) 
20

>  <i_lp_mmshare_version>  (130) 
48012

>  <i_f3d_flags>  (130) 
0

>  <s_epik_input>  (130) 
W0NIM11bQ0BASF0xW0NIMl1OKFtDSDJdMilbQ0BIXTFbQ0BASF0oW0NAQEhdM1xbQ0hdPVtDSF1cW0NIM10pW0NAQEhdNFtDQEhdMltDQEhdM1tDSDJdQyhbQ0BAXTQ1W0NIM10pPUMoW0NIM10pQyg9TylbQ0hdPVtDSF01

>  <s_epik_cmdline>  (130) 
J2VwaWtfcHl0aG9uJywgJy1waHQnLCAnMi4wJywgJy1waCcsICc3LjAnLCAnLXRuJywgJzgnLCAnLW1hJywgJzIwMCcsICctaW1hZScsICc8aW5maWxlLm1hZT4nLCAnLW9tYWUnLCAnPG91dGZpbGUubWFlPic=

>  <r_lp_tautomer_probability>  (130) 
1

>  <r_epik_Ionization_Penalty>  (130) 
0.000218124

>  <r_epik_Ionization_Penalty_Charging>  (130) 
0.000218124

>  <r_epik_Ionization_Penalty_Neutral>  (130) 
0

>  <r_epik_State_Penalty>  (130) 
-0

>  <r_epik_Charging_Adjusted_Penalty>  (130) 
0.000218124

>  <i_epik_Tot_Q>  (130) 
1

>  <i_epik_Tot_abs_Q>  (130) 
1

>  <s_lp_Force_Field>  (130) 
OPLS3e

>  <r_lp_Energy>  (130) 
60.0932

>  <b_lp_Chiralities_Consistent>  (130) 
1

>  <s_lp_Variant>  (130) 
44:0-2

>  <s_i_glide_gridfile>  (130) 
pfpi4k_grid

>  <i_i_glide_lignum>  (130) 
20

>  <i_i_glide_rotatable_bonds>  (130) 
1

>  <r_i_docking_score>  (130) 
-3.17609

>  <r_i_glide_ligand_efficiency>  (130) 
-0.132337

>  <r_i_glide_ligand_efficiency_sa>  (130) 
-0.381726

>  <r_i_glide_ligand_efficiency_ln>  (130) 
-0.760184

>  <r_i_glide_gscore>  (130) 
-3.17609

>  <r_i_glide_lipo>  (130) 
-0.448529

>  <r_i_glide_hbond>  (130) 
0

>  <r_i_glide_metal>  (130) 
-0

>  <r_i_glide_rewards>  (130) 
-1.19673

>  <r_i_glide_evdw>  (130) 
-18.7399

>  <r_i_glide_ecoul>  (130) 
-4.94662

>  <r_i_glide_erotb>  (130) 
0.177878

>  <r_i_glide_esite>  (130) 
-0.0297181

>  <r_i_glide_emodel>  (130) 
-28.7103

>  <r_i_glide_energy>  (130) 
-23.6865

>  <r_i_glide_einternal>  (130) 
0.0753667

>  <r_i_glide_intrahb_reward>  (130) 
-0

>  <i_i_glide_confnum>  (130) 
4

>  <i_i_glide_posenum>  (130) 
22

>  <r_i_glide_eff_state_penalty>  (130) 
0

>  <ligand_id>  (130) 
44

>  <original_smiles>  (130) 
CC=CC1C2CC3=C(C)C(=O)C=CC3(C)C3C2CN2CC(C)C2C13

>  <smiles>  (130) 
[H]C1=C([H])C2(C([H])([H])[H])C(=C(C([H])([H])[H])C1=O)C([H])([H])C1([H])C([H])(C([H])=C([H])C([H])([H])[H])C3([H])C2([H])C1([H])C([H])([H])[N+]1([H])C([H])([H])C([H])(C([H])([H])[H])C31[H]

$$$$
44:1:1
     RDKit          3D

 54 58  0  0  1  0  0  0  0  0999 V2000
    3.7616   -1.2224   -2.6310 C   0  0  0  0  0  0  0  0  0  0  0  0
    3.3431   -2.5047   -1.9365 C   0  0  0  0  0  0  0  0  0  0  0  0
    3.2921   -2.7483   -0.6169 C   0  0  0  0  0  0  0  0  0  0  0  0
    3.6312   -1.7923    0.5246 C   0  0  2  0  0  0  0  0  0  0  0  0
    4.9027   -2.0962    1.3398 C   0  0  2  0  0  0  0  0  0  0  0  0
    5.2009   -3.6100    1.5039 C   0  0  0  0  0  0  0  0  0  0  0  0
    3.9865   -4.3924    2.0298 C   0  0  0  0  0  0  0  0  0  0  0  0
    3.5551   -5.5511    1.4779 C   0  0  0  0  0  0  0  0  0  0  0  0
    4.2545   -6.2906    0.3424 C   0  0  0  0  0  0  0  0  0  0  0  0
    2.2421   -6.1195    1.8883 C   0  0  0  0  0  0  0  0  0  0  0  0
    1.8435   -7.1957    1.4649 O   0  0  0  0  0  0  0  0  0  0  0  0
    1.3883   -5.3436    2.7997 C   0  0  0  0  0  0  0  0  0  0  0  0
    1.8513   -4.2240    3.3673 C   0  0  0  0  0  0  0  0  0  0  0  0
    3.2610   -3.6762    3.1805 C   0  0  1  0  0  0  0  0  0  0  0  0
    4.0158   -3.9977    4.4885 C   0  0  0  0  0  0  0  0  0  0  0  0
    3.1861   -2.1315    2.9449 C   0  0  1  0  0  0  0  0  0  0  0  0
    4.5505   -1.4876    2.7135 C   0  0  2  0  0  0  0  0  0  0  0  0
    4.4478    0.0673    2.7206 C   0  0  0  0  0  0  0  0  0  0  0  0
    3.1304    0.6495    2.3289 N   0  0  2  0  0  0  0  0  0  0  0  0
    2.2420    1.0427    3.4120 C   0  0  0  0  0  0  0  0  0  0  0  0
    1.1040    0.2934    2.7375 C   0  0  1  0  0  0  0  0  0  0  0  0
   -0.1294    1.0556    2.2670 C   0  0  0  0  0  0  0  0  0  0  0  0
    2.1117   -0.2014    1.7129 C   0  0  2  0  0  0  0  0  0  0  0  0
    2.5309   -1.6738    1.6119 C   0  0  1  0  0  0  0  0  0  0  0  0
    4.5264   -1.4385   -3.3768 H   0  0  0  0  0  0  0  0  0  0  0  0
    4.1711   -0.4715   -1.9586 H   0  0  0  0  0  0  0  0  0  0  0  0
    2.8987   -0.7862   -3.1368 H   0  0  0  0  0  0  0  0  0  0  0  0
    3.0453   -3.3057   -2.6008 H   0  0  0  0  0  0  0  0  0  0  0  0
    2.9489   -3.7276   -0.3348 H   0  0  0  0  0  0  0  0  0  0  0  0
    3.7799   -0.8114    0.0831 H   0  0  0  0  0  0  0  0  0  0  0  0
    5.7744   -1.6083    0.8980 H   0  0  0  0  0  0  0  0  0  0  0  0
    5.5389   -3.9902    0.5451 H   0  0  0  0  0  0  0  0  0  0  0  0
    6.0254   -3.7486    2.2012 H   0  0  0  0  0  0  0  0  0  0  0  0
    4.1484   -7.3698    0.4426 H   0  0  0  0  0  0  0  0  0  0  0  0
    5.3250   -6.0933    0.3070 H   0  0  0  0  0  0  0  0  0  0  0  0
    3.8333   -6.0010   -0.6180 H   0  0  0  0  0  0  0  0  0  0  0  0
    0.3913   -5.7152    2.9988 H   0  0  0  0  0  0  0  0  0  0  0  0
    1.2121   -3.6622    4.0383 H   0  0  0  0  0  0  0  0  0  0  0  0
    3.9904   -5.0717    4.6808 H   0  0  0  0  0  0  0  0  0  0  0  0
    3.5667   -3.5092    5.3530 H   0  0  0  0  0  0  0  0  0  0  0  0
    5.0709   -3.7228    4.4539 H   0  0  0  0  0  0  0  0  0  0  0  0
    2.7045   -1.6921    3.8164 H   0  0  0  0  0  0  0  0  0  0  0  0
    5.2975   -1.7737    3.4542 H   0  0  0  0  0  0  0  0  0  0  0  0
    4.7290    0.4593    3.6942 H   0  0  0  0  0  0  0  0  0  0  0  0
    5.1901    0.4443    2.0293 H   0  0  0  0  0  0  0  0  0  0  0  0
    2.5033    0.6356    4.3882 H   0  0  0  0  0  0  0  0  0  0  0  0
    2.0675    2.1178    3.4574 H   0  0  0  0  0  0  0  0  0  0  0  0
    0.8219   -0.5494    3.3609 H   0  0  0  0  0  0  0  0  0  0  0  0
    0.1379    1.9192    1.6496 H   0  0  0  0  0  0  0  0  0  0  0  0
   -0.7195    1.4235    3.1088 H   0  0  0  0  0  0  0  0  0  0  0  0
   -0.7878    0.4274    1.6651 H   0  0  0  0  0  0  0  0  0  0  0  0
    1.8457    0.2306    0.7508 H   0  0  0  0  0  0  0  0  0  0  0  0
    1.6625   -2.2724    1.3613 H   0  0  0  0  0  0  0  0  0  0  0  0
    3.2721    1.4817    1.7632 H   0  0  0  0  0  0  0  0  0  0  0  0
  1  2  1  0
  1 25  1  0
  1 26  1  0
  1 27  1  0
  2  3  2  3
  2 28  1  0
  3  4  1  0
  3 29  1  0
  4 24  1  0
  4  5  1  0
  4 30  1  6
  5 17  1  0
  5  6  1  0
  5 31  1  6
  6  7  1  0
  6 32  1  0
  6 33  1  0
  7 14  1  0
  7  8  2  0
  8  9  1  0
  8 10  1  0
  9 34  1  0
  9 35  1  0
  9 36  1  0
 10 11  2  0
 10 12  1  0
 12 13  2  0
 12 37  1  0
 13 14  1  0
 13 38  1  0
 14 15  1  1
 14 16  1  0
 15 39  1  0
 15 40  1  0
 15 41  1  0
 16 24  1  0
 16 17  1  0
 16 42  1  1
 17 18  1  0
 17 43  1  1
 18 19  1  0
 18 44  1  0
 18 45  1  0
 19 23  1  0
 19 20  1  0
 19 54  1  6
 20 21  1  0
 20 46  1  0
 20 47  1  0
 21 22  1  0
 21 23  1  0
 21 48  1  1
 22 49  1  0
 22 50  1  0
 22 51  1  0
 23 24  1  0
 23 52  1  6
 24 53  1  6
M  CHG  1  19   1
M  END
>  <i_m_ct_stereo_status>  (131) 
1

>  <s_m_source_file>  (131) 
/var/tmp/pbs.5076255.sched01/tmpdonsa7tf/408ubvndgu.sdf

>  <i_m_source_file_index>  (131) 
20

>  <i_lp_mmshare_version>  (131) 
48012

>  <i_f3d_flags>  (131) 
0

>  <s_epik_input>  (131) 
W0NIM11bQ0BASF0xW0NIMl1OKFtDSDJdMilbQ0BIXTFbQ0BASF0oW0NAQEhdM1xbQ0hdPVtDSF1cW0NIM10pW0NAQEhdNFtDQEhdMltDQEhdM1tDSDJdQyhbQ0BAXTQ1W0NIM10pPUMoW0NIM10pQyg9TylbQ0hdPVtDSF01

>  <s_epik_cmdline>  (131) 
J2VwaWtfcHl0aG9uJywgJy1waHQnLCAnMi4wJywgJy1waCcsICc3LjAnLCAnLXRuJywgJzgnLCAnLW1hJywgJzIwMCcsICctaW1hZScsICc8aW5maWxlLm1hZT4nLCAnLW9tYWUnLCAnPG91dGZpbGUubWFlPic=

>  <r_lp_tautomer_probability>  (131) 
1

>  <r_epik_Ionization_Penalty>  (131) 
0.000218124

>  <r_epik_Ionization_Penalty_Charging>  (131) 
0.000218124

>  <r_epik_Ionization_Penalty_Neutral>  (131) 
0

>  <r_epik_State_Penalty>  (131) 
-0

>  <r_epik_Charging_Adjusted_Penalty>  (131) 
0.000218124

>  <i_epik_Tot_Q>  (131) 
1

>  <i_epik_Tot_abs_Q>  (131) 
1

>  <s_lp_Force_Field>  (131) 
OPLS3e

>  <r_lp_Energy>  (131) 
60.0932

>  <b_lp_Chiralities_Consistent>  (131) 
1

>  <s_lp_Variant>  (131) 
44:0-2

>  <s_i_glide_gridfile>  (131) 
pfpi4k_grid

>  <i_i_glide_lignum>  (131) 
20

>  <i_i_glide_rotatable_bonds>  (131) 
1

>  <r_i_docking_score>  (131) 
-2.67084

>  <r_i_glide_ligand_efficiency>  (131) 
-0.111285

>  <r_i_glide_ligand_efficiency_sa>  (131) 
-0.321002

>  <r_i_glide_ligand_efficiency_ln>  (131) 
-0.639255

>  <r_i_glide_gscore>  (131) 
-2.67084

>  <r_i_glide_lipo>  (131) 
-0.314445

>  <r_i_glide_hbond>  (131) 
0

>  <r_i_glide_metal>  (131) 
-0

>  <r_i_glide_rewards>  (131) 
-1.19673

>  <r_i_glide_evdw>  (131) 
-18.9396

>  <r_i_glide_ecoul>  (131) 
-2.48958

>  <r_i_glide_erotb>  (131) 
0.177878

>  <r_i_glide_esite>  (131) 
-0.0171307

>  <r_i_glide_emodel>  (131) 
-25.6321

>  <r_i_glide_energy>  (131) 
-21.4292

>  <r_i_glide_einternal>  (131) 
0.0201787

>  <r_i_glide_intrahb_reward>  (131) 
-0

>  <i_i_glide_confnum>  (131) 
4

>  <i_i_glide_posenum>  (131) 
2

>  <r_i_glide_eff_state_penalty>  (131) 
0

>  <ligand_id>  (131) 
44

>  <original_smiles>  (131) 
CC=CC1C2CC3=C(C)C(=O)C=CC3(C)C3C2CN2CC(C)C2C13

>  <smiles>  (131) 
[H]C1=C([H])C2(C([H])([H])[H])C(=C(C([H])([H])[H])C1=O)C([H])([H])C1([H])C([H])(C([H])=C([H])C([H])([H])[H])C3([H])C2([H])C1([H])C([H])([H])[N+]1([H])C([H])([H])C([H])(C([H])([H])[H])C31[H]

$$$$
44:1:2
     RDKit          3D

 54 58  0  0  1  0  0  0  0  0999 V2000
    4.8899    2.0565    7.1628 C   0  0  0  0  0  0  0  0  0  0  0  0
    3.4589    2.2902    7.6044 C   0  0  0  0  0  0  0  0  0  0  0  0
    2.3870    2.5402    6.8328 C   0  0  0  0  0  0  0  0  0  0  0  0
    2.3320    2.6541    5.3128 C   0  0  2  0  0  0  0  0  0  0  0  0
    1.9723    4.0303    4.7231 C   0  0  2  0  0  0  0  0  0  0  0  0
    0.9570    4.8393    5.5678 C   0  0  0  0  0  0  0  0  0  0  0  0
   -0.3007    4.0228    5.9183 C   0  0  0  0  0  0  0  0  0  0  0  0
   -0.8143    3.9538    7.1640 C   0  0  0  0  0  0  0  0  0  0  0  0
   -0.3009    4.7380    8.3713 C   0  0  0  0  0  0  0  0  0  0  0  0
   -1.8840    2.9587    7.4678 C   0  0  0  0  0  0  0  0  0  0  0  0
   -2.4509    2.9266    8.5499 O   0  0  0  0  0  0  0  0  0  0  0  0
   -2.2518    1.9831    6.4361 C   0  0  0  0  0  0  0  0  0  0  0  0
   -1.7721    2.1000    5.1940 C   0  0  0  0  0  0  0  0  0  0  0  0
   -0.8421    3.2144    4.7266 C   0  0  1  0  0  0  0  0  0  0  0  0
   -1.7111    4.1590    3.8702 C   0  0  0  0  0  0  0  0  0  0  0  0
    0.3084    2.5970    3.8710 C   0  0  1  0  0  0  0  0  0  0  0  0
    1.3191    3.6328    3.3849 C   0  0  2  0  0  0  0  0  0  0  0  0
    2.2972    3.0132    2.3512 C   0  0  0  0  0  0  0  0  0  0  0  0
    2.5420    1.5472    2.4587 N   0  0  2  0  0  0  0  0  0  0  0  0
    1.7858    0.6875    1.5615 C   0  0  0  0  0  0  0  0  0  0  0  0
    1.4035   -0.1935    2.7413 C   0  0  1  0  0  0  0  0  0  0  0  0
    1.8352   -1.6544    2.7794 C   0  0  0  0  0  0  0  0  0  0  0  0
    2.0930    0.8178    3.6437 C   0  0  2  0  0  0  0  0  0  0  0  0
    1.3186    1.6949    4.6352 C   0  0  1  0  0  0  0  0  0  0  0  0
    5.5536    2.7217    7.7150 H   0  0  0  0  0  0  0  0  0  0  0  0
    5.0628    2.2336    6.1045 H   0  0  0  0  0  0  0  0  0  0  0  0
    5.1742    1.0274    7.3833 H   0  0  0  0  0  0  0  0  0  0  0  0
    3.2995    2.2351    8.6721 H   0  0  0  0  0  0  0  0  0  0  0  0
    1.4543    2.6543    7.3538 H   0  0  0  0  0  0  0  0  0  0  0  0
    3.3244    2.4302    4.9337 H   0  0  0  0  0  0  0  0  0  0  0  0
    2.8689    4.6331    4.5614 H   0  0  0  0  0  0  0  0  0  0  0  0
    1.4709    5.1897    6.4574 H   0  0  0  0  0  0  0  0  0  0  0  0
    0.6490    5.7253    5.0158 H   0  0  0  0  0  0  0  0  0  0  0  0
   -1.1148    5.0220    9.0357 H   0  0  0  0  0  0  0  0  0  0  0  0
    0.1919    5.6679    8.0862 H   0  0  0  0  0  0  0  0  0  0  0  0
    0.4029    4.1390    8.9511 H   0  0  0  0  0  0  0  0  0  0  0  0
   -2.9399    1.1947    6.7191 H   0  0  0  0  0  0  0  0  0  0  0  0
   -2.0621    1.3841    4.4350 H   0  0  0  0  0  0  0  0  0  0  0  0
   -2.5564    4.5162    4.4600 H   0  0  0  0  0  0  0  0  0  0  0  0
   -2.1231    3.6557    2.9933 H   0  0  0  0  0  0  0  0  0  0  0  0
   -1.1659    5.0390    3.5214 H   0  0  0  0  0  0  0  0  0  0  0  0
   -0.1455    2.0909    3.0215 H   0  0  0  0  0  0  0  0  0  0  0  0
    0.8641    4.5012    2.9089 H   0  0  0  0  0  0  0  0  0  0  0  0
    1.9350    3.2326    1.3541 H   0  0  0  0  0  0  0  0  0  0  0  0
    3.2503    3.5217    2.4374 H   0  0  0  0  0  0  0  0  0  0  0  0
    0.9205    1.1515    1.0852 H   0  0  0  0  0  0  0  0  0  0  0  0
    2.3987    0.1565    0.8344 H   0  0  0  0  0  0  0  0  0  0  0  0
    0.3317   -0.1036    2.8961 H   0  0  0  0  0  0  0  0  0  0  0  0
    2.9069   -1.7618    2.5938 H   0  0  0  0  0  0  0  0  0  0  0  0
    1.3150   -2.2432    2.0232 H   0  0  0  0  0  0  0  0  0  0  0  0
    1.6222   -2.1112    3.7492 H   0  0  0  0  0  0  0  0  0  0  0  0
    2.9516    0.3259    4.1006 H   0  0  0  0  0  0  0  0  0  0  0  0
    0.8206    1.0659    5.3677 H   0  0  0  0  0  0  0  0  0  0  0  0
    3.5251    1.3595    2.2876 H   0  0  0  0  0  0  0  0  0  0  0  0
  1  2  1  0
  1 25  1  0
  1 26  1  0
  1 27  1  0
  2  3  2  3
  2 28  1  0
  3  4  1  0
  3 29  1  0
  4 24  1  0
  4  5  1  0
  4 30  1  6
  5 17  1  0
  5  6  1  0
  5 31  1  6
  6  7  1  0
  6 32  1  0
  6 33  1  0
  7 14  1  0
  7  8  2  0
  8  9  1  0
  8 10  1  0
  9 34  1  0
  9 35  1  0
  9 36  1  0
 10 11  2  0
 10 12  1  0
 12 13  2  0
 12 37  1  0
 13 14  1  0
 13 38  1  0
 14 15  1  6
 14 16  1  0
 15 39  1  0
 15 40  1  0
 15 41  1  0
 16 24  1  0
 16 17  1  0
 16 42  1  6
 17 18  1  0
 17 43  1  6
 18 19  1  0
 18 44  1  0
 18 45  1  0
 19 23  1  0
 19 20  1  0
 19 54  1  6
 20 21  1  0
 20 46  1  0
 20 47  1  0
 21 22  1  0
 21 23  1  0
 21 48  1  1
 22 49  1  0
 22 50  1  0
 22 51  1  0
 23 24  1  0
 23 52  1  1
 24 53  1  1
M  CHG  1  19   1
M  END
>  <i_m_ct_stereo_status>  (132) 
1

>  <s_m_source_file>  (132) 
/var/tmp/pbs.5076255.sched01/tmpdonsa7tf/408ubvndgu.sdf

>  <i_m_source_file_index>  (132) 
20

>  <i_lp_mmshare_version>  (132) 
48012

>  <i_f3d_flags>  (132) 
0

>  <s_epik_input>  (132) 
W0NIM11bQ0BASF0xW0NIMl1OKFtDSDJdMilbQ0BIXTFbQ0BASF0oW0NAQEhdM1xbQ0hdPVtDSF1cW0NIM10pW0NAQEhdNFtDQEhdMltDQEhdM1tDSDJdQyhbQ0BAXTQ1W0NIM10pPUMoW0NIM10pQyg9TylbQ0hdPVtDSF01

>  <s_epik_cmdline>  (132) 
J2VwaWtfcHl0aG9uJywgJy1waHQnLCAnMi4wJywgJy1waCcsICc3LjAnLCAnLXRuJywgJzgnLCAnLW1hJywgJzIwMCcsICctaW1hZScsICc8aW5maWxlLm1hZT4nLCAnLW9tYWUnLCAnPG91dGZpbGUubWFlPic=

>  <r_lp_tautomer_probability>  (132) 
1

>  <r_epik_Ionization_Penalty>  (132) 
0.000218124

>  <r_epik_Ionization_Penalty_Charging>  (132) 
0.000218124

>  <r_epik_Ionization_Penalty_Neutral>  (132) 
0

>  <r_epik_State_Penalty>  (132) 
-0

>  <r_epik_Charging_Adjusted_Penalty>  (132) 
0.000218124

>  <i_epik_Tot_Q>  (132) 
1

>  <i_epik_Tot_abs_Q>  (132) 
1

>  <s_lp_Force_Field>  (132) 
OPLS3e

>  <r_lp_Energy>  (132) 
60.0932

>  <b_lp_Chiralities_Consistent>  (132) 
1

>  <s_lp_Variant>  (132) 
44:0-2

>  <s_i_glide_gridfile>  (132) 
pfpi4k_grid

>  <i_i_glide_lignum>  (132) 
20

>  <i_i_glide_rotatable_bonds>  (132) 
1

>  <r_i_docking_score>  (132) 
-2.40898

>  <r_i_glide_ligand_efficiency>  (132) 
-0.100374

>  <r_i_glide_ligand_efficiency_sa>  (132) 
-0.289529

>  <r_i_glide_ligand_efficiency_ln>  (132) 
-0.576579

>  <r_i_glide_gscore>  (132) 
-2.40898

>  <r_i_glide_lipo>  (132) 
-0.00139838

>  <r_i_glide_hbond>  (132) 
0

>  <r_i_glide_metal>  (132) 
-0

>  <r_i_glide_rewards>  (132) 
-1.2427

>  <r_i_glide_evdw>  (132) 
-15.7996

>  <r_i_glide_ecoul>  (132) 
-3.68515

>  <r_i_glide_erotb>  (132) 
0.177878

>  <r_i_glide_esite>  (132) 
0

>  <r_i_glide_emodel>  (132) 
-23.2954

>  <r_i_glide_energy>  (132) 
-19.4848

>  <r_i_glide_einternal>  (132) 
0.00090177

>  <r_i_glide_intrahb_reward>  (132) 
-0

>  <i_i_glide_confnum>  (132) 
1

>  <i_i_glide_posenum>  (132) 
3

>  <r_i_glide_eff_state_penalty>  (132) 
0

>  <ligand_id>  (132) 
44

>  <original_smiles>  (132) 
CC=CC1C2CC3=C(C)C(=O)C=CC3(C)C3C2CN2CC(C)C2C13

>  <smiles>  (132) 
[H]C1=C([H])C2(C([H])([H])[H])C(=C(C([H])([H])[H])C1=O)C([H])([H])C1([H])C([H])(C([H])=C([H])C([H])([H])[H])C3([H])C2([H])C1([H])C([H])([H])[N+]1([H])C([H])([H])C([H])(C([H])([H])[H])C31[H]

$$$$
46:0:0
     RDKit          3D

 23 25  0  0  1  0  0  0  0  0999 V2000
    7.8631   -2.3255   -0.4149 O   0  0  0  0  0  0  0  0  0  0  0  0
    6.6704   -2.5414   -0.2217 C   0  0  0  0  0  0  0  0  0  0  0  0
    6.2038   -3.8132    0.5295 C   0  0  0  0  0  0  0  0  0  0  0  0
    4.4914   -4.4012    0.1619 S   0  0  0  0  0  0  0  0  0  0  0  0
    3.7270   -2.9029   -0.5665 C   0  0  1  0  0  0  0  0  0  0  0  0
    3.6184   -1.8104    0.4962 C   0  0  0  0  0  0  0  0  0  0  0  0
    4.9992   -1.1667    0.3837 C   0  0  0  0  0  0  0  0  0  0  0  0
    5.4105   -0.3744    1.2082 O   0  0  0  0  0  0  0  0  0  0  0  0
    5.7043   -1.6983   -0.6443 N   0  0  0  0  0  0  0  0  0  0  0  0
    4.7153   -2.2632   -1.5771 C   0  0  0  0  0  0  0  0  0  0  0  0
    3.9422   -0.9233   -2.5276 S   0  0  0  0  0  0  0  0  0  0  0  0
    3.6519   -1.8683   -4.0436 C   0  0  0  0  0  0  0  0  0  0  0  0
    3.9560   -3.3486   -3.8217 C   0  0  0  0  0  0  0  0  0  0  0  0
    5.4265   -3.4417   -2.7910 S   0  0  0  0  0  0  0  0  0  0  0  0
    6.9050   -4.6208    0.3135 H   0  0  0  0  0  0  0  0  0  0  0  0
    6.2597   -3.6382    1.6037 H   0  0  0  0  0  0  0  0  0  0  0  0
    2.7621   -3.1238   -1.0223 H   0  0  0  0  0  0  0  0  0  0  0  0
    2.8594   -1.0601    0.2619 H   0  0  0  0  0  0  0  0  0  0  0  0
    3.4190   -2.1946    1.4993 H   0  0  0  0  0  0  0  0  0  0  0  0
    2.6438   -1.7153   -4.4184 H   0  0  0  0  0  0  0  0  0  0  0  0
    4.3534   -1.4594   -4.7645 H   0  0  0  0  0  0  0  0  0  0  0  0
    3.1392   -3.8520   -3.3027 H   0  0  0  0  0  0  0  0  0  0  0  0
    4.1450   -3.8936   -4.7396 H   0  0  0  0  0  0  0  0  0  0  0  0
  1  2  2  0
  2  9  1  0
  2  3  1  0
  3  4  1  0
  3 15  1  0
  3 16  1  0
  4  5  1  0
  5 10  1  0
  5  6  1  0
  5 17  1  6
  6  7  1  0
  6 18  1  0
  6 19  1  0
  7  8  2  0
  7  9  1  0
  9 10  1  0
 10 14  1  0
 10 11  1  0
 11 12  1  0
 12 13  1  0
 12 20  1  0
 12 21  1  0
 13 14  1  0
 13 22  1  0
 13 23  1  0
M  END
>  <i_m_ct_stereo_status>  (133) 
1

>  <s_m_source_file>  (133) 
/var/tmp/pbs.5076255.sched01/tmpdonsa7tf/408ubvndgu.sdf

>  <i_m_source_file_index>  (133) 
22

>  <i_lp_mmshare_version>  (133) 
48012

>  <i_f3d_flags>  (133) 
0

>  <s_epik_input>  (133) 
W0NIMl0xQyg9TylOMkMoPU8pW0NIMl1TW0NAQEhdMUMyM1NbQ0gyXVtDSDJdUzM=

>  <s_epik_cmdline>  (133) 
J2VwaWtfcHl0aG9uJywgJy1waHQnLCAnMi4wJywgJy1waCcsICc3LjAnLCAnLXRuJywgJzgnLCAnLW1hJywgJzIwMCcsICctaW1hZScsICc8aW5maWxlLm1hZT4nLCAnLW9tYWUnLCAnPG91dGZpbGUubWFlPic=

>  <r_lp_tautomer_probability>  (133) 
1

>  <r_epik_Ionization_Penalty>  (133) 
1.97337e-15

>  <r_epik_Ionization_Penalty_Charging>  (133) 
0

>  <r_epik_Ionization_Penalty_Neutral>  (133) 
1.97337e-15

>  <r_epik_State_Penalty>  (133) 
-0

>  <r_epik_Charging_Adjusted_Penalty>  (133) 
0

>  <i_epik_Tot_Q>  (133) 
0

>  <i_epik_Tot_abs_Q>  (133) 
0

>  <s_lp_Force_Field>  (133) 
OPLS3e

>  <r_lp_Energy>  (133) 
28.2337

>  <b_lp_Chiralities_Consistent>  (133) 
1

>  <s_lp_Variant>  (133) 
46:0-1

>  <s_i_glide_gridfile>  (133) 
pfpi4k_grid

>  <i_i_glide_lignum>  (133) 
22

>  <i_i_glide_rotatable_bonds>  (133) 
0

>  <r_i_docking_score>  (133) 
-4.19886

>  <r_i_glide_ligand_efficiency>  (133) 
-0.299919

>  <r_i_glide_ligand_efficiency_sa>  (133) 
-0.722846

>  <r_i_glide_ligand_efficiency_ln>  (133) 
-1.15383

>  <r_i_glide_gscore>  (133) 
-4.19886

>  <r_i_glide_lipo>  (133) 
-0.460133

>  <r_i_glide_hbond>  (133) 
-0.202723

>  <r_i_glide_metal>  (133) 
-0

>  <r_i_glide_rewards>  (133) 
-1.82334

>  <r_i_glide_evdw>  (133) 
-28.9964

>  <r_i_glide_ecoul>  (133) 
-1.44455

>  <r_i_glide_erotb>  (133) 
0

>  <r_i_glide_esite>  (133) 
-0.0461631

>  <r_i_glide_emodel>  (133) 
-38.2882

>  <r_i_glide_energy>  (133) 
-30.4409

>  <r_i_glide_einternal>  (133) 
0

>  <r_i_glide_intrahb_reward>  (133) 
-0

>  <i_i_glide_confnum>  (133) 
3

>  <i_i_glide_posenum>  (133) 
36

>  <r_i_glide_eff_state_penalty>  (133) 
0

>  <ligand_id>  (133) 
46

>  <original_smiles>  (133) 
O=C1CSC2CC(=O)N1C21SCCS1

>  <smiles>  (133) 
[H]C1([H])SC2([H])C([H])([H])C(=O)N(C1=O)C21SC([H])([H])C([H])([H])S1

$$$$
46:0:1
     RDKit          3D

 23 25  0  0  1  0  0  0  0  0999 V2000
    5.4645   -0.6881    1.6107 O   0  0  0  0  0  0  0  0  0  0  0  0
    5.6234   -1.7040    0.9294 C   0  0  0  0  0  0  0  0  0  0  0  0
    7.0299   -2.0631    0.4020 C   0  0  0  0  0  0  0  0  0  0  0  0
    7.0900   -3.0526   -1.1358 S   0  0  0  0  0  0  0  0  0  0  0  0
    5.4266   -3.8445   -1.1370 C   0  0  1  0  0  0  0  0  0  0  0  0
    5.2547   -4.7866    0.0538 C   0  0  0  0  0  0  0  0  0  0  0  0
    4.8175   -3.7926    1.1247 C   0  0  0  0  0  0  0  0  0  0  0  0
    4.7842   -4.0979    2.3033 O   0  0  0  0  0  0  0  0  0  0  0  0
    4.6194   -2.5546    0.6079 N   0  0  0  0  0  0  0  0  0  0  0  0
    4.3671   -2.7591   -0.8356 C   0  0  0  0  0  0  0  0  0  0  0  0
    2.6903   -3.4252   -1.0976 S   0  0  0  0  0  0  0  0  0  0  0  0
    2.7413   -3.0002   -2.8570 C   0  0  0  0  0  0  0  0  0  0  0  0
    3.2350   -1.5577   -3.0099 C   0  0  0  0  0  0  0  0  0  0  0  0
    4.5686   -1.2163   -1.8342 S   0  0  0  0  0  0  0  0  0  0  0  0
    7.5761   -1.1389    0.2249 H   0  0  0  0  0  0  0  0  0  0  0  0
    7.5801   -2.6139    1.1631 H   0  0  0  0  0  0  0  0  0  0  0  0
    5.2308   -4.3658   -2.0755 H   0  0  0  0  0  0  0  0  0  0  0  0
    4.4641   -5.5291   -0.0933 H   0  0  0  0  0  0  0  0  0  0  0  0
    6.1669   -5.3232    0.3281 H   0  0  0  0  0  0  0  0  0  0  0  0
    3.4269   -3.6865   -3.3513 H   0  0  0  0  0  0  0  0  0  0  0  0
    1.7674   -3.1399   -3.3171 H   0  0  0  0  0  0  0  0  0  0  0  0
    3.5808   -1.3437   -4.0190 H   0  0  0  0  0  0  0  0  0  0  0  0
    2.4377   -0.8621   -2.7623 H   0  0  0  0  0  0  0  0  0  0  0  0
  1  2  2  0
  2  9  1  0
  2  3  1  0
  3  4  1  0
  3 15  1  0
  3 16  1  0
  4  5  1  0
  5 10  1  0
  5  6  1  0
  5 17  1  6
  6  7  1  0
  6 18  1  0
  6 19  1  0
  7  8  2  0
  7  9  1  0
  9 10  1  0
 10 14  1  0
 10 11  1  0
 11 12  1  0
 12 13  1  0
 12 20  1  0
 12 21  1  0
 13 14  1  0
 13 22  1  0
 13 23  1  0
M  END
>  <i_m_ct_stereo_status>  (134) 
1

>  <s_m_source_file>  (134) 
/var/tmp/pbs.5076255.sched01/tmpdonsa7tf/408ubvndgu.sdf

>  <i_m_source_file_index>  (134) 
22

>  <i_lp_mmshare_version>  (134) 
48012

>  <i_f3d_flags>  (134) 
0

>  <s_epik_input>  (134) 
W0NIMl0xQyg9TylOMkMoPU8pW0NIMl1TW0NAQEhdMUMyM1NbQ0gyXVtDSDJdUzM=

>  <s_epik_cmdline>  (134) 
J2VwaWtfcHl0aG9uJywgJy1waHQnLCAnMi4wJywgJy1waCcsICc3LjAnLCAnLXRuJywgJzgnLCAnLW1hJywgJzIwMCcsICctaW1hZScsICc8aW5maWxlLm1hZT4nLCAnLW9tYWUnLCAnPG91dGZpbGUubWFlPic=

>  <r_lp_tautomer_probability>  (134) 
1

>  <r_epik_Ionization_Penalty>  (134) 
1.97337e-15

>  <r_epik_Ionization_Penalty_Charging>  (134) 
0

>  <r_epik_Ionization_Penalty_Neutral>  (134) 
1.97337e-15

>  <r_epik_State_Penalty>  (134) 
-0

>  <r_epik_Charging_Adjusted_Penalty>  (134) 
0

>  <i_epik_Tot_Q>  (134) 
0

>  <i_epik_Tot_abs_Q>  (134) 
0

>  <s_lp_Force_Field>  (134) 
OPLS3e

>  <r_lp_Energy>  (134) 
28.2337

>  <b_lp_Chiralities_Consistent>  (134) 
1

>  <s_lp_Variant>  (134) 
46:0-1

>  <s_i_glide_gridfile>  (134) 
pfpi4k_grid

>  <i_i_glide_lignum>  (134) 
22

>  <i_i_glide_rotatable_bonds>  (134) 
0

>  <r_i_docking_score>  (134) 
-3.52184

>  <r_i_glide_ligand_efficiency>  (134) 
-0.25156

>  <r_i_glide_ligand_efficiency_sa>  (134) 
-0.606296

>  <r_i_glide_ligand_efficiency_ln>  (134) 
-0.967789

>  <r_i_glide_gscore>  (134) 
-3.52184

>  <r_i_glide_lipo>  (134) 
-0.227717

>  <r_i_glide_hbond>  (134) 
0

>  <r_i_glide_metal>  (134) 
-0

>  <r_i_glide_rewards>  (134) 
-1.91449

>  <r_i_glide_evdw>  (134) 
-25.9062

>  <r_i_glide_ecoul>  (134) 
-0.56214

>  <r_i_glide_erotb>  (134) 
0

>  <r_i_glide_esite>  (134) 
0

>  <r_i_glide_emodel>  (134) 
-33.0039

>  <r_i_glide_energy>  (134) 
-26.4684

>  <r_i_glide_einternal>  (134) 
0

>  <r_i_glide_intrahb_reward>  (134) 
-0

>  <i_i_glide_confnum>  (134) 
2

>  <i_i_glide_posenum>  (134) 
25

>  <r_i_glide_eff_state_penalty>  (134) 
0

>  <ligand_id>  (134) 
46

>  <original_smiles>  (134) 
O=C1CSC2CC(=O)N1C21SCCS1

>  <smiles>  (134) 
[H]C1([H])SC2([H])C([H])([H])C(=O)N(C1=O)C21SC([H])([H])C([H])([H])S1

$$$$
46:0:2
     RDKit          3D

 23 25  0  0  1  0  0  0  0  0999 V2000
    3.0452   -1.3521    1.0879 O   0  0  0  0  0  0  0  0  0  0  0  0
    3.8770   -2.1358    0.6279 C   0  0  0  0  0  0  0  0  0  0  0  0
    5.2671   -2.2363    1.2992 C   0  0  0  0  0  0  0  0  0  0  0  0
    6.6599   -2.8025    0.2317 S   0  0  0  0  0  0  0  0  0  0  0  0
    5.7605   -3.6200   -1.1378 C   0  0  1  0  0  0  0  0  0  0  0  0
    5.0373   -4.8556   -0.6113 C   0  0  0  0  0  0  0  0  0  0  0  0
    3.7190   -4.2373   -0.1454 C   0  0  0  0  0  0  0  0  0  0  0  0
    2.9117   -4.8691    0.5180 O   0  0  0  0  0  0  0  0  0  0  0  0
    3.6537   -2.9196   -0.4534 N   0  0  0  0  0  0  0  0  0  0  0  0
    4.5777   -2.7369   -1.5974 C   0  0  0  0  0  0  0  0  0  0  0  0
    3.8216   -3.3502   -3.1423 S   0  0  0  0  0  0  0  0  0  0  0  0
    3.5379   -1.7497   -3.9416 C   0  0  0  0  0  0  0  0  0  0  0  0
    3.5948   -0.6518   -2.9028 C   0  0  0  0  0  0  0  0  0  0  0  0
    5.0346   -0.9976   -1.8880 S   0  0  0  0  0  0  0  0  0  0  0  0
    5.5215   -1.2570    1.7078 H   0  0  0  0  0  0  0  0  0  0  0  0
    5.2056   -2.9150    2.1490 H   0  0  0  0  0  0  0  0  0  0  0  0
    6.4261   -3.8485   -1.9692 H   0  0  0  0  0  0  0  0  0  0  0  0
    4.8394   -5.5794   -1.4023 H   0  0  0  0  0  0  0  0  0  0  0  0
    5.5694   -5.3734    0.1881 H   0  0  0  0  0  0  0  0  0  0  0  0
    4.3342   -1.5862   -4.6666 H   0  0  0  0  0  0  0  0  0  0  0  0
    2.5849   -1.7529   -4.4588 H   0  0  0  0  0  0  0  0  0  0  0  0
    3.6967    0.3390   -3.3365 H   0  0  0  0  0  0  0  0  0  0  0  0
    2.7040   -0.6611   -2.2733 H   0  0  0  0  0  0  0  0  0  0  0  0
  1  2  2  0
  2  9  1  0
  2  3  1  0
  3  4  1  0
  3 15  1  0
  3 16  1  0
  4  5  1  0
  5 10  1  0
  5  6  1  0
  5 17  1  6
  6  7  1  0
  6 18  1  0
  6 19  1  0
  7  8  2  0
  7  9  1  0
  9 10  1  0
 10 14  1  0
 10 11  1  0
 11 12  1  0
 12 13  1  0
 12 20  1  0
 12 21  1  0
 13 14  1  0
 13 22  1  0
 13 23  1  0
M  END
>  <i_m_ct_stereo_status>  (135) 
1

>  <s_m_source_file>  (135) 
/var/tmp/pbs.5076255.sched01/tmpdonsa7tf/408ubvndgu.sdf

>  <i_m_source_file_index>  (135) 
22

>  <i_lp_mmshare_version>  (135) 
48012

>  <i_f3d_flags>  (135) 
0

>  <s_epik_input>  (135) 
W0NIMl0xQyg9TylOMkMoPU8pW0NIMl1TW0NAQEhdMUMyM1NbQ0gyXVtDSDJdUzM=

>  <s_epik_cmdline>  (135) 
J2VwaWtfcHl0aG9uJywgJy1waHQnLCAnMi4wJywgJy1waCcsICc3LjAnLCAnLXRuJywgJzgnLCAnLW1hJywgJzIwMCcsICctaW1hZScsICc8aW5maWxlLm1hZT4nLCAnLW9tYWUnLCAnPG91dGZpbGUubWFlPic=

>  <r_lp_tautomer_probability>  (135) 
1

>  <r_epik_Ionization_Penalty>  (135) 
1.97337e-15

>  <r_epik_Ionization_Penalty_Charging>  (135) 
0

>  <r_epik_Ionization_Penalty_Neutral>  (135) 
1.97337e-15

>  <r_epik_State_Penalty>  (135) 
-0

>  <r_epik_Charging_Adjusted_Penalty>  (135) 
0

>  <i_epik_Tot_Q>  (135) 
0

>  <i_epik_Tot_abs_Q>  (135) 
0

>  <s_lp_Force_Field>  (135) 
OPLS3e

>  <r_lp_Energy>  (135) 
28.2337

>  <b_lp_Chiralities_Consistent>  (135) 
1

>  <s_lp_Variant>  (135) 
46:0-1

>  <s_i_glide_gridfile>  (135) 
pfpi4k_grid

>  <i_i_glide_lignum>  (135) 
22

>  <i_i_glide_rotatable_bonds>  (135) 
0

>  <r_i_docking_score>  (135) 
-3.28857

>  <r_i_glide_ligand_efficiency>  (135) 
-0.234898

>  <r_i_glide_ligand_efficiency_sa>  (135) 
-0.566137

>  <r_i_glide_ligand_efficiency_ln>  (135) 
-0.903687

>  <r_i_glide_gscore>  (135) 
-3.28857

>  <r_i_glide_lipo>  (135) 
-0.389174

>  <r_i_glide_hbond>  (135) 
0

>  <r_i_glide_metal>  (135) 
-0

>  <r_i_glide_rewards>  (135) 
-1.72254

>  <r_i_glide_evdw>  (135) 
-23.5021

>  <r_i_glide_ecoul>  (135) 
0.305437

>  <r_i_glide_erotb>  (135) 
0

>  <r_i_glide_esite>  (135) 
-0.0475641

>  <r_i_glide_emodel>  (135) 
-29.3713

>  <r_i_glide_energy>  (135) 
-23.1967

>  <r_i_glide_einternal>  (135) 
0

>  <r_i_glide_intrahb_reward>  (135) 
-0

>  <i_i_glide_confnum>  (135) 
4

>  <i_i_glide_posenum>  (135) 
3

>  <r_i_glide_eff_state_penalty>  (135) 
0

>  <ligand_id>  (135) 
46

>  <original_smiles>  (135) 
O=C1CSC2CC(=O)N1C21SCCS1

>  <smiles>  (135) 
[H]C1([H])SC2([H])C([H])([H])C(=O)N(C1=O)C21SC([H])([H])C([H])([H])S1

$$$$
47:0:0
     RDKit          3D

 47 51  0  0  1  0  0  0  0  0999 V2000
   -2.5970   -4.6552    7.2979 C   0  0  0  0  0  0  0  0  0  0  0  0
   -1.4012   -4.4197    8.0191 O   0  0  0  0  0  0  0  0  0  0  0  0
   -0.3708   -3.8905    7.2784 C   0  0  0  0  0  0  0  0  0  0  0  0
   -0.5224   -2.8641    6.4198 C   0  0  0  0  0  0  0  0  0  0  0  0
    0.5683   -2.2954    5.5393 C   0  0  2  0  0  0  0  0  0  0  0  0
    1.9727   -2.6403    6.1446 C   0  0  2  0  0  0  0  0  0  0  0  0
    3.1004   -2.0810    5.2645 C   0  0  0  0  0  0  0  0  0  0  0  0
    2.8914   -1.0662    4.4230 C   0  0  0  0  0  0  0  0  0  0  0  0
    1.6139   -0.4317    4.2893 C   0  0  0  0  0  0  0  0  0  0  0  0
    1.5899    0.3764    3.2184 C   0  0  0  0  0  0  0  0  0  0  0  0
    0.3634    0.9588    2.7492 C   0  0  0  0  0  0  0  0  0  0  0  0
   -0.8169    0.6339    3.3207 C   0  0  0  0  0  0  0  0  0  0  0  0
   -0.8901   -0.3230    4.4646 C   0  0  0  0  0  0  0  0  0  0  0  0
   -1.9654   -0.7048    4.8895 O   0  0  0  0  0  0  0  0  0  0  0  0
    0.4252   -0.7695    5.1825 C   0  0  1  0  0  0  0  0  0  0  0  0
    0.5363   -0.0492    6.3933 O   0  0  0  0  0  0  0  0  0  0  0  0
    2.9148    0.3662    2.5357 C   0  0  1  0  0  0  0  0  0  0  0  0
    3.7861   -0.5612    3.3559 C   0  0  2  0  0  0  0  0  0  0  0  0
    3.5560   -0.8488    1.8815 C   0  0  0  0  0  0  0  0  0  0  0  0
    2.6916   -2.0132    1.4802 C   0  0  0  0  0  0  0  0  0  0  0  0
    4.6976   -0.6573    0.9043 C   0  0  0  0  0  0  0  0  0  0  0  0
    2.0779   -4.1638    6.4476 C   0  0  1  0  0  0  0  0  0  0  0  0
    3.4453   -4.6079    7.0227 C   0  0  0  0  0  0  0  0  0  0  0  0
    0.9291   -4.5913    7.3897 C   0  0  0  0  0  0  0  0  0  0  0  0
    1.0967   -5.5241    8.1618 O   0  0  0  0  0  0  0  0  0  0  0  0
   -3.3595   -5.0545    7.9688 H   0  0  0  0  0  0  0  0  0  0  0  0
   -2.4146   -5.4049    6.5224 H   0  0  0  0  0  0  0  0  0  0  0  0
   -3.0093   -3.7752    6.8301 H   0  0  0  0  0  0  0  0  0  0  0  0
   -1.4774   -2.3935    6.3435 H   0  0  0  0  0  0  0  0  0  0  0  0
    0.4653   -2.8398    4.5960 H   0  0  0  0  0  0  0  0  0  0  0  0
    2.0727   -2.1162    7.0980 H   0  0  0  0  0  0  0  0  0  0  0  0
    4.0690   -2.5581    5.3128 H   0  0  0  0  0  0  0  0  0  0  0  0
    0.3700    1.6372    1.9096 H   0  0  0  0  0  0  0  0  0  0  0  0
   -1.7512    1.0315    2.9555 H   0  0  0  0  0  0  0  0  0  0  0  0
    0.6463    0.8646    6.1620 H   0  0  0  0  0  0  0  0  0  0  0  0
    3.2956    1.3522    2.3171 H   0  0  0  0  0  0  0  0  0  0  0  0
    4.7385   -0.1924    3.7025 H   0  0  0  0  0  0  0  0  0  0  0  0
    3.2620   -2.9433    1.4776 H   0  0  0  0  0  0  0  0  0  0  0  0
    2.2587   -1.8485    0.4931 H   0  0  0  0  0  0  0  0  0  0  0  0
    1.8506   -2.1460    2.1781 H   0  0  0  0  0  0  0  0  0  0  0  0
    5.3076   -1.5545    0.8680 H   0  0  0  0  0  0  0  0  0  0  0  0
    5.3231    0.1690    1.2017 H   0  0  0  0  0  0  0  0  0  0  0  0
    4.3017   -0.4552   -0.0865 H   0  0  0  0  0  0  0  0  0  0  0  0
    1.9272   -4.7181    5.5194 H   0  0  0  0  0  0  0  0  0  0  0  0
    3.4576   -5.6757    7.2419 H   0  0  0  0  0  0  0  0  0  0  0  0
    3.6744   -4.0814    7.9495 H   0  0  0  0  0  0  0  0  0  0  0  0
    4.2621   -4.4409    6.3236 H   0  0  0  0  0  0  0  0  0  0  0  0
  1  2  1  0
  1 26  1  0
  1 27  1  0
  1 28  1  0
  2  3  1  0
  3 24  1  0
  3  4  2  0
  4  5  1  0
  4 29  1  0
  5 15  1  0
  5  6  1  0
  5 30  1  6
  6  7  1  0
  6 22  1  0
  6 31  1  1
  7  8  2  0
  7 32  1  0
  8 18  1  0
  8  9  1  0
  9 15  1  0
  9 10  2  0
 10 11  1  0
 10 17  1  0
 11 12  2  0
 11 33  1  0
 12 13  1  0
 12 34  1  0
 13 14  2  0
 13 15  1  0
 15 16  1  1
 16 35  1  0
 17 19  1  0
 17 18  1  0
 17 36  1  6
 18 19  1  0
 18 37  1  1
 19 20  1  0
 19 21  1  0
 20 38  1  0
 20 39  1  0
 20 40  1  0
 21 41  1  0
 21 42  1  0
 21 43  1  0
 22 23  1  0
 22 24  1  0
 22 44  1  6
 23 45  1  0
 23 46  1  0
 23 47  1  0
 24 25  2  0
M  END
>  <i_m_ct_stereo_status>  (136) 
1

>  <s_m_source_file>  (136) 
/var/tmp/pbs.5076255.sched01/tmpdonsa7tf/408ubvndgu.sdf

>  <i_m_source_file_index>  (136) 
23

>  <i_lp_mmshare_version>  (136) 
48012

>  <i_f3d_flags>  (136) 
0

>  <s_epik_input>  (136) 
W0NIM11PQyg9W0NIXTEpQyg9TylbQ0BIXShbQ0gzXSlbQ0BIXShbQ0BASF0xW0NAQF0yM1tPSF0pW0NIXT1DNEMyPUMoW0NIXT1bQ0hdQzM9TylbQ0BIXTVbQ0BASF00QzUoW0NIM10pW0NIM10=

>  <s_epik_cmdline>  (136) 
J2VwaWtfcHl0aG9uJywgJy1waHQnLCAnMi4wJywgJy1waCcsICc3LjAnLCAnLXRuJywgJzgnLCAnLW1hJywgJzIwMCcsICctaW1hZScsICc8aW5maWxlLm1hZT4nLCAnLW9tYWUnLCAnPG91dGZpbGUubWFlPic=

>  <r_epik_Ionization_Penalty>  (136) 
0.000745173

>  <r_epik_Ionization_Penalty_Charging>  (136) 
0

>  <r_epik_Ionization_Penalty_Neutral>  (136) 
0.000745173

>  <r_epik_State_Penalty>  (136) 
0.000476226

>  <r_epik_Charging_Adjusted_Penalty>  (136) 
0.000476226

>  <i_epik_Tot_Q>  (136) 
0

>  <i_epik_Tot_abs_Q>  (136) 
0

>  <s_lp_Force_Field>  (136) 
OPLS3e

>  <r_lp_Energy>  (136) 
53.561

>  <b_lp_Chiralities_Consistent>  (136) 
1

>  <s_lp_Variant>  (136) 
47:0-1

>  <s_i_glide_gridfile>  (136) 
pfpi4k_grid

>  <i_i_glide_lignum>  (136) 
23

>  <i_i_glide_rotatable_bonds>  (136) 
2

>  <r_i_docking_score>  (136) 
-2.92085

>  <r_i_glide_ligand_efficiency>  (136) 
-0.116834

>  <r_i_glide_ligand_efficiency_sa>  (136) 
-0.341625

>  <r_i_glide_ligand_efficiency_ln>  (136) 
-0.692329

>  <r_i_glide_gscore>  (136) 
-2.92085

>  <r_i_glide_lipo>  (136) 
-0.167863

>  <r_i_glide_hbond>  (136) 
0

>  <r_i_glide_metal>  (136) 
-0

>  <r_i_glide_rewards>  (136) 
-1.10184

>  <r_i_glide_evdw>  (136) 
-21.2549

>  <r_i_glide_ecoul>  (136) 
-3.73769

>  <r_i_glide_erotb>  (136) 
0

>  <r_i_glide_esite>  (136) 
-0.0277478

>  <r_i_glide_emodel>  (136) 
-28.4365

>  <r_i_glide_energy>  (136) 
-24.9926

>  <r_i_glide_einternal>  (136) 
1.70414

>  <r_i_glide_intrahb_reward>  (136) 
-0

>  <i_i_glide_confnum>  (136) 
1

>  <i_i_glide_posenum>  (136) 
22

>  <r_i_glide_eff_state_penalty>  (136) 
0

>  <ligand_id>  (136) 
47

>  <original_smiles>  (136) 
COC1=CC2C(C=C3C4=C(C=CC(=O)C42O)C2C3C2(C)C)C(C)C1=O

>  <smiles>  (136) 
[H]OC12C(=O)C([H])=C([H])C3=C1C(=C([H])C1([H])C([H])(C([H])([H])[H])C(=O)C(OC([H])([H])[H])=C([H])C21[H])C1([H])C3([H])C1(C([H])([H])[H])C([H])([H])[H]

$$$$
47:0:1
     RDKit          3D

 47 51  0  0  1  0  0  0  0  0999 V2000
   -2.5975   -4.6744    7.2948 C   0  0  0  0  0  0  0  0  0  0  0  0
   -1.3991   -4.4337    8.0139 O   0  0  0  0  0  0  0  0  0  0  0  0
   -0.3698   -3.9011    7.2732 C   0  0  0  0  0  0  0  0  0  0  0  0
   -0.5209   -2.8728    6.4166 C   0  0  0  0  0  0  0  0  0  0  0  0
    0.5689   -2.3004    5.5365 C   0  0  2  0  0  0  0  0  0  0  0  0
    1.9736   -2.6460    6.1422 C   0  0  2  0  0  0  0  0  0  0  0  0
    3.1010   -2.0835    5.2636 C   0  0  0  0  0  0  0  0  0  0  0  0
    2.8902   -1.0667    4.4240 C   0  0  0  0  0  0  0  0  0  0  0  0
    1.6116   -0.4308    4.2916 C   0  0  0  0  0  0  0  0  0  0  0  0
    1.5888    0.3748    3.2205 C   0  0  0  0  0  0  0  0  0  0  0  0
    0.3601    0.9548    2.7511 C   0  0  0  0  0  0  0  0  0  0  0  0
   -0.8189    0.6282    3.3204 C   0  0  0  0  0  0  0  0  0  0  0  0
   -0.8942   -0.3278    4.4667 C   0  0  0  0  0  0  0  0  0  0  0  0
   -1.9678   -0.7191    4.8836 O   0  0  0  0  0  0  0  0  0  0  0  0
    0.4242   -0.7750    5.1852 C   0  0  1  0  0  0  0  0  0  0  0  0
    0.5229   -0.0607    6.3999 O   0  0  0  0  0  0  0  0  0  0  0  0
    2.9116    0.3644    2.5367 C   0  0  1  0  0  0  0  0  0  0  0  0
    3.7839   -0.5628    3.3553 C   0  0  2  0  0  0  0  0  0  0  0  0
    3.5554   -0.8489    1.8796 C   0  0  0  0  0  0  0  0  0  0  0  0
    2.6915   -2.0146    1.4788 C   0  0  0  0  0  0  0  0  0  0  0  0
    4.6957   -0.6553    0.9035 C   0  0  0  0  0  0  0  0  0  0  0  0
    2.0794   -4.1703    6.4420 C   0  0  1  0  0  0  0  0  0  0  0  0
    3.4471   -4.6135    7.0169 C   0  0  0  0  0  0  0  0  0  0  0  0
    0.9305   -4.6003    7.3836 C   0  0  0  0  0  0  0  0  0  0  0  0
    1.1003   -5.5326    8.1562 O   0  0  0  0  0  0  0  0  0  0  0  0
   -3.3625   -5.0518    7.9680 H   0  0  0  0  0  0  0  0  0  0  0  0
   -2.4212   -5.4100    6.5118 H   0  0  0  0  0  0  0  0  0  0  0  0
   -3.0077   -3.7812    6.8369 H   0  0  0  0  0  0  0  0  0  0  0  0
   -1.4752   -2.4006    6.3411 H   0  0  0  0  0  0  0  0  0  0  0  0
    0.4668   -2.8453    4.5931 H   0  0  0  0  0  0  0  0  0  0  0  0
    2.0757   -2.1301    7.0989 H   0  0  0  0  0  0  0  0  0  0  0  0
    4.0694   -2.5613    5.3088 H   0  0  0  0  0  0  0  0  0  0  0  0
    0.3672    1.6356    1.9118 H   0  0  0  0  0  0  0  0  0  0  0  0
   -1.7542    1.0280    2.9590 H   0  0  0  0  0  0  0  0  0  0  0  0
    1.3886   -0.2180    6.7594 H   0  0  0  0  0  0  0  0  0  0  0  0
    3.2925    1.3511    2.3186 H   0  0  0  0  0  0  0  0  0  0  0  0
    4.7368   -0.1936    3.7013 H   0  0  0  0  0  0  0  0  0  0  0  0
    3.2634   -2.9439    1.4766 H   0  0  0  0  0  0  0  0  0  0  0  0
    2.2587   -1.8541    0.4905 H   0  0  0  0  0  0  0  0  0  0  0  0
    1.8509   -2.1473    2.1758 H   0  0  0  0  0  0  0  0  0  0  0  0
    5.3070   -1.5520    0.8658 H   0  0  0  0  0  0  0  0  0  0  0  0
    5.3211    0.1712    1.2014 H   0  0  0  0  0  0  0  0  0  0  0  0
    4.3001   -0.4522   -0.0876 H   0  0  0  0  0  0  0  0  0  0  0  0
    1.9296   -4.7237    5.5133 H   0  0  0  0  0  0  0  0  0  0  0  0
    3.4606   -5.6820    7.2352 H   0  0  0  0  0  0  0  0  0  0  0  0
    3.6764   -4.0884    7.9448 H   0  0  0  0  0  0  0  0  0  0  0  0
    4.2642   -4.4455    6.3182 H   0  0  0  0  0  0  0  0  0  0  0  0
  1  2  1  0
  1 26  1  0
  1 27  1  0
  1 28  1  0
  2  3  1  0
  3 24  1  0
  3  4  2  0
  4  5  1  0
  4 29  1  0
  5 15  1  0
  5  6  1  0
  5 30  1  6
  6  7  1  0
  6 22  1  0
  6 31  1  1
  7  8  2  0
  7 32  1  0
  8 18  1  0
  8  9  1  0
  9 15  1  0
  9 10  2  0
 10 11  1  0
 10 17  1  0
 11 12  2  0
 11 33  1  0
 12 13  1  0
 12 34  1  0
 13 14  2  0
 13 15  1  0
 15 16  1  1
 16 35  1  0
 17 19  1  0
 17 18  1  0
 17 36  1  6
 18 19  1  0
 18 37  1  1
 19 20  1  0
 19 21  1  0
 20 38  1  0
 20 39  1  0
 20 40  1  0
 21 41  1  0
 21 42  1  0
 21 43  1  0
 22 23  1  0
 22 24  1  0
 22 44  1  6
 23 45  1  0
 23 46  1  0
 23 47  1  0
 24 25  2  0
M  END
>  <i_m_ct_stereo_status>  (137) 
1

>  <s_m_source_file>  (137) 
/var/tmp/pbs.5076255.sched01/tmpdonsa7tf/408ubvndgu.sdf

>  <i_m_source_file_index>  (137) 
23

>  <i_lp_mmshare_version>  (137) 
48012

>  <i_f3d_flags>  (137) 
0

>  <s_epik_input>  (137) 
W0NIM11PQyg9W0NIXTEpQyg9TylbQ0BIXShbQ0gzXSlbQ0BIXShbQ0BASF0xW0NAQF0yM1tPSF0pW0NIXT1DNEMyPUMoW0NIXT1bQ0hdQzM9TylbQ0BIXTVbQ0BASF00QzUoW0NIM10pW0NIM10=

>  <s_epik_cmdline>  (137) 
J2VwaWtfcHl0aG9uJywgJy1waHQnLCAnMi4wJywgJy1waCcsICc3LjAnLCAnLXRuJywgJzgnLCAnLW1hJywgJzIwMCcsICctaW1hZScsICc8aW5maWxlLm1hZT4nLCAnLW9tYWUnLCAnPG91dGZpbGUubWFlPic=

>  <r_epik_Ionization_Penalty>  (137) 
0.000745173

>  <r_epik_Ionization_Penalty_Charging>  (137) 
0

>  <r_epik_Ionization_Penalty_Neutral>  (137) 
0.000745173

>  <r_epik_State_Penalty>  (137) 
0.000476226

>  <r_epik_Charging_Adjusted_Penalty>  (137) 
0.000476226

>  <i_epik_Tot_Q>  (137) 
0

>  <i_epik_Tot_abs_Q>  (137) 
0

>  <s_lp_Force_Field>  (137) 
OPLS3e

>  <r_lp_Energy>  (137) 
53.561

>  <b_lp_Chiralities_Consistent>  (137) 
1

>  <s_lp_Variant>  (137) 
47:0-1

>  <s_i_glide_gridfile>  (137) 
pfpi4k_grid

>  <i_i_glide_lignum>  (137) 
23

>  <i_i_glide_rotatable_bonds>  (137) 
2

>  <r_i_docking_score>  (137) 
-2.90554

>  <r_i_glide_ligand_efficiency>  (137) 
-0.116222

>  <r_i_glide_ligand_efficiency_sa>  (137) 
-0.339834

>  <r_i_glide_ligand_efficiency_ln>  (137) 
-0.6887

>  <r_i_glide_gscore>  (137) 
-2.90554

>  <r_i_glide_lipo>  (137) 
-0.167359

>  <r_i_glide_hbond>  (137) 
0

>  <r_i_glide_metal>  (137) 
-0

>  <r_i_glide_rewards>  (137) 
-1.10184

>  <r_i_glide_evdw>  (137) 
-21.2056

>  <r_i_glide_ecoul>  (137) 
-3.65454

>  <r_i_glide_erotb>  (137) 
0

>  <r_i_glide_esite>  (137) 
-0.0278808

>  <r_i_glide_emodel>  (137) 
-29.089

>  <r_i_glide_energy>  (137) 
-24.8601

>  <r_i_glide_einternal>  (137) 
0.0563641

>  <r_i_glide_intrahb_reward>  (137) 
-0

>  <i_i_glide_confnum>  (137) 
1

>  <i_i_glide_posenum>  (137) 
1

>  <r_i_glide_eff_state_penalty>  (137) 
0

>  <ligand_id>  (137) 
47

>  <original_smiles>  (137) 
COC1=CC2C(C=C3C4=C(C=CC(=O)C42O)C2C3C2(C)C)C(C)C1=O

>  <smiles>  (137) 
[H]OC12C(=O)C([H])=C([H])C3=C1C(=C([H])C1([H])C([H])(C([H])([H])[H])C(=O)C(OC([H])([H])[H])=C([H])C21[H])C1([H])C3([H])C1(C([H])([H])[H])C([H])([H])[H]

$$$$
47:0:2
     RDKit          3D

 47 51  0  0  1  0  0  0  0  0999 V2000
    0.7584   -3.1169    6.1936 C   0  0  0  0  0  0  0  0  0  0  0  0
    0.6711   -4.4049    5.5861 O   0  0  0  0  0  0  0  0  0  0  0  0
    1.2571   -4.5670    4.3511 C   0  0  0  0  0  0  0  0  0  0  0  0
    1.9320   -3.5815    3.7174 C   0  0  0  0  0  0  0  0  0  0  0  0
    2.5828   -3.6976    2.3530 C   0  0  2  0  0  0  0  0  0  0  0  0
    2.8795   -5.2089    2.0469 C   0  0  2  0  0  0  0  0  0  0  0  0
    3.5182   -5.3505    0.6650 C   0  0  0  0  0  0  0  0  0  0  0  0
    4.1413   -4.3254    0.0655 C   0  0  0  0  0  0  0  0  0  0  0  0
    4.2911   -3.0467    0.7040 C   0  0  0  0  0  0  0  0  0  0  0  0
    4.7199   -2.1249   -0.1707 C   0  0  0  0  0  0  0  0  0  0  0  0
    4.7248   -0.7277    0.1806 C   0  0  0  0  0  0  0  0  0  0  0  0
    4.1802   -0.2893    1.3347 C   0  0  0  0  0  0  0  0  0  0  0  0
    3.6095   -1.2298    2.3130 C   0  0  0  0  0  0  0  0  0  0  0  0
    3.0322   -0.7871    3.3049 O   0  0  0  0  0  0  0  0  0  0  0  0
    3.8332   -2.7690    2.1277 C   0  0  1  0  0  0  0  0  0  0  0  0
    4.8297   -3.1896    3.0409 O   0  0  0  0  0  0  0  0  0  0  0  0
    4.9918   -2.7482   -1.4912 C   0  0  1  0  0  0  0  0  0  0  0  0
    4.6396   -4.2113   -1.3205 C   0  0  2  0  0  0  0  0  0  0  0  0
    3.9169   -3.3760   -2.3581 C   0  0  0  0  0  0  0  0  0  0  0  0
    2.4583   -3.0042   -2.1532 C   0  0  0  0  0  0  0  0  0  0  0  0
    4.2076   -3.6175   -3.8247 C   0  0  0  0  0  0  0  0  0  0  0  0
    1.6017   -6.0775    2.2680 C   0  0  1  0  0  0  0  0  0  0  0  0
    1.7890   -7.5776    1.9365 C   0  0  0  0  0  0  0  0  0  0  0  0
    1.0705   -5.8815    3.7053 C   0  0  0  0  0  0  0  0  0  0  0  0
    0.4620   -6.7941    4.2666 O   0  0  0  0  0  0  0  0  0  0  0  0
    0.2548   -3.0855    7.1548 H   0  0  0  0  0  0  0  0  0  0  0  0
    0.2892   -2.3623    5.5574 H   0  0  0  0  0  0  0  0  0  0  0  0
    1.8012   -2.8357    6.3649 H   0  0  0  0  0  0  0  0  0  0  0  0
    2.0206   -2.6270    4.2006 H   0  0  0  0  0  0  0  0  0  0  0  0
    1.8210   -3.3526    1.6514 H   0  0  0  0  0  0  0  0  0  0  0  0
    3.6374   -5.5716    2.7463 H   0  0  0  0  0  0  0  0  0  0  0  0
    3.4164   -6.2804    0.1234 H   0  0  0  0  0  0  0  0  0  0  0  0
    5.1332   -0.0075   -0.5119 H   0  0  0  0  0  0  0  0  0  0  0  0
    4.1457    0.7635    1.5652 H   0  0  0  0  0  0  0  0  0  0  0  0
    4.4678   -3.0973    3.9093 H   0  0  0  0  0  0  0  0  0  0  0  0
    5.9604   -2.4976   -1.9242 H   0  0  0  0  0  0  0  0  0  0  0  0
    5.3722   -4.9610   -1.6156 H   0  0  0  0  0  0  0  0  0  0  0  0
    1.8089   -3.8176   -2.4809 H   0  0  0  0  0  0  0  0  0  0  0  0
    2.2169   -2.0913   -2.7027 H   0  0  0  0  0  0  0  0  0  0  0  0
    2.2480   -2.8137   -1.0977 H   0  0  0  0  0  0  0  0  0  0  0  0
    3.5864   -4.4202   -4.2179 H   0  0  0  0  0  0  0  0  0  0  0  0
    5.2482   -3.8946   -3.9801 H   0  0  0  0  0  0  0  0  0  0  0  0
    3.9986   -2.7199   -4.4005 H   0  0  0  0  0  0  0  0  0  0  0  0
    0.8120   -5.7109    1.6135 H   0  0  0  0  0  0  0  0  0  0  0  0
    0.8776   -8.1488    2.1257 H   0  0  0  0  0  0  0  0  0  0  0  0
    2.5860   -8.0200    2.5365 H   0  0  0  0  0  0  0  0  0  0  0  0
    2.0223   -7.7401    0.8866 H   0  0  0  0  0  0  0  0  0  0  0  0
  1  2  1  0
  1 26  1  0
  1 27  1  0
  1 28  1  0
  2  3  1  0
  3 24  1  0
  3  4  2  0
  4  5  1  0
  4 29  1  0
  5 15  1  0
  5  6  1  0
  5 30  1  6
  6  7  1  0
  6 22  1  0
  6 31  1  1
  7  8  2  0
  7 32  1  0
  8 18  1  0
  8  9  1  0
  9 15  1  0
  9 10  2  0
 10 11  1  0
 10 17  1  0
 11 12  2  0
 11 33  1  0
 12 13  1  0
 12 34  1  0
 13 14  2  0
 13 15  1  0
 15 16  1  1
 16 35  1  0
 17 19  1  0
 17 18  1  0
 17 36  1  6
 18 19  1  0
 18 37  1  6
 19 20  1  0
 19 21  1  0
 20 38  1  0
 20 39  1  0
 20 40  1  0
 21 41  1  0
 21 42  1  0
 21 43  1  0
 22 23  1  0
 22 24  1  0
 22 44  1  6
 23 45  1  0
 23 46  1  0
 23 47  1  0
 24 25  2  0
M  END
>  <i_m_ct_stereo_status>  (138) 
1

>  <s_m_source_file>  (138) 
/var/tmp/pbs.5076255.sched01/tmpdonsa7tf/408ubvndgu.sdf

>  <i_m_source_file_index>  (138) 
23

>  <i_lp_mmshare_version>  (138) 
48012

>  <i_f3d_flags>  (138) 
0

>  <s_epik_input>  (138) 
W0NIM11PQyg9W0NIXTEpQyg9TylbQ0BIXShbQ0gzXSlbQ0BIXShbQ0BASF0xW0NAQF0yM1tPSF0pW0NIXT1DNEMyPUMoW0NIXT1bQ0hdQzM9TylbQ0BIXTVbQ0BASF00QzUoW0NIM10pW0NIM10=

>  <s_epik_cmdline>  (138) 
J2VwaWtfcHl0aG9uJywgJy1waHQnLCAnMi4wJywgJy1waCcsICc3LjAnLCAnLXRuJywgJzgnLCAnLW1hJywgJzIwMCcsICctaW1hZScsICc8aW5maWxlLm1hZT4nLCAnLW9tYWUnLCAnPG91dGZpbGUubWFlPic=

>  <r_epik_Ionization_Penalty>  (138) 
0.000745173

>  <r_epik_Ionization_Penalty_Charging>  (138) 
0

>  <r_epik_Ionization_Penalty_Neutral>  (138) 
0.000745173

>  <r_epik_State_Penalty>  (138) 
0.000476226

>  <r_epik_Charging_Adjusted_Penalty>  (138) 
0.000476226

>  <i_epik_Tot_Q>  (138) 
0

>  <i_epik_Tot_abs_Q>  (138) 
0

>  <s_lp_Force_Field>  (138) 
OPLS3e

>  <r_lp_Energy>  (138) 
53.561

>  <b_lp_Chiralities_Consistent>  (138) 
1

>  <s_lp_Variant>  (138) 
47:0-1

>  <s_i_glide_gridfile>  (138) 
pfpi4k_grid

>  <i_i_glide_lignum>  (138) 
23

>  <i_i_glide_rotatable_bonds>  (138) 
2

>  <r_i_docking_score>  (138) 
-2.60756

>  <r_i_glide_ligand_efficiency>  (138) 
-0.104302

>  <r_i_glide_ligand_efficiency_sa>  (138) 
-0.304982

>  <r_i_glide_ligand_efficiency_ln>  (138) 
-0.61807

>  <r_i_glide_gscore>  (138) 
-2.60756

>  <r_i_glide_lipo>  (138) 
-0.222638

>  <r_i_glide_hbond>  (138) 
0

>  <r_i_glide_metal>  (138) 
-0

>  <r_i_glide_rewards>  (138) 
-1.10184

>  <r_i_glide_evdw>  (138) 
-23.6728

>  <r_i_glide_ecoul>  (138) 
-0.521462

>  <r_i_glide_erotb>  (138) 
0

>  <r_i_glide_esite>  (138) 
-0.0212242

>  <r_i_glide_emodel>  (138) 
-26.7418

>  <r_i_glide_energy>  (138) 
-24.1942

>  <r_i_glide_einternal>  (138) 
2.3555

>  <r_i_glide_intrahb_reward>  (138) 
-0

>  <i_i_glide_confnum>  (138) 
1

>  <i_i_glide_posenum>  (138) 
3

>  <r_i_glide_eff_state_penalty>  (138) 
0

>  <ligand_id>  (138) 
47

>  <original_smiles>  (138) 
COC1=CC2C(C=C3C4=C(C=CC(=O)C42O)C2C3C2(C)C)C(C)C1=O

>  <smiles>  (138) 
[H]OC12C(=O)C([H])=C([H])C3=C1C(=C([H])C1([H])C([H])(C([H])([H])[H])C(=O)C(OC([H])([H])[H])=C([H])C21[H])C1([H])C3([H])C1(C([H])([H])[H])C([H])([H])[H]

$$$$
48:0:0
     RDKit          3D

 80 87  0  0  1  0  0  0  0  0999 V2000
    1.7875   -1.7061    5.6388 C   0  0  0  0  0  0  0  0  0  0  0  0
    2.7658   -2.6364    6.3763 C   0  0  0  0  0  0  0  0  0  0  0  0
    4.0238   -2.9899    5.5609 C   0  0  0  0  0  0  0  0  0  0  0  0
    3.6667   -3.8796    4.4315 N   0  0  0  0  0  0  0  0  0  0  0  0
    4.7499   -4.3237    3.5093 C   0  0  1  0  0  0  0  0  0  0  0  0
    5.1359   -3.0961    2.5956 C   0  0  0  0  0  0  0  0  0  0  0  0
    4.7181   -3.1841    1.1253 C   0  0  0  0  0  0  0  0  0  0  0  0
    3.7982   -2.2607    0.5855 C   0  0  0  0  0  0  0  0  0  0  0  0
    3.4298   -2.3474   -0.7687 C   0  0  0  0  0  0  0  0  0  0  0  0
    3.9625   -3.3504   -1.5902 C   0  0  0  0  0  0  0  0  0  0  0  0
    3.5536   -3.4488   -2.8860 O   0  0  0  0  0  0  0  0  0  0  0  0
    4.8972   -4.2668   -1.0638 C   0  0  0  0  0  0  0  0  0  0  0  0
    5.2855   -4.1781    0.2841 C   0  0  0  0  0  0  0  0  0  0  0  0
    6.3004   -5.0847    0.8901 C   0  0  2  0  0  0  0  0  0  0  0  0
    6.0826   -6.5042    0.9379 O   0  0  0  0  0  0  0  0  0  0  0  0
    5.8173   -5.7627    2.1381 C   0  0  1  0  0  0  0  0  0  0  0  0
    6.7816   -5.5323    3.1446 O   0  0  0  0  0  0  0  0  0  0  0  0
    5.9425   -5.1000    4.2282 C   0  0  2  0  0  0  0  0  0  0  0  0
    5.3825   -6.4904    4.7312 C   0  0  1  0  0  0  0  0  0  0  0  0
    5.0966   -6.4519    6.1084 O   0  0  0  0  0  0  0  0  0  0  0  0
    4.1024   -6.5860    3.9236 C   0  0  2  0  0  0  0  0  0  0  0  0
    3.4974   -7.5883    2.9096 C   0  0  2  0  0  0  0  0  0  0  0  0
    4.5308   -8.6126    2.3604 C   0  0  0  0  0  0  0  0  0  0  0  0
    3.2514   -6.2598    2.0770 C   0  0  1  0  0  0  0  0  0  0  0  0
    1.9336   -5.5270    2.1542 C   0  0  0  0  0  0  0  0  0  0  0  0
    0.7824   -6.4969    2.2384 C   0  0  0  0  0  0  0  0  0  0  0  0
    0.9096   -7.4362    3.4771 C   0  0  1  0  0  0  0  0  0  0  0  0
   -0.4674   -8.1557    3.7747 C   0  0  0  0  0  0  0  0  0  0  0  0
   -0.5248   -8.7970    5.1878 C   0  0  0  0  0  0  0  0  0  0  0  0
   -1.6554   -7.1626    3.7400 C   0  0  0  0  0  0  0  0  0  0  0  0
   -0.7183   -9.2165    2.6884 C   0  0  0  0  0  0  0  0  0  0  0  0
    0.4489  -10.1917    2.5337 C   0  0  0  0  0  0  0  0  0  0  0  0
    1.8000   -9.4829    2.2920 C   0  0  0  0  0  0  0  0  0  0  0  0
    2.1849   -8.3846    3.3451 C   0  0  1  0  0  0  0  0  0  0  0  0
    2.5182   -9.0593    4.7106 C   0  0  0  0  0  0  0  0  0  0  0  0
    4.4440   -5.6254    2.7852 C   0  0  1  0  0  0  0  0  0  0  0  0
    0.9129   -1.4962    6.2580 H   0  0  0  0  0  0  0  0  0  0  0  0
    1.4309   -2.1526    4.7098 H   0  0  0  0  0  0  0  0  0  0  0  0
    2.2544   -0.7491    5.3990 H   0  0  0  0  0  0  0  0  0  0  0  0
    3.0816   -2.1414    7.2963 H   0  0  0  0  0  0  0  0  0  0  0  0
    2.2461   -3.5458    6.6904 H   0  0  0  0  0  0  0  0  0  0  0  0
    4.5046   -2.0766    5.2113 H   0  0  0  0  0  0  0  0  0  0  0  0
    4.7355   -3.4998    6.2096 H   0  0  0  0  0  0  0  0  0  0  0  0
    3.2443   -4.7093    4.8247 H   0  0  0  0  0  0  0  0  0  0  0  0
    4.7477   -2.1561    2.9948 H   0  0  0  0  0  0  0  0  0  0  0  0
    6.2110   -2.9563    2.6090 H   0  0  0  0  0  0  0  0  0  0  0  0
    3.3824   -1.4796    1.2048 H   0  0  0  0  0  0  0  0  0  0  0  0
    2.7125   -1.6475   -1.1772 H   0  0  0  0  0  0  0  0  0  0  0  0
    3.4456   -4.3664   -3.1111 H   0  0  0  0  0  0  0  0  0  0  0  0
    5.2975   -5.0448   -1.6949 H   0  0  0  0  0  0  0  0  0  0  0  0
    7.3356   -4.7814    0.7613 H   0  0  0  0  0  0  0  0  0  0  0  0
    6.5095   -4.5372    4.9708 H   0  0  0  0  0  0  0  0  0  0  0  0
    6.0836   -7.3048    4.5297 H   0  0  0  0  0  0  0  0  0  0  0  0
    4.8263   -7.3207    6.3686 H   0  0  0  0  0  0  0  0  0  0  0  0
    3.2584   -6.2623    4.5242 H   0  0  0  0  0  0  0  0  0  0  0  0
    4.3720   -8.8257    1.3020 H   0  0  0  0  0  0  0  0  0  0  0  0
    4.5129   -9.5649    2.8898 H   0  0  0  0  0  0  0  0  0  0  0  0
    5.5620   -8.2928    2.4759 H   0  0  0  0  0  0  0  0  0  0  0  0
    3.4907   -6.4790    1.0354 H   0  0  0  0  0  0  0  0  0  0  0  0
    1.8721   -4.8981    3.0382 H   0  0  0  0  0  0  0  0  0  0  0  0
    1.8226   -4.8574    1.3020 H   0  0  0  0  0  0  0  0  0  0  0  0
   -0.1005   -5.8671    2.2868 H   0  0  0  0  0  0  0  0  0  0  0  0
    0.7125   -7.0704    1.3112 H   0  0  0  0  0  0  0  0  0  0  0  0
    1.0789   -6.7805    4.3290 H   0  0  0  0  0  0  0  0  0  0  0  0
   -1.5451   -9.0354    5.4853 H   0  0  0  0  0  0  0  0  0  0  0  0
   -0.1025   -8.1481    5.9577 H   0  0  0  0  0  0  0  0  0  0  0  0
   -0.0179   -9.7553    5.2404 H   0  0  0  0  0  0  0  0  0  0  0  0
   -2.5735   -7.6262    4.0846 H   0  0  0  0  0  0  0  0  0  0  0  0
   -1.8942   -6.8476    2.7266 H   0  0  0  0  0  0  0  0  0  0  0  0
   -1.4581   -6.2815    4.3532 H   0  0  0  0  0  0  0  0  0  0  0  0
   -1.6343   -9.7699    2.9020 H   0  0  0  0  0  0  0  0  0  0  0  0
   -0.8824   -8.7308    1.7268 H   0  0  0  0  0  0  0  0  0  0  0  0
    0.5118  -10.8488    3.3988 H   0  0  0  0  0  0  0  0  0  0  0  0
    0.2138  -10.8482    1.6992 H   0  0  0  0  0  0  0  0  0  0  0  0
    2.5539  -10.2671    2.2427 H   0  0  0  0  0  0  0  0  0  0  0  0
    1.7860   -9.0341    1.2997 H   0  0  0  0  0  0  0  0  0  0  0  0
    2.0362  -10.0263    4.8283 H   0  0  0  0  0  0  0  0  0  0  0  0
    2.2225   -8.4368    5.5549 H   0  0  0  0  0  0  0  0  0  0  0  0
    3.5811   -9.2604    4.8461 H   0  0  0  0  0  0  0  0  0  0  0  0
    2.9797   -3.4006    3.8677 H   0  0  0  0  0  0  0  0  0  0  0  0
  1  2  1  0
  1 37  1  0
  1 38  1  0
  1 39  1  0
  2  3  1  0
  2 40  1  0
  2 41  1  0
  3  4  1  0
  3 42  1  0
  3 43  1  0
  5  4  1  1
  4 44  1  0
  4 80  1  0
  5 18  1  0
  5 36  1  0
  5  6  1  0
  6  7  1  0
  6 45  1  0
  6 46  1  0
  7 13  2  0
  7  8  1  0
  8  9  2  0
  8 47  1  0
  9 10  1  0
  9 48  1  0
 10 11  1  0
 10 12  2  0
 11 49  1  0
 12 13  1  0
 12 50  1  0
 13 14  1  0
 14 16  1  0
 14 15  1  0
 14 51  1  1
 16 15  1  6
 36 16  1  6
 16 17  1  0
 17 18  1  0
 18 19  1  0
 18 52  1  1
 19 20  1  0
 19 21  1  0
 19 53  1  1
 20 54  1  0
 21 36  1  0
 21 22  1  0
 21 55  1  1
 22 34  1  0
 22 23  1  6
 22 24  1  0
 23 56  1  0
 23 57  1  0
 23 58  1  0
 24 25  1  0
 24 36  1  0
 24 59  1  6
 25 26  1  0
 25 60  1  0
 25 61  1  0
 26 27  1  0
 26 62  1  0
 26 63  1  0
 27 34  1  0
 27 28  1  0
 27 64  1  1
 28 29  1  0
 28 30  1  0
 28 31  1  0
 29 65  1  0
 29 66  1  0
 29 67  1  0
 30 68  1  0
 30 69  1  0
 30 70  1  0
 31 32  1  0
 31 71  1  0
 31 72  1  0
 32 33  1  0
 32 73  1  0
 32 74  1  0
 33 34  1  0
 33 75  1  0
 33 76  1  0
 34 35  1  1
 35 77  1  0
 35 78  1  0
 35 79  1  0
M  CHG  1   4   1
M  END
>  <i_m_ct_stereo_status>  (139) 
1

>  <s_m_source_file>  (139) 
/var/tmp/pbs.5076255.sched01/tmpdonsa7tf/408ubvndgu.sdf

>  <i_m_source_file_index>  (139) 
24

>  <i_lp_mmshare_version>  (139) 
48012

>  <i_f3d_flags>  (139) 
0

>  <s_epik_input>  (139) 
W2NIXTFbY0hdYyhbT0hdKVtjSF1jKFtDQEBIXTJPMyljMVtDSDJdW0NAXShbQ0BAXTQ1W0NAXTIzNikoW05IXVtDSDJdW0NIMl1bQ0gzXSlbQ0BIXShPNilbQ0BASF0oW09IXSlbQ0BASF00W0NAXTcoW0NIM10pW0NASF01W0NIMl1bQ0gyXVtDQEBIXThbQ0BAXTcoW0NIM10pW0NIMl1bQ0gyXVtDSDJdQzgoW0NIM10pW0NIM10=

>  <s_epik_cmdline>  (139) 
J2VwaWtfcHl0aG9uJywgJy1waHQnLCAnMi4wJywgJy1waCcsICc3LjAnLCAnLXRuJywgJzgnLCAnLW1hJywgJzIwMCcsICctaW1hZScsICc8aW5maWxlLm1hZT4nLCAnLW9tYWUnLCAnPG91dGZpbGUubWFlPic=

>  <r_lp_tautomer_probability>  (139) 
1

>  <r_epik_Ionization_Penalty>  (139) 
0.0106707

>  <r_epik_Ionization_Penalty_Charging>  (139) 
0.0088303

>  <r_epik_Ionization_Penalty_Neutral>  (139) 
0.00184039

>  <r_epik_State_Penalty>  (139) 
0.00667496

>  <r_epik_Charging_Adjusted_Penalty>  (139) 
0.0155053

>  <i_epik_Tot_Q>  (139) 
1

>  <i_epik_Tot_abs_Q>  (139) 
1

>  <s_lp_Force_Field>  (139) 
OPLS3e

>  <r_lp_Energy>  (139) 
142.232

>  <b_lp_Chiralities_Consistent>  (139) 
1

>  <s_lp_Variant>  (139) 
48:0-1

>  <s_i_glide_gridfile>  (139) 
pfpi4k_grid

>  <i_i_glide_lignum>  (139) 
24

>  <i_i_glide_rotatable_bonds>  (139) 
5

>  <r_i_docking_score>  (139) 
-2.82753

>  <r_i_glide_ligand_efficiency>  (139) 
-0.0785425

>  <r_i_glide_ligand_efficiency_sa>  (139) 
-0.259342

>  <r_i_glide_ligand_efficiency_ln>  (139) 
-0.616891

>  <r_i_glide_gscore>  (139) 
-2.82753

>  <r_i_glide_lipo>  (139) 
-0.539674

>  <r_i_glide_hbond>  (139) 
-0.32

>  <r_i_glide_metal>  (139) 
-0

>  <r_i_glide_rewards>  (139) 
-0.0819788

>  <r_i_glide_evdw>  (139) 
-24.4782

>  <r_i_glide_ecoul>  (139) 
-5.52354

>  <r_i_glide_erotb>  (139) 
0.166563

>  <r_i_glide_esite>  (139) 
0

>  <r_i_glide_emodel>  (139) 
-32.0378

>  <r_i_glide_energy>  (139) 
-30.0018

>  <r_i_glide_einternal>  (139) 
3.72027

>  <r_i_glide_intrahb_reward>  (139) 
-0

>  <i_i_glide_confnum>  (139) 
2

>  <i_i_glide_posenum>  (139) 
1

>  <r_i_glide_eff_state_penalty>  (139) 
0

>  <ligand_id>  (139) 
48

>  <original_smiles>  (139) 
CCCNC12Cc3ccc(O)cc3C3OC34OC1C(O)C1C3(C)C(CCC5C(C)(C)CCCC53C)C124

>  <smiles>  (139) 
[H]Oc1c([H])c([H])c2c(c1[H])C1([H])OC13OC1([H])C([H])(O[H])C4([H])C5(C([H])([H])[H])C([H])(C([H])([H])C([H])([H])C6([H])C(C([H])([H])[H])(C([H])([H])[H])C([H])([H])C([H])([H])C([H])([H])C65C([H])([H])[H])C34C1([N+]([H])([H])C([H])([H])C([H])([H])C([H])([H])[H])C2([H])[H]

$$$$
48:0:1
     RDKit          3D

 80 87  0  0  1  0  0  0  0  0999 V2000
    7.5693   -7.1530    7.9842 C   0  0  0  0  0  0  0  0  0  0  0  0
    7.1649   -8.6281    7.8448 C   0  0  0  0  0  0  0  0  0  0  0  0
    7.2631   -9.1651    6.4041 C   0  0  0  0  0  0  0  0  0  0  0  0
    6.2048   -8.5683    5.5625 N   0  0  0  0  0  0  0  0  0  0  0  0
    6.1461   -8.9461    4.1220 C   0  0  1  0  0  0  0  0  0  0  0  0
    7.3387   -8.2290    3.3785 C   0  0  0  0  0  0  0  0  0  0  0  0
    6.9371   -7.0738    2.4508 C   0  0  0  0  0  0  0  0  0  0  0  0
    7.3709   -5.7558    2.7087 C   0  0  0  0  0  0  0  0  0  0  0  0
    6.9963   -4.7097    1.8457 C   0  0  0  0  0  0  0  0  0  0  0  0
    6.1791   -4.9548    0.7310 C   0  0  0  0  0  0  0  0  0  0  0  0
    5.8567   -3.9351   -0.1100 O   0  0  0  0  0  0  0  0  0  0  0  0
    5.7319   -6.2549    0.4818 C   0  0  0  0  0  0  0  0  0  0  0  0
    6.1458   -7.3168    1.3120 C   0  0  0  0  0  0  0  0  0  0  0  0
    5.8018   -8.7347    1.0303 C   0  0  2  0  0  0  0  0  0  0  0  0
    4.4294   -9.1330    0.9259 O   0  0  0  0  0  0  0  0  0  0  0  0
    5.1064   -9.4075    2.1671 C   0  0  1  0  0  0  0  0  0  0  0  0
    5.8236  -10.6003    2.4329 O   0  0  0  0  0  0  0  0  0  0  0  0
    5.9752  -10.5085    3.8600 C   0  0  2  0  0  0  0  0  0  0  0  0
    4.5255  -10.9284    4.3440 C   0  0  1  0  0  0  0  0  0  0  0  0
    4.5754  -11.5436    5.6089 O   0  0  0  0  0  0  0  0  0  0  0  0
    3.8582   -9.5689    4.4366 C   0  0  2  0  0  0  0  0  0  0  0  0
    2.6096   -8.8998    3.8184 C   0  0  2  0  0  0  0  0  0  0  0  0
    2.0314   -9.6789    2.6012 C   0  0  0  0  0  0  0  0  0  0  0  0
    3.6475   -7.7345    3.5349 C   0  0  1  0  0  0  0  0  0  0  0  0
    3.7998   -6.5724    4.4891 C   0  0  0  0  0  0  0  0  0  0  0  0
    2.4682   -6.1626    5.0689 C   0  0  0  0  0  0  0  0  0  0  0  0
    1.7730   -7.3480    5.8086 C   0  0  1  0  0  0  0  0  0  0  0  0
    0.5958   -6.8182    6.7184 C   0  0  0  0  0  0  0  0  0  0  0  0
    0.1201   -7.8659    7.7642 C   0  0  0  0  0  0  0  0  0  0  0  0
    1.0301   -5.5952    7.5677 C   0  0  0  0  0  0  0  0  0  0  0  0
   -0.5601   -6.3672    5.8034 C   0  0  0  0  0  0  0  0  0  0  0  0
   -0.9949   -7.4673    4.8104 C   0  0  0  0  0  0  0  0  0  0  0  0
    0.1679   -8.0174    3.9730 C   0  0  0  0  0  0  0  0  0  0  0  0
    1.4058   -8.5224    4.7905 C   0  0  1  0  0  0  0  0  0  0  0  0
    1.0449   -9.8308    5.5611 C   0  0  0  0  0  0  0  0  0  0  0  0
    4.7651   -8.7689    3.5042 C   0  0  1  0  0  0  0  0  0  0  0  0
    7.4722   -6.8232    9.0189 H   0  0  0  0  0  0  0  0  0  0  0  0
    6.9380   -6.5084    7.3747 H   0  0  0  0  0  0  0  0  0  0  0  0
    8.6064   -6.9963    7.6866 H   0  0  0  0  0  0  0  0  0  0  0  0
    7.8230   -9.2273    8.4742 H   0  0  0  0  0  0  0  0  0  0  0  0
    6.1582   -8.7811    8.2412 H   0  0  0  0  0  0  0  0  0  0  0  0
    8.2568   -8.9597    6.0023 H   0  0  0  0  0  0  0  0  0  0  0  0
    7.1427  -10.2496    6.4169 H   0  0  0  0  0  0  0  0  0  0  0  0
    5.3175   -8.8148    5.9764 H   0  0  0  0  0  0  0  0  0  0  0  0
    8.0784   -7.8428    4.0804 H   0  0  0  0  0  0  0  0  0  0  0  0
    7.8923   -8.9606    2.7859 H   0  0  0  0  0  0  0  0  0  0  0  0
    7.9978   -5.5503    3.5648 H   0  0  0  0  0  0  0  0  0  0  0  0
    7.3355   -3.7044    2.0307 H   0  0  0  0  0  0  0  0  0  0  0  0
    5.2840   -4.1925   -0.8137 H   0  0  0  0  0  0  0  0  0  0  0  0
    5.1294   -6.4539   -0.3919 H   0  0  0  0  0  0  0  0  0  0  0  0
    6.5034   -9.2928    0.4112 H   0  0  0  0  0  0  0  0  0  0  0  0
    6.7911  -11.1437    4.2114 H   0  0  0  0  0  0  0  0  0  0  0  0
    4.0432  -11.6003    3.6297 H   0  0  0  0  0  0  0  0  0  0  0  0
    3.7094  -11.8749    5.8133 H   0  0  0  0  0  0  0  0  0  0  0  0
    3.8742   -9.2102    5.4609 H   0  0  0  0  0  0  0  0  0  0  0  0
    1.6749   -9.0119    1.8153 H   0  0  0  0  0  0  0  0  0  0  0  0
    1.2079  -10.3397    2.8663 H   0  0  0  0  0  0  0  0  0  0  0  0
    2.7421  -10.3588    2.1430 H   0  0  0  0  0  0  0  0  0  0  0  0
    3.4424   -7.3623    2.5335 H   0  0  0  0  0  0  0  0  0  0  0  0
    4.4335   -6.8296    5.3323 H   0  0  0  0  0  0  0  0  0  0  0  0
    4.2841   -5.7291    3.9938 H   0  0  0  0  0  0  0  0  0  0  0  0
    2.7020   -5.3288    5.7312 H   0  0  0  0  0  0  0  0  0  0  0  0
    1.8363   -5.7689    4.2709 H   0  0  0  0  0  0  0  0  0  0  0  0
    2.5191   -7.7420    6.4974 H   0  0  0  0  0  0  0  0  0  0  0  0
   -0.4674   -7.3995    8.5552 H   0  0  0  0  0  0  0  0  0  0  0  0
    0.9540   -8.3826    8.2433 H   0  0  0  0  0  0  0  0  0  0  0  0
   -0.5337   -8.6290    7.3506 H   0  0  0  0  0  0  0  0  0  0  0  0
    0.2873   -5.3397    8.3216 H   0  0  0  0  0  0  0  0  0  0  0  0
    1.1344   -4.6928    6.9674 H   0  0  0  0  0  0  0  0  0  0  0  0
    1.9759   -5.7689    8.0829 H   0  0  0  0  0  0  0  0  0  0  0  0
   -1.3852   -5.9805    6.4003 H   0  0  0  0  0  0  0  0  0  0  0  0
   -0.2441   -5.5037    5.2186 H   0  0  0  0  0  0  0  0  0  0  0  0
   -1.4702   -8.3304    5.2733 H   0  0  0  0  0  0  0  0  0  0  0  0
   -1.7666   -7.0595    4.1601 H   0  0  0  0  0  0  0  0  0  0  0  0
   -0.2641   -8.8201    3.3737 H   0  0  0  0  0  0  0  0  0  0  0  0
    0.4799   -7.2416    3.2764 H   0  0  0  0  0  0  0  0  0  0  0  0
   -0.0177   -9.9209    5.7702 H   0  0  0  0  0  0  0  0  0  0  0  0
    1.5750   -9.9048    6.5117 H   0  0  0  0  0  0  0  0  0  0  0  0
    1.2942  -10.7431    5.0161 H   0  0  0  0  0  0  0  0  0  0  0  0
    6.3153   -7.5669    5.5972 H   0  0  0  0  0  0  0  0  0  0  0  0
  1  2  1  0
  1 37  1  0
  1 38  1  0
  1 39  1  0
  2  3  1  0
  2 40  1  0
  2 41  1  0
  3  4  1  0
  3 42  1  0
  3 43  1  0
  5  4  1  1
  4 44  1  0
  4 80  1  0
  5 18  1  0
  5 36  1  0
  5  6  1  0
  6  7  1  0
  6 45  1  0
  6 46  1  0
  7 13  2  0
  7  8  1  0
  8  9  2  0
  8 47  1  0
  9 10  1  0
  9 48  1  0
 10 11  1  0
 10 12  2  0
 11 49  1  0
 12 13  1  0
 12 50  1  0
 13 14  1  0
 14 16  1  0
 14 15  1  0
 14 51  1  6
 16 15  1  6
 36 16  1  6
 16 17  1  0
 17 18  1  0
 18 19  1  0
 18 52  1  1
 19 20  1  0
 19 21  1  0
 19 53  1  6
 20 54  1  0
 21 36  1  0
 21 22  1  0
 21 55  1  1
 22 34  1  0
 22 23  1  6
 22 24  1  0
 23 56  1  0
 23 57  1  0
 23 58  1  0
 24 25  1  0
 24 36  1  0
 24 59  1  6
 25 26  1  0
 25 60  1  0
 25 61  1  0
 26 27  1  0
 26 62  1  0
 26 63  1  0
 27 34  1  0
 27 28  1  0
 27 64  1  1
 28 29  1  0
 28 30  1  0
 28 31  1  0
 29 65  1  0
 29 66  1  0
 29 67  1  0
 30 68  1  0
 30 69  1  0
 30 70  1  0
 31 32  1  0
 31 71  1  0
 31 72  1  0
 32 33  1  0
 32 73  1  0
 32 74  1  0
 33 34  1  0
 33 75  1  0
 33 76  1  0
 34 35  1  1
 35 77  1  0
 35 78  1  0
 35 79  1  0
M  CHG  1   4   1
M  END
>  <i_m_ct_stereo_status>  (140) 
1

>  <s_m_source_file>  (140) 
/var/tmp/pbs.5076255.sched01/tmpdonsa7tf/408ubvndgu.sdf

>  <i_m_source_file_index>  (140) 
24

>  <i_lp_mmshare_version>  (140) 
48012

>  <i_f3d_flags>  (140) 
0

>  <s_epik_input>  (140) 
W2NIXTFbY0hdYyhbT0hdKVtjSF1jKFtDQEBIXTJPMyljMVtDSDJdW0NAXShbQ0BAXTQ1W0NAXTIzNikoW05IXVtDSDJdW0NIMl1bQ0gzXSlbQ0BIXShPNilbQ0BASF0oW09IXSlbQ0BASF00W0NAXTcoW0NIM10pW0NASF01W0NIMl1bQ0gyXVtDQEBIXThbQ0BAXTcoW0NIM10pW0NIMl1bQ0gyXVtDSDJdQzgoW0NIM10pW0NIM10=

>  <s_epik_cmdline>  (140) 
J2VwaWtfcHl0aG9uJywgJy1waHQnLCAnMi4wJywgJy1waCcsICc3LjAnLCAnLXRuJywgJzgnLCAnLW1hJywgJzIwMCcsICctaW1hZScsICc8aW5maWxlLm1hZT4nLCAnLW9tYWUnLCAnPG91dGZpbGUubWFlPic=

>  <r_lp_tautomer_probability>  (140) 
1

>  <r_epik_Ionization_Penalty>  (140) 
0.0106707

>  <r_epik_Ionization_Penalty_Charging>  (140) 
0.0088303

>  <r_epik_Ionization_Penalty_Neutral>  (140) 
0.00184039

>  <r_epik_State_Penalty>  (140) 
0.00667496

>  <r_epik_Charging_Adjusted_Penalty>  (140) 
0.0155053

>  <i_epik_Tot_Q>  (140) 
1

>  <i_epik_Tot_abs_Q>  (140) 
1

>  <s_lp_Force_Field>  (140) 
OPLS3e

>  <r_lp_Energy>  (140) 
142.232

>  <b_lp_Chiralities_Consistent>  (140) 
1

>  <s_lp_Variant>  (140) 
48:0-1

>  <s_i_glide_gridfile>  (140) 
pfpi4k_grid

>  <i_i_glide_lignum>  (140) 
24

>  <i_i_glide_rotatable_bonds>  (140) 
5

>  <r_i_docking_score>  (140) 
-1.60603

>  <r_i_glide_ligand_efficiency>  (140) 
-0.044612

>  <r_i_glide_ligand_efficiency_sa>  (140) 
-0.147306

>  <r_i_glide_ligand_efficiency_ln>  (140) 
-0.350393

>  <r_i_glide_gscore>  (140) 
-1.60603

>  <r_i_glide_lipo>  (140) 
-0.482554

>  <r_i_glide_hbond>  (140) 
0

>  <r_i_glide_metal>  (140) 
-0

>  <r_i_glide_rewards>  (140) 
-0.0362362

>  <r_i_glide_evdw>  (140) 
-16.4637

>  <r_i_glide_ecoul>  (140) 
-2.65009

>  <r_i_glide_erotb>  (140) 
0.166563

>  <r_i_glide_esite>  (140) 
-0.0331053

>  <r_i_glide_emodel>  (140) 
-20.1254

>  <r_i_glide_energy>  (140) 
-19.1138

>  <r_i_glide_einternal>  (140) 
2.38892

>  <r_i_glide_intrahb_reward>  (140) 
-0

>  <i_i_glide_confnum>  (140) 
4

>  <i_i_glide_posenum>  (140) 
5

>  <r_i_glide_eff_state_penalty>  (140) 
0

>  <ligand_id>  (140) 
48

>  <original_smiles>  (140) 
CCCNC12Cc3ccc(O)cc3C3OC34OC1C(O)C1C3(C)C(CCC5C(C)(C)CCCC53C)C124

>  <smiles>  (140) 
[H]Oc1c([H])c([H])c2c(c1[H])C1([H])OC13OC1([H])C([H])(O[H])C4([H])C5(C([H])([H])[H])C([H])(C([H])([H])C([H])([H])C6([H])C(C([H])([H])[H])(C([H])([H])[H])C([H])([H])C([H])([H])C([H])([H])C65C([H])([H])[H])C34C1([N+]([H])([H])C([H])([H])C([H])([H])C([H])([H])[H])C2([H])[H]

$$$$
48:0:2
     RDKit          3D

 80 87  0  0  1  0  0  0  0  0999 V2000
    2.0387  -11.0767   10.4349 C   0  0  0  0  0  0  0  0  0  0  0  0
    2.4825  -10.1500    9.3070 C   0  0  0  0  0  0  0  0  0  0  0  0
    1.2944   -9.4608    8.5918 C   0  0  0  0  0  0  0  0  0  0  0  0
    1.7721   -8.4129    7.6438 N   0  0  0  0  0  0  0  0  0  0  0  0
    2.3243   -7.1101    8.2043 C   0  0  1  0  0  0  0  0  0  0  0  0
    1.1272   -6.3151    8.8503 C   0  0  0  0  0  0  0  0  0  0  0  0
    0.6599   -5.0625    8.1087 C   0  0  0  0  0  0  0  0  0  0  0  0
   -0.6363   -5.0003    7.5646 C   0  0  0  0  0  0  0  0  0  0  0  0
   -1.0539   -3.8365    6.8947 C   0  0  0  0  0  0  0  0  0  0  0  0
   -0.1815   -2.7471    6.7474 C   0  0  0  0  0  0  0  0  0  0  0  0
   -0.5894   -1.6300    6.0873 O   0  0  0  0  0  0  0  0  0  0  0  0
    1.1209   -2.7954    7.3056 C   0  0  0  0  0  0  0  0  0  0  0  0
    1.5264   -3.9462    7.9878 C   0  0  0  0  0  0  0  0  0  0  0  0
    2.8718   -4.0499    8.6150 C   0  0  2  0  0  0  0  0  0  0  0  0
    4.0520   -3.9324    7.7976 O   0  0  0  0  0  0  0  0  0  0  0  0
    3.6271   -5.2455    8.1712 C   0  0  1  0  0  0  0  0  0  0  0  0
    4.0948   -5.9023    9.3111 O   0  0  0  0  0  0  0  0  0  0  0  0
    3.6586   -7.2426    9.0843 C   0  0  2  0  0  0  0  0  0  0  0  0
    4.8102   -7.7167    8.1035 C   0  0  1  0  0  0  0  0  0  0  0  0
    5.1237   -9.0879    8.1864 O   0  0  0  0  0  0  0  0  0  0  0  0
    4.2079   -7.3652    6.7426 C   0  0  2  0  0  0  0  0  0  0  0  0
    4.6146   -6.4622    5.5545 C   0  0  2  0  0  0  0  0  0  0  0  0
    5.7638   -5.4753    5.9127 C   0  0  0  0  0  0  0  0  0  0  0  0
    3.1209   -5.9622    5.7152 C   0  0  1  0  0  0  0  0  0  0  0  0
    2.0034   -6.5537    4.8848 C   0  0  0  0  0  0  0  0  0  0  0  0
    2.4699   -6.8457    3.4815 C   0  0  0  0  0  0  0  0  0  0  0  0
    3.6835   -7.8240    3.4686 C   0  0  1  0  0  0  0  0  0  0  0  0
    3.9089   -8.4221    2.0243 C   0  0  0  0  0  0  0  0  0  0  0  0
    4.8413   -9.6595    2.0149 C   0  0  0  0  0  0  0  0  0  0  0  0
    2.5796   -8.9151    1.3981 C   0  0  0  0  0  0  0  0  0  0  0  0
    4.4746   -7.3129    1.1170 C   0  0  0  0  0  0  0  0  0  0  0  0
    5.7311   -6.6559    1.7038 C   0  0  0  0  0  0  0  0  0  0  0  0
    5.5241   -6.1271    3.1387 C   0  0  0  0  0  0  0  0  0  0  0  0
    4.9606   -7.1658    4.1681 C   0  0  1  0  0  0  0  0  0  0  0  0
    6.0478   -8.2384    4.4762 C   0  0  0  0  0  0  0  0  0  0  0  0
    3.1740   -6.3282    7.1955 C   0  0  1  0  0  0  0  0  0  0  0  0
    2.9508  -11.4145   10.9251 H   0  0  0  0  0  0  0  0  0  0  0  0
    1.4585  -11.9583   10.1165 H   0  0  0  0  0  0  0  0  0  0  0  0
    1.4773  -10.5140   11.1913 H   0  0  0  0  0  0  0  0  0  0  0  0
    3.0990   -9.4515    9.8265 H   0  0  0  0  0  0  0  0  0  0  0  0
    3.0289  -10.7426    8.5444 H   0  0  0  0  0  0  0  0  0  0  0  0
    0.6954  -10.1698    7.9947 H   0  0  0  0  0  0  0  0  0  0  0  0
    0.5695   -9.0477    9.3043 H   0  0  0  0  0  0  0  0  0  0  0  0
    2.4563   -8.8366    7.0245 H   0  0  0  0  0  0  0  0  0  0  0  0
    0.2417   -6.9374    8.9815 H   0  0  0  0  0  0  0  0  0  0  0  0
    1.4082   -6.0385    9.8667 H   0  0  0  0  0  0  0  0  0  0  0  0
   -1.3264   -5.8216    7.6886 H   0  0  0  0  0  0  0  0  0  0  0  0
   -2.0642   -3.7951    6.5133 H   0  0  0  0  0  0  0  0  0  0  0  0
   -1.2819   -1.7806    5.4595 H   0  0  0  0  0  0  0  0  0  0  0  0
    1.7894   -1.9508    7.2042 H   0  0  0  0  0  0  0  0  0  0  0  0
    2.9462   -3.6744    9.6405 H   0  0  0  0  0  0  0  0  0  0  0  0
    3.5885   -7.7088   10.0670 H   0  0  0  0  0  0  0  0  0  0  0  0
    5.7551   -7.1980    8.2911 H   0  0  0  0  0  0  0  0  0  0  0  0
    4.3716   -9.6289    7.9937 H   0  0  0  0  0  0  0  0  0  0  0  0
    3.7777   -8.2507    6.2734 H   0  0  0  0  0  0  0  0  0  0  0  0
    5.6190   -4.4976    5.4548 H   0  0  0  0  0  0  0  0  0  0  0  0
    6.7465   -5.8329    5.6185 H   0  0  0  0  0  0  0  0  0  0  0  0
    5.8851   -5.3113    6.9742 H   0  0  0  0  0  0  0  0  0  0  0  0
    3.1260   -4.8854    5.6126 H   0  0  0  0  0  0  0  0  0  0  0  0
    1.6668   -7.4929    5.3065 H   0  0  0  0  0  0  0  0  0  0  0  0
    1.1353   -5.8888    4.8930 H   0  0  0  0  0  0  0  0  0  0  0  0
    1.5886   -7.2582    2.9908 H   0  0  0  0  0  0  0  0  0  0  0  0
    2.7119   -5.9065    2.9845 H   0  0  0  0  0  0  0  0  0  0  0  0
    3.3858   -8.6641    4.0880 H   0  0  0  0  0  0  0  0  0  0  0  0
    4.7535  -10.2218    1.0877 H   0  0  0  0  0  0  0  0  0  0  0  0
    4.6159  -10.3533    2.8233 H   0  0  0  0  0  0  0  0  0  0  0  0
    5.8917   -9.4100    2.0688 H   0  0  0  0  0  0  0  0  0  0  0  0
    2.7492   -9.4860    0.4869 H   0  0  0  0  0  0  0  0  0  0  0  0
    1.9312   -8.0935    1.0977 H   0  0  0  0  0  0  0  0  0  0  0  0
    2.0127   -9.5505    2.0801 H   0  0  0  0  0  0  0  0  0  0  0  0
    4.6804   -7.7134    0.1226 H   0  0  0  0  0  0  0  0  0  0  0  0
    3.7238   -6.5355    0.9727 H   0  0  0  0  0  0  0  0  0  0  0  0
    6.5689   -7.3510    1.6646 H   0  0  0  0  0  0  0  0  0  0  0  0
    6.0227   -5.8306    1.0552 H   0  0  0  0  0  0  0  0  0  0  0  0
    6.4888   -5.7285    3.4548 H   0  0  0  0  0  0  0  0  0  0  0  0
    4.8482   -5.2705    3.0869 H   0  0  0  0  0  0  0  0  0  0  0  0
    6.7662   -8.3501    3.6688 H   0  0  0  0  0  0  0  0  0  0  0  0
    5.6071   -9.2157    4.6611 H   0  0  0  0  0  0  0  0  0  0  0  0
    6.6494   -8.0084    5.3576 H   0  0  0  0  0  0  0  0  0  0  0  0
    0.9921   -8.1580    7.0466 H   0  0  0  0  0  0  0  0  0  0  0  0
  1  2  1  0
  1 37  1  0
  1 38  1  0
  1 39  1  0
  2  3  1  0
  2 40  1  0
  2 41  1  0
  3  4  1  0
  3 42  1  0
  3 43  1  0
  5  4  1  6
  4 44  1  0
  4 80  1  0
  5 18  1  0
  5 36  1  0
  5  6  1  0
  6  7  1  0
  6 45  1  0
  6 46  1  0
  7 13  2  0
  7  8  1  0
  8  9  2  0
  8 47  1  0
  9 10  1  0
  9 48  1  0
 10 11  1  0
 10 12  2  0
 11 49  1  0
 12 13  1  0
 12 50  1  0
 13 14  1  0
 14 16  1  0
 14 15  1  0
 14 51  1  1
 16 15  1  6
 36 16  1  1
 16 17  1  0
 17 18  1  0
 18 19  1  0
 18 52  1  1
 19 20  1  0
 19 21  1  0
 19 53  1  1
 20 54  1  0
 21 36  1  0
 21 22  1  0
 21 55  1  6
 22 34  1  0
 22 23  1  1
 22 24  1  0
 23 56  1  0
 23 57  1  0
 23 58  1  0
 24 25  1  0
 24 36  1  0
 24 59  1  1
 25 26  1  0
 25 60  1  0
 25 61  1  0
 26 27  1  0
 26 62  1  0
 26 63  1  0
 27 34  1  0
 27 28  1  0
 27 64  1  1
 28 29  1  0
 28 30  1  0
 28 31  1  0
 29 65  1  0
 29 66  1  0
 29 67  1  0
 30 68  1  0
 30 69  1  0
 30 70  1  0
 31 32  1  0
 31 71  1  0
 31 72  1  0
 32 33  1  0
 32 73  1  0
 32 74  1  0
 33 34  1  0
 33 75  1  0
 33 76  1  0
 34 35  1  1
 35 77  1  0
 35 78  1  0
 35 79  1  0
M  CHG  1   4   1
M  END
>  <i_m_ct_stereo_status>  (141) 
1

>  <s_m_source_file>  (141) 
/var/tmp/pbs.5076255.sched01/tmpdonsa7tf/408ubvndgu.sdf

>  <i_m_source_file_index>  (141) 
24

>  <i_lp_mmshare_version>  (141) 
48012

>  <i_f3d_flags>  (141) 
0

>  <s_epik_input>  (141) 
W2NIXTFbY0hdYyhbT0hdKVtjSF1jKFtDQEBIXTJPMyljMVtDSDJdW0NAXShbQ0BAXTQ1W0NAXTIzNikoW05IXVtDSDJdW0NIMl1bQ0gzXSlbQ0BIXShPNilbQ0BASF0oW09IXSlbQ0BASF00W0NAXTcoW0NIM10pW0NASF01W0NIMl1bQ0gyXVtDQEBIXThbQ0BAXTcoW0NIM10pW0NIMl1bQ0gyXVtDSDJdQzgoW0NIM10pW0NIM10=

>  <s_epik_cmdline>  (141) 
J2VwaWtfcHl0aG9uJywgJy1waHQnLCAnMi4wJywgJy1waCcsICc3LjAnLCAnLXRuJywgJzgnLCAnLW1hJywgJzIwMCcsICctaW1hZScsICc8aW5maWxlLm1hZT4nLCAnLW9tYWUnLCAnPG91dGZpbGUubWFlPic=

>  <r_lp_tautomer_probability>  (141) 
1

>  <r_epik_Ionization_Penalty>  (141) 
0.0106707

>  <r_epik_Ionization_Penalty_Charging>  (141) 
0.0088303

>  <r_epik_Ionization_Penalty_Neutral>  (141) 
0.00184039

>  <r_epik_State_Penalty>  (141) 
0.00667496

>  <r_epik_Charging_Adjusted_Penalty>  (141) 
0.0155053

>  <i_epik_Tot_Q>  (141) 
1

>  <i_epik_Tot_abs_Q>  (141) 
1

>  <s_lp_Force_Field>  (141) 
OPLS3e

>  <r_lp_Energy>  (141) 
142.232

>  <b_lp_Chiralities_Consistent>  (141) 
1

>  <s_lp_Variant>  (141) 
48:0-1

>  <s_i_glide_gridfile>  (141) 
pfpi4k_grid

>  <i_i_glide_lignum>  (141) 
24

>  <i_i_glide_rotatable_bonds>  (141) 
5

>  <r_i_docking_score>  (141) 
-1.23116

>  <r_i_glide_ligand_efficiency>  (141) 
-0.034199

>  <r_i_glide_ligand_efficiency_sa>  (141) 
-0.112923

>  <r_i_glide_ligand_efficiency_ln>  (141) 
-0.268607

>  <r_i_glide_gscore>  (141) 
-1.23116

>  <r_i_glide_lipo>  (141) 
-0.210485

>  <r_i_glide_hbond>  (141) 
0

>  <r_i_glide_metal>  (141) 
-0

>  <r_i_glide_rewards>  (141) 
-0.0362362

>  <r_i_glide_evdw>  (141) 
-16.6184

>  <r_i_glide_ecoul>  (141) 
-1.96913

>  <r_i_glide_erotb>  (141) 
0.166563

>  <r_i_glide_esite>  (141) 
-0.0247164

>  <r_i_glide_emodel>  (141) 
-17.0086

>  <r_i_glide_energy>  (141) 
-18.5876

>  <r_i_glide_einternal>  (141) 
1.79809

>  <r_i_glide_intrahb_reward>  (141) 
-0

>  <i_i_glide_confnum>  (141) 
3

>  <i_i_glide_posenum>  (141) 
2

>  <r_i_glide_eff_state_penalty>  (141) 
0

>  <ligand_id>  (141) 
48

>  <original_smiles>  (141) 
CCCNC12Cc3ccc(O)cc3C3OC34OC1C(O)C1C3(C)C(CCC5C(C)(C)CCCC53C)C124

>  <smiles>  (141) 
[H]Oc1c([H])c([H])c2c(c1[H])C1([H])OC13OC1([H])C([H])(O[H])C4([H])C5(C([H])([H])[H])C([H])(C([H])([H])C([H])([H])C6([H])C(C([H])([H])[H])(C([H])([H])[H])C([H])([H])C([H])([H])C([H])([H])C65C([H])([H])[H])C34C1([N+]([H])([H])C([H])([H])C([H])([H])C([H])([H])[H])C2([H])[H]

$$$$
48:1:0
     RDKit          3D

 79 86  0  0  1  0  0  0  0  0999 V2000
    2.0153   -1.6356    5.6560 C   0  0  0  0  0  0  0  0  0  0  0  0
    3.0064   -2.5551    6.3825 C   0  0  0  0  0  0  0  0  0  0  0  0
    4.2112   -2.9442    5.5160 C   0  0  0  0  0  0  0  0  0  0  0  0
    3.7972   -3.8817    4.4732 N   0  0  0  0  0  0  0  0  0  0  0  0
    4.8251   -4.3400    3.5151 C   0  0  1  0  0  0  0  0  0  0  0  0
    5.2013   -3.1091    2.5940 C   0  0  0  0  0  0  0  0  0  0  0  0
    4.7611   -3.1917    1.1310 C   0  0  0  0  0  0  0  0  0  0  0  0
    3.8421   -2.2561    0.6128 C   0  0  0  0  0  0  0  0  0  0  0  0
    3.4498   -2.3399   -0.7425 C   0  0  0  0  0  0  0  0  0  0  0  0
    3.9612   -3.3498   -1.5713 C   0  0  0  0  0  0  0  0  0  0  0  0
    3.5320   -3.4520   -2.8580 O   0  0  0  0  0  0  0  0  0  0  0  0
    4.8981   -4.2714   -1.0567 C   0  0  0  0  0  0  0  0  0  0  0  0
    5.3076   -4.1853    0.2887 C   0  0  0  0  0  0  0  0  0  0  0  0
    6.3239   -5.1007    0.8805 C   0  0  2  0  0  0  0  0  0  0  0  0
    6.0995   -6.5169    0.9227 O   0  0  0  0  0  0  0  0  0  0  0  0
    5.8546   -5.7823    2.1308 C   0  0  1  0  0  0  0  0  0  0  0  0
    6.8358   -5.5603    3.1260 O   0  0  0  0  0  0  0  0  0  0  0  0
    6.0162   -5.1273    4.2242 C   0  0  2  0  0  0  0  0  0  0  0  0
    5.4496   -6.5197    4.7188 C   0  0  1  0  0  0  0  0  0  0  0  0
    5.2328   -6.5354    6.1109 O   0  0  0  0  0  0  0  0  0  0  0  0
    4.1500   -6.5970    3.9348 C   0  0  2  0  0  0  0  0  0  0  0  0
    3.5201   -7.5806    2.9168 C   0  0  2  0  0  0  0  0  0  0  0  0
    4.5363   -8.6124    2.3477 C   0  0  0  0  0  0  0  0  0  0  0  0
    3.2796   -6.2431    2.0975 C   0  0  1  0  0  0  0  0  0  0  0  0
    1.9732   -5.4940    2.2071 C   0  0  0  0  0  0  0  0  0  0  0  0
    0.8120   -6.4545    2.2907 C   0  0  0  0  0  0  0  0  0  0  0  0
    0.9380   -7.4121    3.5146 C   0  0  1  0  0  0  0  0  0  0  0  0
   -0.4437   -8.1215    3.8099 C   0  0  0  0  0  0  0  0  0  0  0  0
   -0.4975   -8.7838    5.2133 C   0  0  0  0  0  0  0  0  0  0  0  0
   -1.6179   -7.1145    3.8065 C   0  0  0  0  0  0  0  0  0  0  0  0
   -0.7166   -9.1595    2.7086 C   0  0  0  0  0  0  0  0  0  0  0  0
    0.4425  -10.1436    2.5317 C   0  0  0  0  0  0  0  0  0  0  0  0
    1.7961   -9.4438    2.2894 C   0  0  0  0  0  0  0  0  0  0  0  0
    2.2034   -8.3684    3.3551 C   0  0  1  0  0  0  0  0  0  0  0  0
    2.5401   -9.0681    4.7064 C   0  0  0  0  0  0  0  0  0  0  0  0
    4.4895   -5.6335    2.7942 C   0  0  1  0  0  0  0  0  0  0  0  0
    1.1819   -1.3770    6.3073 H   0  0  0  0  0  0  0  0  0  0  0  0
    1.6031   -2.1153    4.7683 H   0  0  0  0  0  0  0  0  0  0  0  0
    2.4935   -0.7072    5.3421 H   0  0  0  0  0  0  0  0  0  0  0  0
    3.3718   -2.0466    7.2743 H   0  0  0  0  0  0  0  0  0  0  0  0
    2.5004   -3.4558    6.7316 H   0  0  0  0  0  0  0  0  0  0  0  0
    4.6591   -2.0434    5.0960 H   0  0  0  0  0  0  0  0  0  0  0  0
    4.9713   -3.4046    6.1494 H   0  0  0  0  0  0  0  0  0  0  0  0
    3.0175   -3.4888    3.9598 H   0  0  0  0  0  0  0  0  0  0  0  0
    4.8269   -2.1682    2.9938 H   0  0  0  0  0  0  0  0  0  0  0  0
    6.2781   -2.9720    2.5782 H   0  0  0  0  0  0  0  0  0  0  0  0
    3.4406   -1.4746    1.2353 H   0  0  0  0  0  0  0  0  0  0  0  0
    2.7306   -1.6375   -1.1372 H   0  0  0  0  0  0  0  0  0  0  0  0
    3.4192   -4.3653   -3.0957 H   0  0  0  0  0  0  0  0  0  0  0  0
    5.2843   -5.0530   -1.6899 H   0  0  0  0  0  0  0  0  0  0  0  0
    7.3599   -4.7970    0.7493 H   0  0  0  0  0  0  0  0  0  0  0  0
    6.5880   -4.5707    4.9678 H   0  0  0  0  0  0  0  0  0  0  0  0
    6.1357   -7.3340    4.4814 H   0  0  0  0  0  0  0  0  0  0  0  0
    4.8979   -7.3892    6.3392 H   0  0  0  0  0  0  0  0  0  0  0  0
    3.3202   -6.2552    4.5485 H   0  0  0  0  0  0  0  0  0  0  0  0
    4.3688   -8.8120    1.2871 H   0  0  0  0  0  0  0  0  0  0  0  0
    4.5132   -9.5705    2.8664 H   0  0  0  0  0  0  0  0  0  0  0  0
    5.5700   -8.3043    2.4579 H   0  0  0  0  0  0  0  0  0  0  0  0
    3.4997   -6.4495    1.0518 H   0  0  0  0  0  0  0  0  0  0  0  0
    1.9400   -4.8828    3.1057 H   0  0  0  0  0  0  0  0  0  0  0  0
    1.8602   -4.8039    1.3725 H   0  0  0  0  0  0  0  0  0  0  0  0
   -0.0656   -5.8243    2.3625 H   0  0  0  0  0  0  0  0  0  0  0  0
    0.7236   -7.0091    1.3546 H   0  0  0  0  0  0  0  0  0  0  0  0
    1.1253   -6.7668    4.3724 H   0  0  0  0  0  0  0  0  0  0  0  0
   -1.5165   -9.0399    5.5041 H   0  0  0  0  0  0  0  0  0  0  0  0
   -0.0849   -8.1419    5.9944 H   0  0  0  0  0  0  0  0  0  0  0  0
    0.0215   -9.7362    5.2546 H   0  0  0  0  0  0  0  0  0  0  0  0
   -2.5394   -7.5606    4.1674 H   0  0  0  0  0  0  0  0  0  0  0  0
   -1.8681   -6.7741    2.8040 H   0  0  0  0  0  0  0  0  0  0  0  0
   -1.3914   -6.2562    4.4368 H   0  0  0  0  0  0  0  0  0  0  0  0
   -1.6389   -9.7019    2.9209 H   0  0  0  0  0  0  0  0  0  0  0  0
   -0.8810   -8.6551    1.7565 H   0  0  0  0  0  0  0  0  0  0  0  0
    0.5008  -10.8128    3.3883 H   0  0  0  0  0  0  0  0  0  0  0  0
    0.2157  -10.7882    1.6858 H   0  0  0  0  0  0  0  0  0  0  0  0
    2.5393  -10.2358    2.2190 H   0  0  0  0  0  0  0  0  0  0  0  0
    1.7739   -8.9786    1.3049 H   0  0  0  0  0  0  0  0  0  0  0  0
    2.0656  -10.0413    4.8056 H   0  0  0  0  0  0  0  0  0  0  0  0
    2.2427   -8.4626    5.5629 H   0  0  0  0  0  0  0  0  0  0  0  0
    3.6053   -9.2616    4.8372 H   0  0  0  0  0  0  0  0  0  0  0  0
  1  2  1  0
  1 37  1  0
  1 38  1  0
  1 39  1  0
  2  3  1  0
  2 40  1  0
  2 41  1  0
  3  4  1  0
  3 42  1  0
  3 43  1  0
  5  4  1  1
  4 44  1  0
  5 18  1  0
  5 36  1  0
  5  6  1  0
  6  7  1  0
  6 45  1  0
  6 46  1  0
  7 13  2  0
  7  8  1  0
  8  9  2  0
  8 47  1  0
  9 10  1  0
  9 48  1  0
 10 11  1  0
 10 12  2  0
 11 49  1  0
 12 13  1  0
 12 50  1  0
 13 14  1  0
 14 16  1  0
 14 15  1  0
 14 51  1  1
 16 15  1  6
 36 16  1  6
 16 17  1  0
 17 18  1  0
 18 19  1  0
 18 52  1  1
 19 20  1  0
 19 21  1  0
 19 53  1  6
 20 54  1  0
 21 36  1  0
 21 22  1  0
 21 55  1  1
 22 34  1  0
 22 23  1  6
 22 24  1  0
 23 56  1  0
 23 57  1  0
 23 58  1  0
 24 25  1  0
 24 36  1  0
 24 59  1  6
 25 26  1  0
 25 60  1  0
 25 61  1  0
 26 27  1  0
 26 62  1  0
 26 63  1  0
 27 34  1  0
 27 28  1  0
 27 64  1  1
 28 29  1  0
 28 30  1  0
 28 31  1  0
 29 65  1  0
 29 66  1  0
 29 67  1  0
 30 68  1  0
 30 69  1  0
 30 70  1  0
 31 32  1  0
 31 71  1  0
 31 72  1  0
 32 33  1  0
 32 73  1  0
 32 74  1  0
 33 34  1  0
 33 75  1  0
 33 76  1  0
 34 35  1  1
 35 77  1  0
 35 78  1  0
 35 79  1  0
M  END
>  <i_m_ct_stereo_status>  (142) 
1

>  <s_m_source_file>  (142) 
/var/tmp/pbs.5076255.sched01/tmpdonsa7tf/408ubvndgu.sdf

>  <i_m_source_file_index>  (142) 
25

>  <i_lp_mmshare_version>  (142) 
48012

>  <i_f3d_flags>  (142) 
0

>  <s_epik_input>  (142) 
W2NIXTFbY0hdYyhbT0hdKVtjSF1jKFtDQEBIXTJPMyljMVtDSDJdW0NAXShbQ0BAXTQ1W0NAXTIzNikoW05IXVtDSDJdW0NIMl1bQ0gzXSlbQ0BIXShPNilbQ0BASF0oW09IXSlbQ0BASF00W0NAXTcoW0NIM10pW0NASF01W0NIMl1bQ0gyXVtDQEBIXThbQ0BAXTcoW0NIM10pW0NIMl1bQ0gyXVtDSDJdQzgoW0NIM10pW0NIM10=

>  <s_epik_cmdline>  (142) 
J2VwaWtfcHl0aG9uJywgJy1waHQnLCAnMi4wJywgJy1waCcsICc3LjAnLCAnLXRuJywgJzgnLCAnLW1hJywgJzIwMCcsICctaW1hZScsICc8aW5maWxlLm1hZT4nLCAnLW9tYWUnLCAnPG91dGZpbGUubWFlPic=

>  <r_lp_tautomer_probability>  (142) 
1

>  <r_epik_Ionization_Penalty>  (142) 
2.49675

>  <r_epik_Ionization_Penalty_Charging>  (142) 
0

>  <r_epik_Ionization_Penalty_Neutral>  (142) 
2.49675

>  <r_epik_State_Penalty>  (142) 
2.6612

>  <r_epik_Charging_Adjusted_Penalty>  (142) 
2.6612

>  <i_epik_Tot_Q>  (142) 
0

>  <i_epik_Tot_abs_Q>  (142) 
0

>  <s_lp_Force_Field>  (142) 
OPLS3e

>  <r_lp_Energy>  (142) 
142.312

>  <b_lp_Chiralities_Consistent>  (142) 
1

>  <s_lp_Variant>  (142) 
48:0-2

>  <s_i_glide_gridfile>  (142) 
pfpi4k_grid

>  <i_i_glide_lignum>  (142) 
25

>  <i_i_glide_rotatable_bonds>  (142) 
5

>  <r_i_docking_score>  (142) 
-2.62374

>  <r_i_glide_ligand_efficiency>  (142) 
-0.0728817

>  <r_i_glide_ligand_efficiency_sa>  (142) 
-0.24065

>  <r_i_glide_ligand_efficiency_ln>  (142) 
-0.57243

>  <r_i_glide_gscore>  (142) 
-2.62374

>  <r_i_glide_lipo>  (142) 
-0.505355

>  <r_i_glide_hbond>  (142) 
-0.32

>  <r_i_glide_metal>  (142) 
-0

>  <r_i_glide_rewards>  (142) 
-0.0907224

>  <r_i_glide_evdw>  (142) 
-23.9637

>  <r_i_glide_ecoul>  (142) 
-4.51111

>  <r_i_glide_erotb>  (142) 
0.167187

>  <r_i_glide_esite>  (142) 
0

>  <r_i_glide_emodel>  (142) 
-29.9975

>  <r_i_glide_energy>  (142) 
-28.4748

>  <r_i_glide_einternal>  (142) 
3.98713

>  <r_i_glide_intrahb_reward>  (142) 
-0

>  <i_i_glide_confnum>  (142) 
4

>  <i_i_glide_posenum>  (142) 
1

>  <r_i_glide_eff_state_penalty>  (142) 
0

>  <ligand_id>  (142) 
48

>  <original_smiles>  (142) 
CCCNC12Cc3ccc(O)cc3C3OC34OC1C(O)C1C3(C)C(CCC5C(C)(C)CCCC53C)C124

>  <smiles>  (142) 
[H]Oc1c([H])c([H])c2c(c1[H])C1([H])OC13OC1([H])C([H])(O[H])C4([H])C3(C3([H])C([H])([H])C([H])([H])C5([H])C(C([H])([H])[H])(C([H])([H])[H])C([H])([H])C([H])([H])C([H])([H])C5(C([H])([H])[H])C34C([H])([H])[H])C1(N([H])C([H])([H])C([H])([H])C([H])([H])[H])C2([H])[H]

$$$$
48:1:1
     RDKit          3D

 79 86  0  0  1  0  0  0  0  0999 V2000
    3.9614   -4.4666    7.6722 C   0  0  0  0  0  0  0  0  0  0  0  0
    3.9809   -3.2128    6.7924 C   0  0  0  0  0  0  0  0  0  0  0  0
    4.9476   -3.3636    5.6136 C   0  0  0  0  0  0  0  0  0  0  0  0
    4.3555   -4.2164    4.5846 N   0  0  0  0  0  0  0  0  0  0  0  0
    5.2108   -4.6224    3.4568 C   0  0  1  0  0  0  0  0  0  0  0  0
    5.5380   -3.3348    2.5991 C   0  0  0  0  0  0  0  0  0  0  0  0
    4.9026   -3.2570    1.2086 C   0  0  0  0  0  0  0  0  0  0  0  0
    3.9832   -2.2402    0.9057 C   0  0  0  0  0  0  0  0  0  0  0  0
    3.4149   -2.1761   -0.3793 C   0  0  0  0  0  0  0  0  0  0  0  0
    3.7366   -3.1369   -1.3573 C   0  0  0  0  0  0  0  0  0  0  0  0
    3.1070   -3.1016   -2.5659 O   0  0  0  0  0  0  0  0  0  0  0  0
    4.6738   -4.1431   -1.0674 C   0  0  0  0  0  0  0  0  0  0  0  0
    5.2648   -4.1949    0.2142 C   0  0  0  0  0  0  0  0  0  0  0  0
    6.2874   -5.1986    0.5863 C   0  0  2  0  0  0  0  0  0  0  0  0
    5.9683   -6.5948    0.5517 O   0  0  0  0  0  0  0  0  0  0  0  0
    5.9499   -5.9660    1.8338 C   0  0  1  0  0  0  0  0  0  0  0  0
    7.0762   -5.8823    2.6819 O   0  0  0  0  0  0  0  0  0  0  0  0
    6.4402   -5.5266    3.9194 C   0  0  2  0  0  0  0  0  0  0  0  0
    5.8717   -6.9371    4.3635 C   0  0  1  0  0  0  0  0  0  0  0  0
    5.8674   -7.0799    5.7643 O   0  0  0  0  0  0  0  0  0  0  0  0
    4.4708   -6.8807    3.7698 C   0  0  2  0  0  0  0  0  0  0  0  0
    3.6546   -7.7334    2.7619 C   0  0  2  0  0  0  0  0  0  0  0  0
    4.5222   -8.7525    1.9674 C   0  0  0  0  0  0  0  0  0  0  0  0
    3.3801   -6.3150    2.1047 C   0  0  1  0  0  0  0  0  0  0  0  0
    2.1477   -5.5223    2.4591 C   0  0  0  0  0  0  0  0  0  0  0  0
    0.9541   -6.4263    2.6244 C   0  0  0  0  0  0  0  0  0  0  0  0
    1.1913   -7.5034    3.7269 C   0  0  1  0  0  0  0  0  0  0  0  0
   -0.1786   -8.1741    4.1505 C   0  0  0  0  0  0  0  0  0  0  0  0
   -0.0787   -8.9660    5.4836 C   0  0  0  0  0  0  0  0  0  0  0  0
   -1.2845   -7.1150    4.4041 C   0  0  0  0  0  0  0  0  0  0  0  0
   -0.6536   -9.0919    3.0057 C   0  0  0  0  0  0  0  0  0  0  0  0
    0.4110  -10.1093    2.5877 C   0  0  0  0  0  0  0  0  0  0  0  0
    1.7569   -9.4504    2.2217 C   0  0  0  0  0  0  0  0  0  0  0  0
    2.3652   -8.4992    3.3092 C   0  0  1  0  0  0  0  0  0  0  0  0
    2.8404   -9.3383    4.5333 C   0  0  0  0  0  0  0  0  0  0  0  0
    4.7027   -5.8276    2.6850 C   0  0  1  0  0  0  0  0  0  0  0  0
    3.2755   -4.3448    8.5079 H   0  0  0  0  0  0  0  0  0  0  0  0
    4.9527   -4.6745    8.0755 H   0  0  0  0  0  0  0  0  0  0  0  0
    3.6489   -5.3415    7.1015 H   0  0  0  0  0  0  0  0  0  0  0  0
    2.9764   -2.9816    6.4343 H   0  0  0  0  0  0  0  0  0  0  0  0
    4.2925   -2.3588    7.3945 H   0  0  0  0  0  0  0  0  0  0  0  0
    5.1633   -2.3747    5.2125 H   0  0  0  0  0  0  0  0  0  0  0  0
    5.8962   -3.7709    5.9678 H   0  0  0  0  0  0  0  0  0  0  0  0
    3.5104   -3.7802    4.2287 H   0  0  0  0  0  0  0  0  0  0  0  0
    5.2719   -2.4149    3.1180 H   0  0  0  0  0  0  0  0  0  0  0  0
    6.6158   -3.2564    2.4399 H   0  0  0  0  0  0  0  0  0  0  0  0
    3.7048   -1.5007    1.6442 H   0  0  0  0  0  0  0  0  0  0  0  0
    2.6958   -1.4004   -0.6004 H   0  0  0  0  0  0  0  0  0  0  0  0
    2.9785   -3.9748   -2.9169 H   0  0  0  0  0  0  0  0  0  0  0  0
    4.9368   -4.8842   -1.8103 H   0  0  0  0  0  0  0  0  0  0  0  0
    7.3123   -4.9458    0.3288 H   0  0  0  0  0  0  0  0  0  0  0  0
    7.1366   -5.0700    4.6221 H   0  0  0  0  0  0  0  0  0  0  0  0
    6.4721   -7.7505    3.9539 H   0  0  0  0  0  0  0  0  0  0  0  0
    5.6945   -7.9896    5.9584 H   0  0  0  0  0  0  0  0  0  0  0  0
    3.7545   -6.5646    4.5246 H   0  0  0  0  0  0  0  0  0  0  0  0
    4.2024   -8.8445    0.9273 H   0  0  0  0  0  0  0  0  0  0  0  0
    4.5148   -9.7552    2.3973 H   0  0  0  0  0  0  0  0  0  0  0  0
    5.5796   -8.5031    1.9580 H   0  0  0  0  0  0  0  0  0  0  0  0
    3.4470   -6.4318    1.0222 H   0  0  0  0  0  0  0  0  0  0  0  0
    2.2722   -4.9979    3.4023 H   0  0  0  0  0  0  0  0  0  0  0  0
    1.9618   -4.7529    1.7116 H   0  0  0  0  0  0  0  0  0  0  0  0
    0.1459   -5.7489    2.8788 H   0  0  0  0  0  0  0  0  0  0  0  0
    0.7023   -6.8843    1.6664 H   0  0  0  0  0  0  0  0  0  0  0  0
    1.5287   -6.9530    4.6053 H   0  0  0  0  0  0  0  0  0  0  0  0
   -1.0604   -9.1787    5.9050 H   0  0  0  0  0  0  0  0  0  0  0  0
    0.4785   -8.4222    6.2491 H   0  0  0  0  0  0  0  0  0  0  0  0
    0.3779   -9.9462    5.3704 H   0  0  0  0  0  0  0  0  0  0  0  0
   -2.1626   -7.5584    4.8688 H   0  0  0  0  0  0  0  0  0  0  0  0
   -1.6547   -6.6750    3.4807 H   0  0  0  0  0  0  0  0  0  0  0  0
   -0.9363   -6.3110    5.0546 H   0  0  0  0  0  0  0  0  0  0  0  0
   -1.5718   -9.6094    3.2825 H   0  0  0  0  0  0  0  0  0  0  0  0
   -0.9123   -8.4926    2.1343 H   0  0  0  0  0  0  0  0  0  0  0  0
    0.5463  -10.8572    3.3659 H   0  0  0  0  0  0  0  0  0  0  0  0
    0.0409  -10.6639    1.7281 H   0  0  0  0  0  0  0  0  0  0  0  0
    2.4395  -10.2625    1.9800 H   0  0  0  0  0  0  0  0  0  0  0  0
    1.6299   -8.8942    1.2949 H   0  0  0  0  0  0  0  0  0  0  0  0
    2.3288  -10.2951    4.6137 H   0  0  0  0  0  0  0  0  0  0  0  0
    2.6986   -8.8039    5.4730 H   0  0  0  0  0  0  0  0  0  0  0  0
    3.8994   -9.5911    4.4964 H   0  0  0  0  0  0  0  0  0  0  0  0
  1  2  1  0
  1 37  1  0
  1 38  1  0
  1 39  1  0
  2  3  1  0
  2 40  1  0
  2 41  1  0
  3  4  1  0
  3 42  1  0
  3 43  1  0
  5  4  1  1
  4 44  1  0
  5 18  1  0
  5 36  1  0
  5  6  1  0
  6  7  1  0
  6 45  1  0
  6 46  1  0
  7 13  2  0
  7  8  1  0
  8  9  2  0
  8 47  1  0
  9 10  1  0
  9 48  1  0
 10 11  1  0
 10 12  2  0
 11 49  1  0
 12 13  1  0
 12 50  1  0
 13 14  1  0
 14 16  1  0
 14 15  1  0
 14 51  1  1
 16 15  1  6
 36 16  1  6
 16 17  1  0
 17 18  1  0
 18 19  1  0
 18 52  1  1
 19 20  1  0
 19 21  1  0
 19 53  1  6
 20 54  1  0
 21 36  1  0
 21 22  1  0
 21 55  1  1
 22 34  1  0
 22 23  1  6
 22 24  1  0
 23 56  1  0
 23 57  1  0
 23 58  1  0
 24 25  1  0
 24 36  1  0
 24 59  1  6
 25 26  1  0
 25 60  1  0
 25 61  1  0
 26 27  1  0
 26 62  1  0
 26 63  1  0
 27 34  1  0
 27 28  1  0
 27 64  1  1
 28 29  1  0
 28 30  1  0
 28 31  1  0
 29 65  1  0
 29 66  1  0
 29 67  1  0
 30 68  1  0
 30 69  1  0
 30 70  1  0
 31 32  1  0
 31 71  1  0
 31 72  1  0
 32 33  1  0
 32 73  1  0
 32 74  1  0
 33 34  1  0
 33 75  1  0
 33 76  1  0
 34 35  1  1
 35 77  1  0
 35 78  1  0
 35 79  1  0
M  END
>  <i_m_ct_stereo_status>  (143) 
1

>  <s_m_source_file>  (143) 
/var/tmp/pbs.5076255.sched01/tmpdonsa7tf/408ubvndgu.sdf

>  <i_m_source_file_index>  (143) 
25

>  <i_lp_mmshare_version>  (143) 
48012

>  <i_f3d_flags>  (143) 
0

>  <s_epik_input>  (143) 
W2NIXTFbY0hdYyhbT0hdKVtjSF1jKFtDQEBIXTJPMyljMVtDSDJdW0NAXShbQ0BAXTQ1W0NAXTIzNikoW05IXVtDSDJdW0NIMl1bQ0gzXSlbQ0BIXShPNilbQ0BASF0oW09IXSlbQ0BASF00W0NAXTcoW0NIM10pW0NASF01W0NIMl1bQ0gyXVtDQEBIXThbQ0BAXTcoW0NIM10pW0NIMl1bQ0gyXVtDSDJdQzgoW0NIM10pW0NIM10=

>  <s_epik_cmdline>  (143) 
J2VwaWtfcHl0aG9uJywgJy1waHQnLCAnMi4wJywgJy1waCcsICc3LjAnLCAnLXRuJywgJzgnLCAnLW1hJywgJzIwMCcsICctaW1hZScsICc8aW5maWxlLm1hZT4nLCAnLW9tYWUnLCAnPG91dGZpbGUubWFlPic=

>  <r_lp_tautomer_probability>  (143) 
1

>  <r_epik_Ionization_Penalty>  (143) 
2.49675

>  <r_epik_Ionization_Penalty_Charging>  (143) 
0

>  <r_epik_Ionization_Penalty_Neutral>  (143) 
2.49675

>  <r_epik_State_Penalty>  (143) 
2.6612

>  <r_epik_Charging_Adjusted_Penalty>  (143) 
2.6612

>  <i_epik_Tot_Q>  (143) 
0

>  <i_epik_Tot_abs_Q>  (143) 
0

>  <s_lp_Force_Field>  (143) 
OPLS3e

>  <r_lp_Energy>  (143) 
142.312

>  <b_lp_Chiralities_Consistent>  (143) 
1

>  <s_lp_Variant>  (143) 
48:0-2

>  <s_i_glide_gridfile>  (143) 
pfpi4k_grid

>  <i_i_glide_lignum>  (143) 
25

>  <i_i_glide_rotatable_bonds>  (143) 
5

>  <r_i_docking_score>  (143) 
-2.2731

>  <r_i_glide_ligand_efficiency>  (143) 
-0.0631417

>  <r_i_glide_ligand_efficiency_sa>  (143) 
-0.208489

>  <r_i_glide_ligand_efficiency_ln>  (143) 
-0.495929

>  <r_i_glide_gscore>  (143) 
-2.2731

>  <r_i_glide_lipo>  (143) 
-0.476655

>  <r_i_glide_hbond>  (143) 
-0.23429

>  <r_i_glide_metal>  (143) 
-0

>  <r_i_glide_rewards>  (143) 
-0.121024

>  <r_i_glide_evdw>  (143) 
-22.1252

>  <r_i_glide_ecoul>  (143) 
-3.34705

>  <r_i_glide_erotb>  (143) 
0.167187

>  <r_i_glide_esite>  (143) 
0

>  <r_i_glide_emodel>  (143) 
-26.2552

>  <r_i_glide_energy>  (143) 
-25.4723

>  <r_i_glide_einternal>  (143) 
4.61407

>  <r_i_glide_intrahb_reward>  (143) 
-0

>  <i_i_glide_confnum>  (143) 
3

>  <i_i_glide_posenum>  (143) 
39

>  <r_i_glide_eff_state_penalty>  (143) 
0

>  <ligand_id>  (143) 
48

>  <original_smiles>  (143) 
CCCNC12Cc3ccc(O)cc3C3OC34OC1C(O)C1C3(C)C(CCC5C(C)(C)CCCC53C)C124

>  <smiles>  (143) 
[H]Oc1c([H])c([H])c2c(c1[H])C1([H])OC13OC1([H])C([H])(O[H])C4([H])C3(C3([H])C([H])([H])C([H])([H])C5([H])C(C([H])([H])[H])(C([H])([H])[H])C([H])([H])C([H])([H])C([H])([H])C5(C([H])([H])[H])C34C([H])([H])[H])C1(N([H])C([H])([H])C([H])([H])C([H])([H])[H])C2([H])[H]

$$$$
48:1:2
     RDKit          3D

 79 86  0  0  1  0  0  0  0  0999 V2000
    8.4422   -7.2196    5.4080 C   0  0  0  0  0  0  0  0  0  0  0  0
    7.0059   -6.7260    5.2103 C   0  0  0  0  0  0  0  0  0  0  0  0
    6.7611   -6.1924    3.7924 C   0  0  0  0  0  0  0  0  0  0  0  0
    5.3769   -5.7504    3.6355 N   0  0  0  0  0  0  0  0  0  0  0  0
    5.0197   -5.0569    2.3795 C   0  0  1  0  0  0  0  0  0  0  0  0
    5.5116   -3.5640    2.4873 C   0  0  0  0  0  0  0  0  0  0  0  0
    4.4180   -2.4995    2.6354 C   0  0  0  0  0  0  0  0  0  0  0  0
    4.3161   -1.7136    3.8098 C   0  0  0  0  0  0  0  0  0  0  0  0
    3.3000   -0.7391    3.9204 C   0  0  0  0  0  0  0  0  0  0  0  0
    2.3940   -0.5345    2.8699 C   0  0  0  0  0  0  0  0  0  0  0  0
    1.4028    0.3939    2.9745 O   0  0  0  0  0  0  0  0  0  0  0  0
    2.5123   -1.3035    1.6797 C   0  0  0  0  0  0  0  0  0  0  0  0
    3.5280   -2.2718    1.5679 C   0  0  0  0  0  0  0  0  0  0  0  0
    3.7288   -3.0770    0.3332 C   0  0  2  0  0  0  0  0  0  0  0  0
    2.6891   -3.9539   -0.1466 O   0  0  0  0  0  0  0  0  0  0  0  0
    3.7517   -4.5625    0.6089 C   0  0  1  0  0  0  0  0  0  0  0  0
    4.9188   -5.0712   -0.0040 O   0  0  0  0  0  0  0  0  0  0  0  0
    5.4551   -5.8597    1.0681 C   0  0  2  0  0  0  0  0  0  0  0  0
    4.5265   -7.1327    0.9678 C   0  0  1  0  0  0  0  0  0  0  0  0
    5.2002   -8.3110    1.3458 O   0  0  0  0  0  0  0  0  0  0  0  0
    3.4179   -6.7527    1.9517 C   0  0  2  0  0  0  0  0  0  0  0  0
    1.8809   -6.5955    1.8903 C   0  0  2  0  0  0  0  0  0  0  0  0
    1.3266   -6.5320    0.4547 C   0  0  0  0  0  0  0  0  0  0  0  0
    2.2065   -5.2318    2.6229 C   0  0  1  0  0  0  0  0  0  0  0  0
    2.1439   -5.1233    4.1171 C   0  0  0  0  0  0  0  0  0  0  0  0
    1.0036   -5.9340    4.6751 C   0  0  0  0  0  0  0  0  0  0  0  0
    1.1059   -7.4369    4.2689 C   0  0  1  0  0  0  0  0  0  0  0  0
    0.1429   -8.3111    5.1607 C   0  0  0  0  0  0  0  0  0  0  0  0
    0.4641   -9.8272    5.1050 C   0  0  0  0  0  0  0  0  0  0  0  0
    0.2773   -7.9598    6.6654 C   0  0  0  0  0  0  0  0  0  0  0  0
   -1.3033   -8.0420    4.7178 C   0  0  0  0  0  0  0  0  0  0  0  0
   -1.5234   -8.2485    3.2237 C   0  0  0  0  0  0  0  0  0  0  0  0
   -0.5450   -7.4395    2.3581 C   0  0  0  0  0  0  0  0  0  0  0  0
    0.9721   -7.6226    2.6945 C   0  0  1  0  0  0  0  0  0  0  0  0
    1.4247   -9.0481    2.2611 C   0  0  0  0  0  0  0  0  0  0  0  0
    3.5775   -5.2343    1.9619 C   0  0  1  0  0  0  0  0  0  0  0  0
    8.5763   -7.6043    6.4177 H   0  0  0  0  0  0  0  0  0  0  0  0
    9.1616   -6.4169    5.2513 H   0  0  0  0  0  0  0  0  0  0  0  0
    8.6802   -8.0237    4.7133 H   0  0  0  0  0  0  0  0  0  0  0  0
    6.3106   -7.5434    5.4088 H   0  0  0  0  0  0  0  0  0  0  0  0
    6.7881   -5.9463    5.9425 H   0  0  0  0  0  0  0  0  0  0  0  0
    7.4534   -5.3847    3.5787 H   0  0  0  0  0  0  0  0  0  0  0  0
    6.9826   -6.9805    3.0746 H   0  0  0  0  0  0  0  0  0  0  0  0
    5.1254   -5.1625    4.4235 H   0  0  0  0  0  0  0  0  0  0  0  0
    6.1721   -3.4410    3.3384 H   0  0  0  0  0  0  0  0  0  0  0  0
    6.1271   -3.3050    1.6221 H   0  0  0  0  0  0  0  0  0  0  0  0
    5.0168   -1.8447    4.6258 H   0  0  0  0  0  0  0  0  0  0  0  0
    3.2163   -0.1348    4.8200 H   0  0  0  0  0  0  0  0  0  0  0  0
    0.9242    0.5315    2.1667 H   0  0  0  0  0  0  0  0  0  0  0  0
    1.8113   -1.1481    0.8730 H   0  0  0  0  0  0  0  0  0  0  0  0
    4.3435   -2.6136   -0.4344 H   0  0  0  0  0  0  0  0  0  0  0  0
    6.5302   -6.0406    0.9618 H   0  0  0  0  0  0  0  0  0  0  0  0
    4.1797   -7.2777   -0.0535 H   0  0  0  0  0  0  0  0  0  0  0  0
    4.5976   -9.0380    1.2890 H   0  0  0  0  0  0  0  0  0  0  0  0
    3.5899   -7.2024    2.9183 H   0  0  0  0  0  0  0  0  0  0  0  0
    0.4944   -5.8510    0.3207 H   0  0  0  0  0  0  0  0  0  0  0  0
    0.9667   -7.4964    0.1119 H   0  0  0  0  0  0  0  0  0  0  0  0
    2.0793   -6.2562   -0.2719 H   0  0  0  0  0  0  0  0  0  0  0  0
    1.5899   -4.4765    2.1555 H   0  0  0  0  0  0  0  0  0  0  0  0
    3.0506   -5.5107    4.5592 H   0  0  0  0  0  0  0  0  0  0  0  0
    2.0812   -4.0783    4.4159 H   0  0  0  0  0  0  0  0  0  0  0  0
    1.0690   -5.7724    5.7524 H   0  0  0  0  0  0  0  0  0  0  0  0
    0.0664   -5.4970    4.3353 H   0  0  0  0  0  0  0  0  0  0  0  0
    2.1166   -7.7421    4.5416 H   0  0  0  0  0  0  0  0  0  0  0  0
   -0.0157  -10.3780    5.9187 H   0  0  0  0  0  0  0  0  0  0  0  0
    1.5358  -10.0356    5.1724 H   0  0  0  0  0  0  0  0  0  0  0  0
    0.0884  -10.3053    4.2075 H   0  0  0  0  0  0  0  0  0  0  0  0
   -0.2399   -8.6798    7.3013 H   0  0  0  0  0  0  0  0  0  0  0  0
   -0.1596   -6.9954    6.9092 H   0  0  0  0  0  0  0  0  0  0  0  0
    1.3208   -7.9341    6.9863 H   0  0  0  0  0  0  0  0  0  0  0  0
   -1.9790   -8.6898    5.2638 H   0  0  0  0  0  0  0  0  0  0  0  0
   -1.5816   -7.0209    4.9619 H   0  0  0  0  0  0  0  0  0  0  0  0
   -1.4661   -9.3090    2.9860 H   0  0  0  0  0  0  0  0  0  0  0  0
   -2.5466   -7.9608    2.9851 H   0  0  0  0  0  0  0  0  0  0  0  0
   -0.7732   -7.7051    1.3278 H   0  0  0  0  0  0  0  0  0  0  0  0
   -0.7827   -6.3918    2.4757 H   0  0  0  0  0  0  0  0  0  0  0  0
    0.6008   -9.7568    2.2174 H   0  0  0  0  0  0  0  0  0  0  0  0
    2.1765   -9.4600    2.9361 H   0  0  0  0  0  0  0  0  0  0  0  0
    1.8733   -9.0827    1.2661 H   0  0  0  0  0  0  0  0  0  0  0  0
  1  2  1  0
  1 37  1  0
  1 38  1  0
  1 39  1  0
  2  3  1  0
  2 40  1  0
  2 41  1  0
  3  4  1  0
  3 42  1  0
  3 43  1  0
  5  4  1  1
  4 44  1  0
  5 18  1  0
  5 36  1  0
  5  6  1  0
  6  7  1  0
  6 45  1  0
  6 46  1  0
  7 13  2  0
  7  8  1  0
  8  9  2  0
  8 47  1  0
  9 10  1  0
  9 48  1  0
 10 11  1  0
 10 12  2  0
 11 49  1  0
 12 13  1  0
 12 50  1  0
 13 14  1  0
 14 16  1  0
 14 15  1  0
 14 51  1  6
 16 15  1  6
 36 16  1  6
 16 17  1  0
 17 18  1  0
 18 19  1  0
 18 52  1  6
 19 20  1  0
 19 21  1  0
 19 53  1  6
 20 54  1  0
 21 36  1  0
 21 22  1  0
 21 55  1  1
 22 34  1  0
 22 23  1  6
 22 24  1  0
 23 56  1  0
 23 57  1  0
 23 58  1  0
 24 25  1  0
 24 36  1  0
 24 59  1  6
 25 26  1  0
 25 60  1  0
 25 61  1  0
 26 27  1  0
 26 62  1  0
 26 63  1  0
 27 34  1  0
 27 28  1  0
 27 64  1  1
 28 29  1  0
 28 30  1  0
 28 31  1  0
 29 65  1  0
 29 66  1  0
 29 67  1  0
 30 68  1  0
 30 69  1  0
 30 70  1  0
 31 32  1  0
 31 71  1  0
 31 72  1  0
 32 33  1  0
 32 73  1  0
 32 74  1  0
 33 34  1  0
 33 75  1  0
 33 76  1  0
 34 35  1  1
 35 77  1  0
 35 78  1  0
 35 79  1  0
M  END
>  <i_m_ct_stereo_status>  (144) 
1

>  <s_m_source_file>  (144) 
/var/tmp/pbs.5076255.sched01/tmpdonsa7tf/408ubvndgu.sdf

>  <i_m_source_file_index>  (144) 
25

>  <i_lp_mmshare_version>  (144) 
48012

>  <i_f3d_flags>  (144) 
0

>  <s_epik_input>  (144) 
W2NIXTFbY0hdYyhbT0hdKVtjSF1jKFtDQEBIXTJPMyljMVtDSDJdW0NAXShbQ0BAXTQ1W0NAXTIzNikoW05IXVtDSDJdW0NIMl1bQ0gzXSlbQ0BIXShPNilbQ0BASF0oW09IXSlbQ0BASF00W0NAXTcoW0NIM10pW0NASF01W0NIMl1bQ0gyXVtDQEBIXThbQ0BAXTcoW0NIM10pW0NIMl1bQ0gyXVtDSDJdQzgoW0NIM10pW0NIM10=

>  <s_epik_cmdline>  (144) 
J2VwaWtfcHl0aG9uJywgJy1waHQnLCAnMi4wJywgJy1waCcsICc3LjAnLCAnLXRuJywgJzgnLCAnLW1hJywgJzIwMCcsICctaW1hZScsICc8aW5maWxlLm1hZT4nLCAnLW9tYWUnLCAnPG91dGZpbGUubWFlPic=

>  <r_lp_tautomer_probability>  (144) 
1

>  <r_epik_Ionization_Penalty>  (144) 
2.49675

>  <r_epik_Ionization_Penalty_Charging>  (144) 
0

>  <r_epik_Ionization_Penalty_Neutral>  (144) 
2.49675

>  <r_epik_State_Penalty>  (144) 
2.6612

>  <r_epik_Charging_Adjusted_Penalty>  (144) 
2.6612

>  <i_epik_Tot_Q>  (144) 
0

>  <i_epik_Tot_abs_Q>  (144) 
0

>  <s_lp_Force_Field>  (144) 
OPLS3e

>  <r_lp_Energy>  (144) 
142.312

>  <b_lp_Chiralities_Consistent>  (144) 
1

>  <s_lp_Variant>  (144) 
48:0-2

>  <s_i_glide_gridfile>  (144) 
pfpi4k_grid

>  <i_i_glide_lignum>  (144) 
25

>  <i_i_glide_rotatable_bonds>  (144) 
5

>  <r_i_docking_score>  (144) 
-1.35844

>  <r_i_glide_ligand_efficiency>  (144) 
-0.0377345

>  <r_i_glide_ligand_efficiency_sa>  (144) 
-0.124597

>  <r_i_glide_ligand_efficiency_ln>  (144) 
-0.296375

>  <r_i_glide_gscore>  (144) 
-1.35844

>  <r_i_glide_lipo>  (144) 
-0.323702

>  <r_i_glide_hbond>  (144) 
0

>  <r_i_glide_metal>  (144) 
-0

>  <r_i_glide_rewards>  (144) 
-0.0485305

>  <r_i_glide_evdw>  (144) 
-24.7192

>  <r_i_glide_ecoul>  (144) 
0.550401

>  <r_i_glide_erotb>  (144) 
0.167187

>  <r_i_glide_esite>  (144) 
0

>  <r_i_glide_emodel>  (144) 
-25.443

>  <r_i_glide_energy>  (144) 
-24.1687

>  <r_i_glide_einternal>  (144) 
0.987398

>  <r_i_glide_intrahb_reward>  (144) 
-0

>  <i_i_glide_confnum>  (144) 
6

>  <i_i_glide_posenum>  (144) 
2

>  <r_i_glide_eff_state_penalty>  (144) 
0

>  <ligand_id>  (144) 
48

>  <original_smiles>  (144) 
CCCNC12Cc3ccc(O)cc3C3OC34OC1C(O)C1C3(C)C(CCC5C(C)(C)CCCC53C)C124

>  <smiles>  (144) 
[H]Oc1c([H])c([H])c2c(c1[H])C1([H])OC13OC1([H])C([H])(O[H])C4([H])C3(C3([H])C([H])([H])C([H])([H])C5([H])C(C([H])([H])[H])(C([H])([H])[H])C([H])([H])C([H])([H])C([H])([H])C5(C([H])([H])[H])C34C([H])([H])[H])C1(N([H])C([H])([H])C([H])([H])C([H])([H])[H])C2([H])[H]

$$$$
49:0:0
     RDKit          3D

 75 81  0  0  1  0  0  0  0  0999 V2000
    3.3946  -10.0171    2.2409 C   0  0  0  0  0  0  0  0  0  0  0  0
    3.0487   -8.6541    2.4391 O   0  0  0  0  0  0  0  0  0  0  0  0
    3.5460   -7.7882    1.4249 C   0  0  2  0  0  0  0  0  0  0  0  0
    5.0189   -7.2846    1.7452 C   0  0  0  0  0  0  0  0  0  0  0  0
    5.0357   -5.7198    1.7834 C   0  0  2  0  0  0  0  0  0  0  0  0
    4.9936   -5.3582    0.1813 C   0  0  0  0  0  0  0  0  0  0  0  0
    4.2713   -4.1491   -0.5699 C   0  0  1  0  0  0  0  0  0  0  0  0
    2.8864   -3.7968   -0.0009 C   0  0  1  0  0  0  0  0  0  0  0  0
    1.8216   -4.5768   -0.5037 O   0  0  0  0  0  0  0  0  0  0  0  0
    1.2339   -4.0985   -1.6994 C   0  0  0  0  0  0  0  0  0  0  0  0
    2.9884   -3.8309    1.4986 C   0  0  2  0  0  0  0  0  0  0  0  0
    4.2650   -2.9085    2.0195 C   0  0  1  0  0  0  0  0  0  0  0  0
    5.5435   -3.4937    2.8204 C   0  0  1  0  0  0  0  0  0  0  0  0
    5.4052   -3.4039    4.2567 O   0  0  0  0  0  0  0  0  0  0  0  0
    5.1647   -2.1279    4.8646 C   0  0  0  0  0  0  0  0  0  0  0  0
    6.1233   -4.9137    2.4416 C   0  0  0  0  0  0  0  0  0  0  0  0
    7.0698   -5.6099    3.4153 C   0  0  0  0  0  0  0  0  0  0  0  0
    7.5878   -5.1350    2.0803 C   0  0  0  0  0  0  0  0  0  0  0  0
    4.6816   -1.4985    1.3124 C   0  0  2  0  0  0  0  0  0  0  0  0
    4.6519   -0.4599    2.3092 O   0  0  0  0  0  0  0  0  0  0  0  0
    3.3731    0.0774    2.6765 C   0  0  0  0  0  0  0  0  0  0  0  0
    3.8956   -0.9492    0.0907 C   0  0  0  0  0  0  0  0  0  0  0  0
    4.3139   -1.5929   -1.2716 C   0  0  0  0  0  0  0  0  0  0  0  0
    5.1315   -2.9283   -1.1501 C   0  0  2  0  0  0  0  0  0  0  0  0
    5.5809   -3.2999   -2.6034 C   0  0  0  0  0  0  0  0  0  0  0  0
    4.5130   -3.4611   -3.5246 O   0  0  0  0  0  0  0  0  0  0  0  0
    6.3849   -2.5891   -0.2513 C   0  0  1  0  0  0  0  0  0  0  0  0
    7.5437   -2.2534   -0.9955 O   0  0  0  0  0  0  0  0  0  0  0  0
    6.1314   -1.4424    0.7511 C   0  0  0  0  0  0  0  0  0  0  0  0
    2.7727   -5.3095    2.0254 C   0  0  1  0  0  0  0  0  0  0  0  0
    1.5034   -6.0784    2.2227 C   0  0  0  0  0  0  0  0  0  0  0  0
    2.5189   -6.6183    1.2289 C   0  0  2  0  0  0  0  0  0  0  0  0
    3.8773   -5.5769    2.8429 C   0  0  0  0  0  0  0  0  0  0  0  0
    2.9731  -10.6315    3.0367 H   0  0  0  0  0  0  0  0  0  0  0  0
    4.4762  -10.1688    2.2296 H   0  0  0  0  0  0  0  0  0  0  0  0
    2.9842  -10.3726    1.2959 H   0  0  0  0  0  0  0  0  0  0  0  0
    3.5660   -8.3297    0.4817 H   0  0  0  0  0  0  0  0  0  0  0  0
    5.3329   -7.7278    2.6930 H   0  0  0  0  0  0  0  0  0  0  0  0
    5.7211   -7.6738    1.0038 H   0  0  0  0  0  0  0  0  0  0  0  0
    6.0135   -5.4234   -0.2004 H   0  0  0  0  0  0  0  0  0  0  0  0
    4.5591   -6.2138   -0.3346 H   0  0  0  0  0  0  0  0  0  0  0  0
    3.9775   -4.6585   -1.4823 H   0  0  0  0  0  0  0  0  0  0  0  0
    2.5126   -2.8310   -0.2623 H   0  0  0  0  0  0  0  0  0  0  0  0
    0.3502   -4.7152   -1.8113 H   0  0  0  0  0  0  0  0  0  0  0  0
    1.8702   -4.2162   -2.5783 H   0  0  0  0  0  0  0  0  0  0  0  0
    0.9039   -3.0592   -1.6443 H   0  0  0  0  0  0  0  0  0  0  0  0
    2.1040   -3.3010    1.8396 H   0  0  0  0  0  0  0  0  0  0  0  0
    3.6934   -2.5418    2.8521 H   0  0  0  0  0  0  0  0  0  0  0  0
    6.3607   -2.8269    2.6889 H   0  0  0  0  0  0  0  0  0  0  0  0
    5.3476   -2.2101    5.9384 H   0  0  0  0  0  0  0  0  0  0  0  0
    4.1292   -1.7866    4.7705 H   0  0  0  0  0  0  0  0  0  0  0  0
    5.8147   -1.3461    4.4822 H   0  0  0  0  0  0  0  0  0  0  0  0
    7.3548   -5.0684    4.3144 H   0  0  0  0  0  0  0  0  0  0  0  0
    7.0120   -6.6850    3.5554 H   0  0  0  0  0  0  0  0  0  0  0  0
    7.8147   -5.8925    1.3314 H   0  0  0  0  0  0  0  0  0  0  0  0
    8.2585   -4.2798    2.0752 H   0  0  0  0  0  0  0  0  0  0  0  0
    3.4717    0.7002    3.5656 H   0  0  0  0  0  0  0  0  0  0  0  0
    2.6373   -0.6971    2.9053 H   0  0  0  0  0  0  0  0  0  0  0  0
    2.9388    0.7185    1.9037 H   0  0  0  0  0  0  0  0  0  0  0  0
    2.8289   -0.9518    0.2691 H   0  0  0  0  0  0  0  0  0  0  0  0
    4.1191    0.1208    0.0151 H   0  0  0  0  0  0  0  0  0  0  0  0
    3.4312   -1.7077   -1.9045 H   0  0  0  0  0  0  0  0  0  0  0  0
    4.9324   -0.8635   -1.7915 H   0  0  0  0  0  0  0  0  0  0  0  0
    6.2041   -2.5209   -3.0272 H   0  0  0  0  0  0  0  0  0  0  0  0
    6.1893   -4.2025   -2.5998 H   0  0  0  0  0  0  0  0  0  0  0  0
    3.9548   -4.1685   -3.2190 H   0  0  0  0  0  0  0  0  0  0  0  0
    6.6821   -3.4710    0.2931 H   0  0  0  0  0  0  0  0  0  0  0  0
    8.3105   -2.5146   -0.4930 H   0  0  0  0  0  0  0  0  0  0  0  0
    6.2650   -0.4919    0.2302 H   0  0  0  0  0  0  0  0  0  0  0  0
    6.9273   -1.3619    1.4916 H   0  0  0  0  0  0  0  0  0  0  0  0
    1.3708   -6.6272    3.1497 H   0  0  0  0  0  0  0  0  0  0  0  0
    0.6060   -5.6346    1.8162 H   0  0  0  0  0  0  0  0  0  0  0  0
    2.1385   -6.6254    0.2223 H   0  0  0  0  0  0  0  0  0  0  0  0
    3.7248   -6.4595    3.4628 H   0  0  0  0  0  0  0  0  0  0  0  0
    3.8688   -4.8771    3.6627 H   0  0  0  0  0  0  0  0  0  0  0  0
  1  2  1  0
  1 34  1  0
  1 35  1  0
  1 36  1  0
  2  3  1  0
  3 32  1  0
  3  4  1  0
  3 37  1  6
  5  4  1  6
  4 38  1  0
  4 39  1  0
  5 16  1  0
  5 33  1  0
  5  6  1  0
  6  7  1  0
  6 40  1  0
  6 41  1  0
  7 24  1  0
  7  8  1  0
  7 42  1  6
  8  9  1  0
  8 11  1  0
  8 43  1  1
  9 10  1  0
 10 44  1  0
 10 45  1  0
 10 46  1  0
 11 12  1  0
 11 30  1  0
 11 47  1  1
 12 13  1  0
 12 19  1  0
 12 48  1  1
 13 14  1  0
 13 16  1  0
 13 49  1  6
 14 15  1  0
 15 50  1  0
 15 51  1  0
 15 52  1  0
 16 18  1  0
 16 17  1  0
 17 18  1  0
 17 53  1  0
 17 54  1  0
 18 55  1  0
 18 56  1  0
 19 29  1  0
 19 20  1  1
 19 22  1  0
 20 21  1  0
 21 57  1  0
 21 58  1  0
 21 59  1  0
 22 23  1  0
 22 60  1  0
 22 61  1  0
 23 24  1  0
 23 62  1  0
 23 63  1  0
 24 25  1  6
 24 27  1  0
 25 26  1  0
 25 64  1  0
 25 65  1  0
 26 66  1  0
 27 28  1  0
 27 29  1  0
 27 67  1  1
 28 68  1  0
 29 69  1  0
 29 70  1  0
 30 32  1  0
 30 31  1  1
 30 33  1  0
 31 32  1  0
 31 71  1  0
 31 72  1  0
 32 73  1  6
 33 74  1  0
 33 75  1  0
M  END
>  <i_m_ct_stereo_status>  (145) 
1

>  <s_m_source_file>  (145) 
/var/tmp/pbs.5076255.sched01/tmpdonsa7tf/408ubvndgu.sdf

>  <i_m_source_file_index>  (145) 
26

>  <i_lp_mmshare_version>  (145) 
48012

>  <i_f3d_flags>  (145) 
0

>  <s_epik_input>  (145) 
W0NIM11PW0NASF0oW0NIMl0xKVtDQEBIXShbQ0gyXTIpW0NAQF0yKFtDSDJdMylbQ0BASF0oW0NASF00W0NAQEhdKE9bQ0gzXSlDNShbQ0BAXTEzNilbQ0gyXVtDSDJdNSlbQ0BIXShPW0NIM10pW0NASF0oW0NIMl02KVtDQEBdNyhbQ0gyXVtPSF0pW0NIMl1bQ0gyXVtDQF00KE9bQ0gzXSlbQ0gyXVtDQEBIXTdbT0hd

>  <s_epik_cmdline>  (145) 
J2VwaWtfcHl0aG9uJywgJy1waHQnLCAnMi4wJywgJy1waCcsICc3LjAnLCAnLXRuJywgJzgnLCAnLW1hJywgJzIwMCcsICctaW1hZScsICc8aW5maWxlLm1hZT4nLCAnLW9tYWUnLCAnPG91dGZpbGUubWFlPic=

>  <r_lp_tautomer_probability>  (145) 
1

>  <r_epik_Ionization_Penalty>  (145) 
4.2942e-07

>  <r_epik_Ionization_Penalty_Charging>  (145) 
0

>  <r_epik_Ionization_Penalty_Neutral>  (145) 
4.2942e-07

>  <r_epik_State_Penalty>  (145) 
-0

>  <r_epik_Charging_Adjusted_Penalty>  (145) 
0

>  <i_epik_Tot_Q>  (145) 
0

>  <i_epik_Tot_abs_Q>  (145) 
0

>  <s_lp_Force_Field>  (145) 
OPLS3e

>  <r_lp_Energy>  (145) 
207.779

>  <b_lp_Chiralities_Consistent>  (145) 
1

>  <s_lp_Variant>  (145) 
49:0-1

>  <s_i_glide_gridfile>  (145) 
pfpi4k_grid

>  <i_i_glide_lignum>  (145) 
26

>  <i_i_glide_rotatable_bonds>  (145) 
7

>  <r_i_docking_score>  (145) 
-3.46208

>  <r_i_glide_ligand_efficiency>  (145) 
-0.104911

>  <r_i_glide_ligand_efficiency_sa>  (145) 
-0.336507

>  <r_i_glide_ligand_efficiency_ln>  (145) 
-0.769948

>  <r_i_glide_gscore>  (145) 
-3.46208

>  <r_i_glide_lipo>  (145) 
-0.784745

>  <r_i_glide_hbond>  (145) 
-0.323691

>  <r_i_glide_metal>  (145) 
-0

>  <r_i_glide_rewards>  (145) 
-0.254872

>  <r_i_glide_evdw>  (145) 
-18.8881

>  <r_i_glide_ecoul>  (145) 
-8.32331

>  <r_i_glide_erotb>  (145) 
0.0941301

>  <r_i_glide_esite>  (145) 
0

>  <r_i_glide_emodel>  (145) 
-28.8262

>  <r_i_glide_energy>  (145) 
-27.2114

>  <r_i_glide_einternal>  (145) 
5.20672

>  <r_i_glide_intrahb_reward>  (145) 
-0

>  <i_i_glide_confnum>  (145) 
2

>  <i_i_glide_posenum>  (145) 
22

>  <r_i_glide_eff_state_penalty>  (145) 
0

>  <ligand_id>  (145) 
49

>  <original_smiles>  (145) 
COC1CC23CC4C(OC)C(C(C(OC)C25CC5)C2(OC)CCC4(CO)C(O)C2)C2(CC12)C3

>  <smiles>  (145) 
[H]OC([H])([H])C12C([H])([H])C([H])([H])C(OC([H])([H])[H])(C([H])([H])C1([H])O[H])C1([H])C([H])(OC([H])([H])[H])C3(C([H])([H])C3([H])[H])C34C([H])([H])C([H])(OC([H])([H])[H])C5([H])C([H])([H])C5(C3([H])[H])C1([H])C([H])(OC([H])([H])[H])C2([H])C4([H])[H]

$$$$
49:0:1
     RDKit          3D

 75 81  0  0  1  0  0  0  0  0999 V2000
    2.1571   -9.5971    2.0213 C   0  0  0  0  0  0  0  0  0  0  0  0
    3.2232   -8.7425    2.4132 O   0  0  0  0  0  0  0  0  0  0  0  0
    3.6624   -7.8526    1.3850 C   0  0  2  0  0  0  0  0  0  0  0  0
    5.1627   -7.3635    1.7109 C   0  0  0  0  0  0  0  0  0  0  0  0
    5.1771   -5.7912    1.7333 C   0  0  2  0  0  0  0  0  0  0  0  0
    5.0902   -5.3803    0.1567 C   0  0  0  0  0  0  0  0  0  0  0  0
    4.3273   -4.1606   -0.5267 C   0  0  1  0  0  0  0  0  0  0  0  0
    2.9383   -3.8136    0.0655 C   0  0  1  0  0  0  0  0  0  0  0  0
    1.8276   -4.5710   -0.4171 O   0  0  0  0  0  0  0  0  0  0  0  0
    1.1975   -4.1113   -1.6098 C   0  0  0  0  0  0  0  0  0  0  0  0
    3.0618   -3.8473    1.5709 C   0  0  2  0  0  0  0  0  0  0  0  0
    4.3608   -2.9063    2.1155 C   0  0  1  0  0  0  0  0  0  0  0  0
    5.6489   -3.5223    2.8781 C   0  0  1  0  0  0  0  0  0  0  0  0
    5.5678   -3.3730    4.3226 O   0  0  0  0  0  0  0  0  0  0  0  0
    4.5389   -3.9866    5.0878 C   0  0  0  0  0  0  0  0  0  0  0  0
    6.2242   -4.9393    2.4623 C   0  0  0  0  0  0  0  0  0  0  0  0
    7.1953   -5.6104    3.4153 C   0  0  0  0  0  0  0  0  0  0  0  0
    7.6812   -5.0965    2.0729 C   0  0  0  0  0  0  0  0  0  0  0  0
    4.7472   -1.4986    1.3862 C   0  0  2  0  0  0  0  0  0  0  0  0
    4.6580   -0.4893    2.4162 O   0  0  0  0  0  0  0  0  0  0  0  0
    3.3595    0.0218    2.7784 C   0  0  0  0  0  0  0  0  0  0  0  0
    3.9037   -0.9822    0.1851 C   0  0  0  0  0  0  0  0  0  0  0  0
    4.3259   -1.5877   -1.1968 C   0  0  0  0  0  0  0  0  0  0  0  0
    5.1685   -2.9188   -1.1165 C   0  0  2  0  0  0  0  0  0  0  0  0
    5.6134   -3.2475   -2.5856 C   0  0  0  0  0  0  0  0  0  0  0  0
    4.5461   -3.4544   -3.4963 O   0  0  0  0  0  0  0  0  0  0  0  0
    6.4433   -2.5805   -0.2454 C   0  0  1  0  0  0  0  0  0  0  0  0
    7.6188   -2.2636   -0.9867 O   0  0  0  0  0  0  0  0  0  0  0  0
    6.2003   -1.4350    0.7649 C   0  0  0  0  0  0  0  0  0  0  0  0
    2.8767   -5.3736    2.0372 C   0  0  1  0  0  0  0  0  0  0  0  0
    1.6017   -6.1467    2.2620 C   0  0  0  0  0  0  0  0  0  0  0  0
    2.6142   -6.6744    1.2255 C   0  0  2  0  0  0  0  0  0  0  0  0
    4.0242   -5.7389    2.7409 C   0  0  0  0  0  0  0  0  0  0  0  0
    1.8791  -10.2349    2.8604 H   0  0  0  0  0  0  0  0  0  0  0  0
    2.4513  -10.2514    1.2010 H   0  0  0  0  0  0  0  0  0  0  0  0
    1.2687   -9.0416    1.7205 H   0  0  0  0  0  0  0  0  0  0  0  0
    3.7135   -8.4155    0.4697 H   0  0  0  0  0  0  0  0  0  0  0  0
    5.4689   -7.7922    2.6683 H   0  0  0  0  0  0  0  0  0  0  0  0
    5.8840   -7.7533    1.0116 H   0  0  0  0  0  0  0  0  0  0  0  0
    6.1023   -5.3987   -0.2068 H   0  0  0  0  0  0  0  0  0  0  0  0
    4.6909   -6.2472   -0.3534 H   0  0  0  0  0  0  0  0  0  0  0  0
    4.0122   -4.6305   -1.4364 H   0  0  0  0  0  0  0  0  0  0  0  0
    2.5556   -2.8632   -0.2253 H   0  0  0  0  0  0  0  0  0  0  0  0
    0.3236   -4.7302   -1.7927 H   0  0  0  0  0  0  0  0  0  0  0  0
    1.8383   -4.1934   -2.4850 H   0  0  0  0  0  0  0  0  0  0  0  0
    0.8428   -3.0834   -1.5412 H   0  0  0  0  0  0  0  0  0  0  0  0
    2.1764   -3.3189    1.9353 H   0  0  0  0  0  0  0  0  0  0  0  0
    3.8374   -2.5097    2.9806 H   0  0  0  0  0  0  0  0  0  0  0  0
    6.4960   -2.8661    2.7201 H   0  0  0  0  0  0  0  0  0  0  0  0
    4.4443   -3.7545    6.0959 H   0  0  0  0  0  0  0  0  0  0  0  0
    4.6885   -5.1039    5.0863 H   0  0  0  0  0  0  0  0  0  0  0  0
    3.5539   -3.7494    4.6311 H   0  0  0  0  0  0  0  0  0  0  0  0
    7.5007   -5.0778    4.3141 H   0  0  0  0  0  0  0  0  0  0  0  0
    7.1143   -6.6828    3.5384 H   0  0  0  0  0  0  0  0  0  0  0  0
    7.9010   -5.8182    1.3045 H   0  0  0  0  0  0  0  0  0  0  0  0
    8.3116   -4.2081    2.0746 H   0  0  0  0  0  0  0  0  0  0  0  0
    3.4492    0.6504    3.6639 H   0  0  0  0  0  0  0  0  0  0  0  0
    2.6191   -0.7462    3.0153 H   0  0  0  0  0  0  0  0  0  0  0  0
    2.9408    0.6519    1.9952 H   0  0  0  0  0  0  0  0  0  0  0  0
    2.8315   -1.0107    0.4060 H   0  0  0  0  0  0  0  0  0  0  0  0
    4.0754    0.0870    0.0668 H   0  0  0  0  0  0  0  0  0  0  0  0
    3.4521   -1.6904   -1.8379 H   0  0  0  0  0  0  0  0  0  0  0  0
    4.9299   -0.8336   -1.7083 H   0  0  0  0  0  0  0  0  0  0  0  0
    6.2063   -2.4402   -3.0101 H   0  0  0  0  0  0  0  0  0  0  0  0
    6.2451   -4.1293   -2.6105 H   0  0  0  0  0  0  0  0  0  0  0  0
    4.0050   -4.1552   -3.1709 H   0  0  0  0  0  0  0  0  0  0  0  0
    6.7624   -3.4480    0.3116 H   0  0  0  0  0  0  0  0  0  0  0  0
    7.9375   -3.0472   -1.4196 H   0  0  0  0  0  0  0  0  0  0  0  0
    6.3536   -0.4824    0.2508 H   0  0  0  0  0  0  0  0  0  0  0  0
    7.0120   -1.4096    1.4823 H   0  0  0  0  0  0  0  0  0  0  0  0
    1.5010   -6.7085    3.1918 H   0  0  0  0  0  0  0  0  0  0  0  0
    0.6885   -5.6981    1.9110 H   0  0  0  0  0  0  0  0  0  0  0  0
    2.2725   -6.6154    0.2177 H   0  0  0  0  0  0  0  0  0  0  0  0
    3.9012   -6.5489    3.4903 H   0  0  0  0  0  0  0  0  0  0  0  0
    3.9679   -5.0097    3.3055 H   0  0  0  0  0  0  0  0  0  0  0  0
  1  2  1  0
  1 34  1  0
  1 35  1  0
  1 36  1  0
  2  3  1  0
  3 32  1  0
  3  4  1  0
  3 37  1  6
  5  4  1  6
  4 38  1  0
  4 39  1  0
  5 16  1  0
  5 33  1  0
  5  6  1  0
  6  7  1  0
  6 40  1  0
  6 41  1  0
  7 24  1  0
  7  8  1  0
  7 42  1  6
  8  9  1  0
  8 11  1  0
  8 43  1  1
  9 10  1  0
 10 44  1  0
 10 45  1  0
 10 46  1  0
 11 12  1  0
 11 30  1  0
 11 47  1  1
 12 13  1  0
 12 19  1  0
 12 48  1  1
 13 14  1  0
 13 16  1  0
 13 49  1  6
 14 15  1  0
 15 50  1  0
 15 51  1  0
 15 52  1  0
 16 18  1  0
 16 17  1  0
 17 18  1  0
 17 53  1  0
 17 54  1  0
 18 55  1  0
 18 56  1  0
 19 29  1  0
 19 20  1  1
 19 22  1  0
 20 21  1  0
 21 57  1  0
 21 58  1  0
 21 59  1  0
 22 23  1  0
 22 60  1  0
 22 61  1  0
 23 24  1  0
 23 62  1  0
 23 63  1  0
 24 25  1  6
 24 27  1  0
 25 26  1  0
 25 64  1  0
 25 65  1  0
 26 66  1  0
 27 28  1  0
 27 29  1  0
 27 67  1  1
 28 68  1  0
 29 69  1  0
 29 70  1  0
 30 32  1  0
 30 31  1  1
 30 33  1  0
 31 32  1  0
 31 71  1  0
 31 72  1  0
 32 73  1  6
 33 74  1  0
 33 75  1  0
M  END
>  <i_m_ct_stereo_status>  (146) 
1

>  <s_m_source_file>  (146) 
/var/tmp/pbs.5076255.sched01/tmpdonsa7tf/408ubvndgu.sdf

>  <i_m_source_file_index>  (146) 
26

>  <i_lp_mmshare_version>  (146) 
48012

>  <i_f3d_flags>  (146) 
0

>  <s_epik_input>  (146) 
W0NIM11PW0NASF0oW0NIMl0xKVtDQEBIXShbQ0gyXTIpW0NAQF0yKFtDSDJdMylbQ0BASF0oW0NASF00W0NAQEhdKE9bQ0gzXSlDNShbQ0BAXTEzNilbQ0gyXVtDSDJdNSlbQ0BIXShPW0NIM10pW0NASF0oW0NIMl02KVtDQEBdNyhbQ0gyXVtPSF0pW0NIMl1bQ0gyXVtDQF00KE9bQ0gzXSlbQ0gyXVtDQEBIXTdbT0hd

>  <s_epik_cmdline>  (146) 
J2VwaWtfcHl0aG9uJywgJy1waHQnLCAnMi4wJywgJy1waCcsICc3LjAnLCAnLXRuJywgJzgnLCAnLW1hJywgJzIwMCcsICctaW1hZScsICc8aW5maWxlLm1hZT4nLCAnLW9tYWUnLCAnPG91dGZpbGUubWFlPic=

>  <r_lp_tautomer_probability>  (146) 
1

>  <r_epik_Ionization_Penalty>  (146) 
4.2942e-07

>  <r_epik_Ionization_Penalty_Charging>  (146) 
0

>  <r_epik_Ionization_Penalty_Neutral>  (146) 
4.2942e-07

>  <r_epik_State_Penalty>  (146) 
-0

>  <r_epik_Charging_Adjusted_Penalty>  (146) 
0

>  <i_epik_Tot_Q>  (146) 
0

>  <i_epik_Tot_abs_Q>  (146) 
0

>  <s_lp_Force_Field>  (146) 
OPLS3e

>  <r_lp_Energy>  (146) 
207.779

>  <b_lp_Chiralities_Consistent>  (146) 
1

>  <s_lp_Variant>  (146) 
49:0-1

>  <s_i_glide_gridfile>  (146) 
pfpi4k_grid

>  <i_i_glide_lignum>  (146) 
26

>  <i_i_glide_rotatable_bonds>  (146) 
7

>  <r_i_docking_score>  (146) 
-2.64696

>  <r_i_glide_ligand_efficiency>  (146) 
-0.080211

>  <r_i_glide_ligand_efficiency_sa>  (146) 
-0.257279

>  <r_i_glide_ligand_efficiency_ln>  (146) 
-0.588671

>  <r_i_glide_gscore>  (146) 
-2.64696

>  <r_i_glide_lipo>  (146) 
-0.810434

>  <r_i_glide_hbond>  (146) 
-0.308245

>  <r_i_glide_metal>  (146) 
-0

>  <r_i_glide_rewards>  (146) 
-0.254872

>  <r_i_glide_evdw>  (146) 
-16.8244

>  <r_i_glide_ecoul>  (146) 
-9.02647

>  <r_i_glide_erotb>  (146) 
0.0941301

>  <r_i_glide_esite>  (146) 
0

>  <r_i_glide_emodel>  (146) 
-20.6808

>  <r_i_glide_energy>  (146) 
-25.8509

>  <r_i_glide_einternal>  (146) 
7.49718

>  <r_i_glide_intrahb_reward>  (146) 
-0

>  <i_i_glide_confnum>  (146) 
4

>  <i_i_glide_posenum>  (146) 
7

>  <r_i_glide_eff_state_penalty>  (146) 
0

>  <ligand_id>  (146) 
49

>  <original_smiles>  (146) 
COC1CC23CC4C(OC)C(C(C(OC)C25CC5)C2(OC)CCC4(CO)C(O)C2)C2(CC12)C3

>  <smiles>  (146) 
[H]OC([H])([H])C12C([H])([H])C([H])([H])C(OC([H])([H])[H])(C([H])([H])C1([H])O[H])C1([H])C([H])(OC([H])([H])[H])C3(C([H])([H])C3([H])[H])C34C([H])([H])C([H])(OC([H])([H])[H])C5([H])C([H])([H])C5(C3([H])[H])C1([H])C([H])(OC([H])([H])[H])C2([H])C4([H])[H]

$$$$
49:0:2
     RDKit          3D

 75 81  0  0  1  0  0  0  0  0999 V2000
    6.1533   -2.7006   -2.3627 C   0  0  0  0  0  0  0  0  0  0  0  0
    5.7598   -3.8540   -1.6341 O   0  0  0  0  0  0  0  0  0  0  0  0
    5.8150   -3.7148   -0.2196 C   0  0  2  0  0  0  0  0  0  0  0  0
    5.8097   -5.1583    0.4567 C   0  0  0  0  0  0  0  0  0  0  0  0
    4.6247   -5.2552    1.4745 C   0  0  2  0  0  0  0  0  0  0  0  0
    5.2287   -4.3754    2.7208 C   0  0  0  0  0  0  0  0  0  0  0  0
    4.4823   -3.3917    3.7298 C   0  0  1  0  0  0  0  0  0  0  0  0
    3.3808   -2.5249    3.0808 C   0  0  1  0  0  0  0  0  0  0  0  0
    3.8277   -1.3231    2.4625 O   0  0  0  0  0  0  0  0  0  0  0  0
    4.2763   -0.2782    3.3137 C   0  0  0  0  0  0  0  0  0  0  0  0
    2.5985   -3.4391    2.1572 C   0  0  2  0  0  0  0  0  0  0  0  0
    2.1050   -4.8499    2.9220 C   0  0  1  0  0  0  0  0  0  0  0  0
    2.6086   -6.3448    2.5166 C   0  0  1  0  0  0  0  0  0  0  0  0
    1.7050   -6.9910    1.6008 O   0  0  0  0  0  0  0  0  0  0  0  0
    0.4756   -7.4831    2.1277 C   0  0  0  0  0  0  0  0  0  0  0  0
    4.0758   -6.5620    2.0057 C   0  0  0  0  0  0  0  0  0  0  0  0
    4.4011   -7.8688    1.2967 C   0  0  0  0  0  0  0  0  0  0  0  0
    4.9761   -7.5951    2.6585 C   0  0  0  0  0  0  0  0  0  0  0  0
    1.6227   -4.8660    4.4770 C   0  0  2  0  0  0  0  0  0  0  0  0
    0.2589   -5.3237    4.4099 O   0  0  0  0  0  0  0  0  0  0  0  0
   -0.3837   -5.8988    5.5486 C   0  0  0  0  0  0  0  0  0  0  0  0
    1.5791   -3.5275    5.2658 C   0  0  0  0  0  0  0  0  0  0  0  0
    2.9653   -3.1253    5.8777 C   0  0  0  0  0  0  0  0  0  0  0  0
    4.2105   -3.8437    5.2426 C   0  0  2  0  0  0  0  0  0  0  0  0
    5.4543   -3.4370    6.1022 C   0  0  0  0  0  0  0  0  0  0  0  0
    5.6677   -2.0385    6.1762 O   0  0  0  0  0  0  0  0  0  0  0  0
    3.9586   -5.3931    5.3772 C   0  0  1  0  0  0  0  0  0  0  0  0
    4.5735   -5.9984    6.5030 O   0  0  0  0  0  0  0  0  0  0  0  0
    2.4668   -5.7711    5.4257 C   0  0  0  0  0  0  0  0  0  0  0  0
    3.3317   -3.4823    0.7467 C   0  0  1  0  0  0  0  0  0  0  0  0
    3.3290   -2.4766   -0.3714 C   0  0  0  0  0  0  0  0  0  0  0  0
    4.6594   -2.7916    0.2903 C   0  0  2  0  0  0  0  0  0  0  0  0
    3.5004   -4.8485    0.4572 C   0  0  0  0  0  0  0  0  0  0  0  0
    6.0393   -2.8953   -3.4321 H   0  0  0  0  0  0  0  0  0  0  0  0
    7.2003   -2.4580   -2.1772 H   0  0  0  0  0  0  0  0  0  0  0  0
    5.5425   -1.8304   -2.1192 H   0  0  0  0  0  0  0  0  0  0  0  0
    6.7551   -3.2266    0.0424 H   0  0  0  0  0  0  0  0  0  0  0  0
    5.7204   -5.9089   -0.3237 H   0  0  0  0  0  0  0  0  0  0  0  0
    6.7694   -5.3507    0.9386 H   0  0  0  0  0  0  0  0  0  0  0  0
    5.8690   -5.0307    3.3084 H   0  0  0  0  0  0  0  0  0  0  0  0
    5.9878   -3.7097    2.3120 H   0  0  0  0  0  0  0  0  0  0  0  0
    5.2743   -2.6607    3.8568 H   0  0  0  0  0  0  0  0  0  0  0  0
    2.6908   -2.0531    3.7480 H   0  0  0  0  0  0  0  0  0  0  0  0
    4.4208    0.6047    2.6957 H   0  0  0  0  0  0  0  0  0  0  0  0
    5.2336   -0.5141    3.7768 H   0  0  0  0  0  0  0  0  0  0  0  0
    3.5498   -0.0307    4.0893 H   0  0  0  0  0  0  0  0  0  0  0  0
    1.6843   -2.8846    1.9466 H   0  0  0  0  0  0  0  0  0  0  0  0
    1.1386   -4.8536    2.4285 H   0  0  0  0  0  0  0  0  0  0  0  0
    2.5430   -7.0301    3.3426 H   0  0  0  0  0  0  0  0  0  0  0  0
   -0.0190   -8.0901    1.3673 H   0  0  0  0  0  0  0  0  0  0  0  0
   -0.2104   -6.6762    2.3776 H   0  0  0  0  0  0  0  0  0  0  0  0
    0.6182   -8.1126    3.0063 H   0  0  0  0  0  0  0  0  0  0  0  0
    3.6140   -8.6168    1.2273 H   0  0  0  0  0  0  0  0  0  0  0  0
    5.0901   -7.8584    0.4590 H   0  0  0  0  0  0  0  0  0  0  0  0
    6.0378   -7.3726    2.7283 H   0  0  0  0  0  0  0  0  0  0  0  0
    4.5732   -8.1680    3.4919 H   0  0  0  0  0  0  0  0  0  0  0  0
   -1.4247   -6.0942    5.2952 H   0  0  0  0  0  0  0  0  0  0  0  0
   -0.3885   -5.2532    6.4262 H   0  0  0  0  0  0  0  0  0  0  0  0
    0.0567   -6.8568    5.8212 H   0  0  0  0  0  0  0  0  0  0  0  0
    1.0788   -2.7515    4.6894 H   0  0  0  0  0  0  0  0  0  0  0  0
    0.9169   -3.6132    6.1259 H   0  0  0  0  0  0  0  0  0  0  0  0
    3.0738   -2.0403    5.8750 H   0  0  0  0  0  0  0  0  0  0  0  0
    2.9486   -3.3880    6.9356 H   0  0  0  0  0  0  0  0  0  0  0  0
    5.3321   -3.7476    7.1393 H   0  0  0  0  0  0  0  0  0  0  0  0
    6.3580   -3.9285    5.7320 H   0  0  0  0  0  0  0  0  0  0  0  0
    5.8222   -1.7076    5.3018 H   0  0  0  0  0  0  0  0  0  0  0  0
    4.4072   -5.9093    4.5455 H   0  0  0  0  0  0  0  0  0  0  0  0
    4.1923   -5.6443    7.2938 H   0  0  0  0  0  0  0  0  0  0  0  0
    2.1158   -5.6209    6.4475 H   0  0  0  0  0  0  0  0  0  0  0  0
    2.3200   -6.8420    5.2980 H   0  0  0  0  0  0  0  0  0  0  0  0
    3.1752   -2.8376   -1.3872 H   0  0  0  0  0  0  0  0  0  0  0  0
    2.9107   -1.5020   -0.1650 H   0  0  0  0  0  0  0  0  0  0  0  0
    5.0939   -1.9249    0.7811 H   0  0  0  0  0  0  0  0  0  0  0  0
    3.7537   -5.0115   -0.5975 H   0  0  0  0  0  0  0  0  0  0  0  0
    2.5221   -5.3072    0.4092 H   0  0  0  0  0  0  0  0  0  0  0  0
  1  2  1  0
  1 34  1  0
  1 35  1  0
  1 36  1  0
  2  3  1  0
  3 32  1  0
  3  4  1  0
  3 37  1  6
  5  4  1  6
  4 38  1  0
  4 39  1  0
  5 16  1  0
  5 33  1  0
  5  6  1  0
  6  7  1  0
  6 40  1  0
  6 41  1  0
  7 24  1  0
  7  8  1  0
  7 42  1  1
  8  9  1  0
  8 11  1  0
  8 43  1  1
  9 10  1  0
 10 44  1  0
 10 45  1  0
 10 46  1  0
 11 12  1  0
 11 30  1  0
 11 47  1  6
 12 13  1  0
 12 19  1  0
 12 48  1  6
 13 14  1  0
 13 16  1  0
 13 49  1  1
 14 15  1  0
 15 50  1  0
 15 51  1  0
 15 52  1  0
 16 18  1  0
 16 17  1  0
 17 18  1  0
 17 53  1  0
 17 54  1  0
 18 55  1  0
 18 56  1  0
 19 29  1  0
 19 20  1  6
 19 22  1  0
 20 21  1  0
 21 57  1  0
 21 58  1  0
 21 59  1  0
 22 23  1  0
 22 60  1  0
 22 61  1  0
 23 24  1  0
 23 62  1  0
 23 63  1  0
 24 25  1  1
 24 27  1  0
 25 26  1  0
 25 64  1  0
 25 65  1  0
 26 66  1  0
 27 28  1  0
 27 29  1  0
 27 67  1  6
 28 68  1  0
 29 69  1  0
 29 70  1  0
 30 32  1  0
 30 31  1  6
 30 33  1  0
 31 32  1  0
 31 71  1  0
 31 72  1  0
 32 73  1  1
 33 74  1  0
 33 75  1  0
M  END
>  <i_m_ct_stereo_status>  (147) 
1

>  <s_m_source_file>  (147) 
/var/tmp/pbs.5076255.sched01/tmpdonsa7tf/408ubvndgu.sdf

>  <i_m_source_file_index>  (147) 
26

>  <i_lp_mmshare_version>  (147) 
48012

>  <i_f3d_flags>  (147) 
0

>  <s_epik_input>  (147) 
W0NIM11PW0NASF0oW0NIMl0xKVtDQEBIXShbQ0gyXTIpW0NAQF0yKFtDSDJdMylbQ0BASF0oW0NASF00W0NAQEhdKE9bQ0gzXSlDNShbQ0BAXTEzNilbQ0gyXVtDSDJdNSlbQ0BIXShPW0NIM10pW0NASF0oW0NIMl02KVtDQEBdNyhbQ0gyXVtPSF0pW0NIMl1bQ0gyXVtDQF00KE9bQ0gzXSlbQ0gyXVtDQEBIXTdbT0hd

>  <s_epik_cmdline>  (147) 
J2VwaWtfcHl0aG9uJywgJy1waHQnLCAnMi4wJywgJy1waCcsICc3LjAnLCAnLXRuJywgJzgnLCAnLW1hJywgJzIwMCcsICctaW1hZScsICc8aW5maWxlLm1hZT4nLCAnLW9tYWUnLCAnPG91dGZpbGUubWFlPic=

>  <r_lp_tautomer_probability>  (147) 
1

>  <r_epik_Ionization_Penalty>  (147) 
4.2942e-07

>  <r_epik_Ionization_Penalty_Charging>  (147) 
0

>  <r_epik_Ionization_Penalty_Neutral>  (147) 
4.2942e-07

>  <r_epik_State_Penalty>  (147) 
-0

>  <r_epik_Charging_Adjusted_Penalty>  (147) 
0

>  <i_epik_Tot_Q>  (147) 
0

>  <i_epik_Tot_abs_Q>  (147) 
0

>  <s_lp_Force_Field>  (147) 
OPLS3e

>  <r_lp_Energy>  (147) 
207.779

>  <b_lp_Chiralities_Consistent>  (147) 
1

>  <s_lp_Variant>  (147) 
49:0-1

>  <s_i_glide_gridfile>  (147) 
pfpi4k_grid

>  <i_i_glide_lignum>  (147) 
26

>  <i_i_glide_rotatable_bonds>  (147) 
7

>  <r_i_docking_score>  (147) 
-1.47054

>  <r_i_glide_ligand_efficiency>  (147) 
-0.0445618

>  <r_i_glide_ligand_efficiency_sa>  (147) 
-0.142933

>  <r_i_glide_ligand_efficiency_ln>  (147) 
-0.32704

>  <r_i_glide_gscore>  (147) 
-1.47054

>  <r_i_glide_lipo>  (147) 
-0.400267

>  <r_i_glide_hbond>  (147) 
0

>  <r_i_glide_metal>  (147) 
-0

>  <r_i_glide_rewards>  (147) 
-0.254872

>  <r_i_glide_evdw>  (147) 
-20.4514

>  <r_i_glide_ecoul>  (147) 
0.75361

>  <r_i_glide_erotb>  (147) 
0.0941301

>  <r_i_glide_esite>  (147) 
0

>  <r_i_glide_emodel>  (147) 
-21.7976

>  <r_i_glide_energy>  (147) 
-19.6978

>  <r_i_glide_einternal>  (147) 
0.348637

>  <r_i_glide_intrahb_reward>  (147) 
-0

>  <i_i_glide_confnum>  (147) 
4

>  <i_i_glide_posenum>  (147) 
4

>  <r_i_glide_eff_state_penalty>  (147) 
0

>  <ligand_id>  (147) 
49

>  <original_smiles>  (147) 
COC1CC23CC4C(OC)C(C(C(OC)C25CC5)C2(OC)CCC4(CO)C(O)C2)C2(CC12)C3

>  <smiles>  (147) 
[H]OC([H])([H])C12C([H])([H])C([H])([H])C(OC([H])([H])[H])(C([H])([H])C1([H])O[H])C1([H])C([H])(OC([H])([H])[H])C3(C([H])([H])C3([H])[H])C34C([H])([H])C([H])(OC([H])([H])[H])C5([H])C([H])([H])C5(C3([H])[H])C1([H])C([H])(OC([H])([H])[H])C2([H])C4([H])[H]

$$$$
51:0:0
     RDKit          3D

 68 72  0  0  1  0  0  0  0  0999 V2000
    5.4248   -2.5668    3.0341 O   0  0  0  0  0  0  0  0  0  0  0  0
    4.8030   -1.9829    2.1627 C   0  0  0  0  0  0  0  0  0  0  0  0
    3.6063   -1.4618    2.3754 N   0  0  0  0  0  0  0  0  0  0  0  0
    2.9380   -1.2533    3.6724 C   0  0  2  0  0  0  0  0  0  0  0  0
    1.4028   -1.2533    3.4795 C   0  0  0  0  0  0  0  0  0  0  0  0
    0.8097    0.1420    3.1379 C   0  0  2  0  0  0  0  0  0  0  0  0
    1.4515    0.7371    1.8671 C   0  0  0  0  0  0  0  0  0  0  0  0
    2.6594    1.5367    2.4080 C   0  0  0  0  0  0  0  0  0  0  0  0
    2.6315    1.3260    3.9250 C   0  0  2  0  0  0  0  0  0  0  0  0
    3.4270    0.0614    4.3499 C   0  0  0  0  0  0  0  0  0  0  0  0
    1.1997    1.1339    4.1599 N   0  0  2  0  0  0  0  0  0  0  0  0
    0.7460    0.9467    5.5705 C   0  0  0  0  0  0  0  0  0  0  0  0
   -0.7331    1.3330    5.7064 C   0  0  0  0  0  0  0  0  0  0  0  0
   -1.0331    2.7865    5.3427 C   0  0  0  0  0  0  0  0  0  0  0  0
   -2.2756    3.1759    6.1447 C   0  0  0  0  0  0  0  0  0  0  0  0
   -2.4977    2.0674    7.1810 C   0  0  0  0  0  0  0  0  0  0  0  0
   -1.2453    1.2043    7.1276 C   0  0  0  0  0  0  0  0  0  0  0  0
    5.2488   -1.8513    0.8638 N   0  0  0  0  0  0  0  0  0  0  0  0
    6.4215   -2.6037    0.4162 C   0  0  0  0  0  0  0  0  0  0  0  0
    6.4134   -3.0215   -1.0746 C   0  0  0  0  0  0  0  0  0  0  0  0
    5.0802   -3.5824   -1.6311 C   0  0  1  0  0  0  0  0  0  0  0  0
    4.4693   -4.4808   -0.7221 O   0  0  0  0  0  0  0  0  0  0  0  0
    4.0966   -2.5011   -2.1187 C   0  0  0  0  0  0  0  0  0  0  0  0
    4.5868   -1.6633   -3.3101 C   0  0  0  0  0  0  0  0  0  0  0  0
    3.2125   -1.7684   -3.9397 C   0  0  0  0  0  0  0  0  0  0  0  0
    3.0027   -3.0084   -3.0831 C   0  0  0  0  0  0  0  0  0  0  0  0
    3.5805   -1.6543   -0.9468 C   0  0  0  0  0  0  0  0  0  0  0  0
    4.6594   -0.9384   -0.1259 C   0  0  0  0  0  0  0  0  0  0  0  0
    3.1455   -1.0662    1.5702 H   0  0  0  0  0  0  0  0  0  0  0  0
    3.1979   -2.0933    4.3215 H   0  0  0  0  0  0  0  0  0  0  0  0
    1.1316   -1.9651    2.7004 H   0  0  0  0  0  0  0  0  0  0  0  0
    0.9390   -1.6403    4.3854 H   0  0  0  0  0  0  0  0  0  0  0  0
   -0.2780    0.0918    3.0196 H   0  0  0  0  0  0  0  0  0  0  0  0
    1.7144   -0.0170    1.1280 H   0  0  0  0  0  0  0  0  0  0  0  0
    0.7660    1.4228    1.3669 H   0  0  0  0  0  0  0  0  0  0  0  0
    3.6240    1.2400    2.0053 H   0  0  0  0  0  0  0  0  0  0  0  0
    2.5366    2.5937    2.1638 H   0  0  0  0  0  0  0  0  0  0  0  0
    2.9942    2.2094    4.4451 H   0  0  0  0  0  0  0  0  0  0  0  0
    3.3150   -0.0593    5.4257 H   0  0  0  0  0  0  0  0  0  0  0  0
    4.4985    0.2184    4.1956 H   0  0  0  0  0  0  0  0  0  0  0  0
    0.9013   -0.0648    5.9650 H   0  0  0  0  0  0  0  0  0  0  0  0
    1.3318    1.5661    6.2604 H   0  0  0  0  0  0  0  0  0  0  0  0
   -1.3459    0.6880    5.0797 H   0  0  0  0  0  0  0  0  0  0  0  0
   -0.2012    3.4406    5.6252 H   0  0  0  0  0  0  0  0  0  0  0  0
   -1.1929    2.9039    4.2670 H   0  0  0  0  0  0  0  0  0  0  0  0
   -2.1150    4.1315    6.6402 H   0  0  0  0  0  0  0  0  0  0  0  0
   -3.1454    3.2681    5.4962 H   0  0  0  0  0  0  0  0  0  0  0  0
   -2.6856    2.4725    8.1819 H   0  0  0  0  0  0  0  0  0  0  0  0
   -3.3742    1.4825    6.8899 H   0  0  0  0  0  0  0  0  0  0  0  0
   -1.4073    0.1537    7.3608 H   0  0  0  0  0  0  0  0  0  0  0  0
   -0.5147    1.6045    7.8348 H   0  0  0  0  0  0  0  0  0  0  0  0
    7.3272   -2.0433    0.6551 H   0  0  0  0  0  0  0  0  0  0  0  0
    6.4756   -3.5368    0.9765 H   0  0  0  0  0  0  0  0  0  0  0  0
    6.7398   -2.1817   -1.6819 H   0  0  0  0  0  0  0  0  0  0  0  0
    7.1838   -3.7721   -1.2203 H   0  0  0  0  0  0  0  0  0  0  0  0
    5.3421   -4.2069   -2.4899 H   0  0  0  0  0  0  0  0  0  0  0  0
    3.7871   -4.9481   -1.2012 H   0  0  0  0  0  0  0  0  0  0  0  0
    4.8752   -0.6385   -3.0785 H   0  0  0  0  0  0  0  0  0  0  0  0
    5.3456   -2.1833   -3.8896 H   0  0  0  0  0  0  0  0  0  0  0  0
    2.5608   -0.9273   -3.6863 H   0  0  0  0  0  0  0  0  0  0  0  0
    3.2458   -1.9510   -5.0122 H   0  0  0  0  0  0  0  0  0  0  0  0
    3.2896   -3.9139   -3.6153 H   0  0  0  0  0  0  0  0  0  0  0  0
    2.0132   -3.1022   -2.6368 H   0  0  0  0  0  0  0  0  0  0  0  0
    2.9705   -0.8543   -1.3526 H   0  0  0  0  0  0  0  0  0  0  0  0
    2.8972   -2.2273   -0.3157 H   0  0  0  0  0  0  0  0  0  0  0  0
    4.2102   -0.0494    0.3130 H   0  0  0  0  0  0  0  0  0  0  0  0
    5.4353   -0.5136   -0.7678 H   0  0  0  0  0  0  0  0  0  0  0  0
    0.8008    2.0000    3.8156 H   0  0  0  0  0  0  0  0  0  0  0  0
  1  2  2  0
  2  3  1  0
  2 18  1  0
  3  4  1  0
  3 29  1  0
  4 10  1  0
  4  5  1  0
  4 30  1  1
  5  6  1  0
  5 31  1  0
  5 32  1  0
  6 11  1  0
  6  7  1  0
  6 33  1  6
  7  8  1  0
  7 34  1  0
  7 35  1  0
  8  9  1  0
  8 36  1  0
  8 37  1  0
  9 10  1  0
  9 11  1  0
  9 38  1  1
 10 39  1  0
 10 40  1  0
 11 12  1  0
 11 68  1  6
 12 13  1  0
 12 41  1  0
 12 42  1  0
 13 17  1  0
 13 14  1  0
 13 43  1  0
 14 15  1  0
 14 44  1  0
 14 45  1  0
 15 16  1  0
 15 46  1  0
 15 47  1  0
 16 17  1  0
 16 48  1  0
 16 49  1  0
 17 50  1  0
 17 51  1  0
 18 28  1  0
 18 19  1  0
 19 20  1  0
 19 52  1  0
 19 53  1  0
 20 21  1  0
 20 54  1  0
 20 55  1  0
 21 22  1  0
 21 23  1  0
 21 56  1  6
 22 57  1  0
 23 26  1  0
 23 24  1  0
 23 27  1  0
 24 25  1  0
 24 58  1  0
 24 59  1  0
 25 26  1  0
 25 60  1  0
 25 61  1  0
 26 62  1  0
 26 63  1  0
 27 28  1  0
 27 64  1  0
 27 65  1  0
 28 66  1  0
 28 67  1  0
M  CHG  1  11   1
M  END
>  <i_m_ct_stereo_status>  (148) 
1

>  <s_m_source_file>  (148) 
/var/tmp/pbs.5076255.sched01/tmpdonsa7tf/408ubvndgu.sdf

>  <i_m_source_file_index>  (148) 
29

>  <i_lp_mmshare_version>  (148) 
48012

>  <i_f3d_flags>  (148) 
0

>  <s_epik_input>  (148) 
W0NIMl0xW0NIMl1bQ0gyXUMxMltDQEhdKFtPSF0pW0NIMl1bQ0gyXU4oW0NIMl1bQ0gyXTIpQyg9TylbTkhdW0NASF0oW0NIMl1bQ0BIXTM0KVtDSDJdW0NAQEhdKFtDSDJdW0NIMl0zKU40W0NIMl1bQ0hdNVtDSDJdW0NIMl1bQ0gyXVtDSDJdNQ==

>  <s_epik_cmdline>  (148) 
J2VwaWtfcHl0aG9uJywgJy1waHQnLCAnMi4wJywgJy1waCcsICc3LjAnLCAnLXRuJywgJzgnLCAnLW1hJywgJzIwMCcsICctaW1hZScsICc8aW5maWxlLm1hZT4nLCAnLW9tYWUnLCAnPG91dGZpbGUubWFlPic=

>  <r_lp_tautomer_probability>  (148) 
1

>  <r_epik_Ionization_Penalty>  (148) 
0.000198586

>  <r_epik_Ionization_Penalty_Charging>  (148) 
0.000142639

>  <r_epik_Ionization_Penalty_Neutral>  (148) 
5.59474e-05

>  <r_epik_State_Penalty>  (148) 
-0

>  <r_epik_Charging_Adjusted_Penalty>  (148) 
0.000142639

>  <i_epik_Tot_Q>  (148) 
1

>  <i_epik_Tot_abs_Q>  (148) 
1

>  <s_lp_Force_Field>  (148) 
OPLS3e

>  <r_lp_Energy>  (148) 
59.388

>  <b_lp_Chiralities_Consistent>  (148) 
1

>  <s_lp_Variant>  (148) 
51:0-1

>  <s_i_glide_gridfile>  (148) 
pfpi4k_grid

>  <i_i_glide_lignum>  (148) 
29

>  <i_i_glide_rotatable_bonds>  (148) 
6

>  <r_i_docking_score>  (148) 
-3.53938

>  <r_i_glide_ligand_efficiency>  (148) 
-0.126407

>  <r_i_glide_ligand_efficiency_sa>  (148) 
-0.383845

>  <r_i_glide_ligand_efficiency_ln>  (148) 
-0.816994

>  <r_i_glide_gscore>  (148) 
-3.53938

>  <r_i_glide_lipo>  (148) 
-0.451188

>  <r_i_glide_hbond>  (148) 
-0.32

>  <r_i_glide_metal>  (148) 
-0

>  <r_i_glide_rewards>  (148) 
-0.902763

>  <r_i_glide_evdw>  (148) 
-32.6695

>  <r_i_glide_ecoul>  (148) 
-5.74873

>  <r_i_glide_erotb>  (148) 
0.639309

>  <r_i_glide_esite>  (148) 
-0.00895675

>  <r_i_glide_emodel>  (148) 
-45.8805

>  <r_i_glide_energy>  (148) 
-38.4183

>  <r_i_glide_einternal>  (148) 
2.45847

>  <r_i_glide_intrahb_reward>  (148) 
-0

>  <i_i_glide_confnum>  (148) 
5

>  <i_i_glide_posenum>  (148) 
18

>  <r_i_glide_eff_state_penalty>  (148) 
0

>  <ligand_id>  (148) 
51

>  <original_smiles>  (148) 
O=C(NC1CC2CCC(C1)N2CC1CCCC1)N1CCC(O)C2(CCC2)CC1

>  <smiles>  (148) 
[H]OC1([H])C([H])([H])C([H])([H])N(C(=O)N([H])C2([H])C([H])([H])C3([H])C([H])([H])C([H])([H])C([H])(C2([H])[H])[N+]3([H])C([H])([H])C2([H])C([H])([H])C([H])([H])C([H])([H])C2([H])[H])C([H])([H])C([H])([H])C12C([H])([H])C([H])([H])C2([H])[H]

$$$$
51:0:1
     RDKit          3D

 68 72  0  0  1  0  0  0  0  0999 V2000
    5.4112   -2.3845    3.2716 O   0  0  0  0  0  0  0  0  0  0  0  0
    4.8848   -1.7080    2.3967 C   0  0  0  0  0  0  0  0  0  0  0  0
    3.7849   -0.9929    2.6281 N   0  0  0  0  0  0  0  0  0  0  0  0
    3.2190   -0.6167    3.9284 C   0  0  2  0  0  0  0  0  0  0  0  0
    1.6997   -0.9058    3.9478 C   0  0  0  0  0  0  0  0  0  0  0  0
    0.8396    0.2563    3.3864 C   0  0  2  0  0  0  0  0  0  0  0  0
    1.2522    0.6365    1.9533 C   0  0  0  0  0  0  0  0  0  0  0  0
    2.3337    1.7267    2.1489 C   0  0  0  0  0  0  0  0  0  0  0  0
    2.4684    1.8703    3.6703 C   0  0  2  0  0  0  0  0  0  0  0  0
    3.5186    0.8759    4.2538 C   0  0  0  0  0  0  0  0  0  0  0  0
    1.1181    1.5080    4.1260 N   0  0  2  0  0  0  0  0  0  0  0  0
    0.8432    1.5625    5.5854 C   0  0  0  0  0  0  0  0  0  0  0  0
   -0.6690    1.6208    5.8413 C   0  0  0  0  0  0  0  0  0  0  0  0
   -1.3186    2.9348    5.3891 C   0  0  0  0  0  0  0  0  0  0  0  0
   -2.5612    3.1167    6.2695 C   0  0  0  0  0  0  0  0  0  0  0  0
   -2.4488    2.0818    7.3981 C   0  0  0  0  0  0  0  0  0  0  0  0
   -1.0485    1.5078    7.3100 C   0  0  0  0  0  0  0  0  0  0  0  0
    5.2965   -1.6931    1.0925 N   0  0  0  0  0  0  0  0  0  0  0  0
    6.4102   -2.5542    0.6685 C   0  0  0  0  0  0  0  0  0  0  0  0
    6.3548   -3.0498   -0.8023 C   0  0  0  0  0  0  0  0  0  0  0  0
    4.9709   -3.5471   -1.3044 C   0  0  1  0  0  0  0  0  0  0  0  0
    4.2985   -4.3149   -0.3221 O   0  0  0  0  0  0  0  0  0  0  0  0
    4.0642   -2.4249   -1.8397 C   0  0  0  0  0  0  0  0  0  0  0  0
    4.5934   -1.6916   -3.0920 C   0  0  0  0  0  0  0  0  0  0  0  0
    3.1974   -1.7420   -3.6957 C   0  0  0  0  0  0  0  0  0  0  0  0
    2.9219   -2.9031   -2.7563 C   0  0  0  0  0  0  0  0  0  0  0  0
    3.6222   -1.4891   -0.7070 C   0  0  0  0  0  0  0  0  0  0  0  0
    4.7633   -0.7990    0.0519 C   0  0  0  0  0  0  0  0  0  0  0  0
    3.3343   -0.5930    1.8145 H   0  0  0  0  0  0  0  0  0  0  0  0
    3.6845   -1.2200    4.7060 H   0  0  0  0  0  0  0  0  0  0  0  0
    1.4955   -1.8238    3.3903 H   0  0  0  0  0  0  0  0  0  0  0  0
    1.4013   -1.1386    4.9740 H   0  0  0  0  0  0  0  0  0  0  0  0
   -0.2188   -0.0020    3.4184 H   0  0  0  0  0  0  0  0  0  0  0  0
    1.5831   -0.2161    1.3680 H   0  0  0  0  0  0  0  0  0  0  0  0
    0.4081    1.0624    1.4082 H   0  0  0  0  0  0  0  0  0  0  0  0
    3.2941    1.4982    1.7034 H   0  0  0  0  0  0  0  0  0  0  0  0
    1.9976    2.6654    1.7043 H   0  0  0  0  0  0  0  0  0  0  0  0
    2.7169    2.8963    3.9483 H   0  0  0  0  0  0  0  0  0  0  0  0
    3.5358    0.9921    5.3410 H   0  0  0  0  0  0  0  0  0  0  0  0
    4.5247    1.1521    3.9285 H   0  0  0  0  0  0  0  0  0  0  0  0
    1.2800    0.7300    6.1281 H   0  0  0  0  0  0  0  0  0  0  0  0
    1.3149    2.4395    6.0288 H   0  0  0  0  0  0  0  0  0  0  0  0
   -1.1739    0.8034    5.3298 H   0  0  0  0  0  0  0  0  0  0  0  0
   -0.6427    3.7823    5.5462 H   0  0  0  0  0  0  0  0  0  0  0  0
   -1.5760    2.9189    4.3239 H   0  0  0  0  0  0  0  0  0  0  0  0
   -2.6002    4.1325    6.6697 H   0  0  0  0  0  0  0  0  0  0  0  0
   -3.4747    2.9540    5.6903 H   0  0  0  0  0  0  0  0  0  0  0  0
   -2.6638    2.5187    8.3763 H   0  0  0  0  0  0  0  0  0  0  0  0
   -3.1842    1.2958    7.2189 H   0  0  0  0  0  0  0  0  0  0  0  0
   -0.9894    0.4747    7.6563 H   0  0  0  0  0  0  0  0  0  0  0  0
   -0.3660    2.1046    7.9221 H   0  0  0  0  0  0  0  0  0  0  0  0
    7.3622   -2.0531    0.8578 H   0  0  0  0  0  0  0  0  0  0  0  0
    6.4142   -3.4637    1.2764 H   0  0  0  0  0  0  0  0  0  0  0  0
    6.7216   -2.2633   -1.4636 H   0  0  0  0  0  0  0  0  0  0  0  0
    7.0775   -3.8582   -0.9179 H   0  0  0  0  0  0  0  0  0  0  0  0
    5.1672   -4.2452   -2.1251 H   0  0  0  0  0  0  0  0  0  0  0  0
    4.7787   -5.1201   -0.1849 H   0  0  0  0  0  0  0  0  0  0  0  0
    4.9535   -0.6783   -2.9105 H   0  0  0  0  0  0  0  0  0  0  0  0
    5.3243   -2.2837   -3.6417 H   0  0  0  0  0  0  0  0  0  0  0  0
    2.6165   -0.8465   -3.4757 H   0  0  0  0  0  0  0  0  0  0  0  0
    3.1619   -2.0076   -4.7418 H   0  0  0  0  0  0  0  0  0  0  0  0
    3.1343   -3.8567   -3.2336 H   0  0  0  0  0  0  0  0  0  0  0  0
    1.9383   -2.9047   -2.2837 H   0  0  0  0  0  0  0  0  0  0  0  0
    3.0143   -0.7178   -1.1530 H   0  0  0  0  0  0  0  0  0  0  0  0
    2.9345   -2.0009   -0.0273 H   0  0  0  0  0  0  0  0  0  0  0  0
    4.3930    0.1416    0.4463 H   0  0  0  0  0  0  0  0  0  0  0  0
    5.5525   -0.4665   -0.6239 H   0  0  0  0  0  0  0  0  0  0  0  0
    0.5310    2.2071    3.6834 H   0  0  0  0  0  0  0  0  0  0  0  0
  1  2  2  0
  2  3  1  0
  2 18  1  0
  3  4  1  0
  3 29  1  0
  4 10  1  0
  4  5  1  0
  4 30  1  1
  5  6  1  0
  5 31  1  0
  5 32  1  0
  6 11  1  0
  6  7  1  0
  6 33  1  6
  7  8  1  0
  7 34  1  0
  7 35  1  0
  8  9  1  0
  8 36  1  0
  8 37  1  0
  9 10  1  0
  9 11  1  0
  9 38  1  6
 10 39  1  0
 10 40  1  0
 11 12  1  0
 11 68  1  6
 12 13  1  0
 12 41  1  0
 12 42  1  0
 13 17  1  0
 13 14  1  0
 13 43  1  0
 14 15  1  0
 14 44  1  0
 14 45  1  0
 15 16  1  0
 15 46  1  0
 15 47  1  0
 16 17  1  0
 16 48  1  0
 16 49  1  0
 17 50  1  0
 17 51  1  0
 18 28  1  0
 18 19  1  0
 19 20  1  0
 19 52  1  0
 19 53  1  0
 20 21  1  0
 20 54  1  0
 20 55  1  0
 21 22  1  0
 21 23  1  0
 21 56  1  6
 22 57  1  0
 23 26  1  0
 23 24  1  0
 23 27  1  0
 24 25  1  0
 24 58  1  0
 24 59  1  0
 25 26  1  0
 25 60  1  0
 25 61  1  0
 26 62  1  0
 26 63  1  0
 27 28  1  0
 27 64  1  0
 27 65  1  0
 28 66  1  0
 28 67  1  0
M  CHG  1  11   1
M  END
>  <i_m_ct_stereo_status>  (149) 
1

>  <s_m_source_file>  (149) 
/var/tmp/pbs.5076255.sched01/tmpdonsa7tf/408ubvndgu.sdf

>  <i_m_source_file_index>  (149) 
29

>  <i_lp_mmshare_version>  (149) 
48012

>  <i_f3d_flags>  (149) 
0

>  <s_epik_input>  (149) 
W0NIMl0xW0NIMl1bQ0gyXUMxMltDQEhdKFtPSF0pW0NIMl1bQ0gyXU4oW0NIMl1bQ0gyXTIpQyg9TylbTkhdW0NASF0oW0NIMl1bQ0BIXTM0KVtDSDJdW0NAQEhdKFtDSDJdW0NIMl0zKU40W0NIMl1bQ0hdNVtDSDJdW0NIMl1bQ0gyXVtDSDJdNQ==

>  <s_epik_cmdline>  (149) 
J2VwaWtfcHl0aG9uJywgJy1waHQnLCAnMi4wJywgJy1waCcsICc3LjAnLCAnLXRuJywgJzgnLCAnLW1hJywgJzIwMCcsICctaW1hZScsICc8aW5maWxlLm1hZT4nLCAnLW9tYWUnLCAnPG91dGZpbGUubWFlPic=

>  <r_lp_tautomer_probability>  (149) 
1

>  <r_epik_Ionization_Penalty>  (149) 
0.000198586

>  <r_epik_Ionization_Penalty_Charging>  (149) 
0.000142639

>  <r_epik_Ionization_Penalty_Neutral>  (149) 
5.59474e-05

>  <r_epik_State_Penalty>  (149) 
-0

>  <r_epik_Charging_Adjusted_Penalty>  (149) 
0.000142639

>  <i_epik_Tot_Q>  (149) 
1

>  <i_epik_Tot_abs_Q>  (149) 
1

>  <s_lp_Force_Field>  (149) 
OPLS3e

>  <r_lp_Energy>  (149) 
59.388

>  <b_lp_Chiralities_Consistent>  (149) 
1

>  <s_lp_Variant>  (149) 
51:0-1

>  <s_i_glide_gridfile>  (149) 
pfpi4k_grid

>  <i_i_glide_lignum>  (149) 
29

>  <i_i_glide_rotatable_bonds>  (149) 
6

>  <r_i_docking_score>  (149) 
-3.04171

>  <r_i_glide_ligand_efficiency>  (149) 
-0.108632

>  <r_i_glide_ligand_efficiency_sa>  (149) 
-0.329872

>  <r_i_glide_ligand_efficiency_ln>  (149) 
-0.702116

>  <r_i_glide_gscore>  (149) 
-3.04171

>  <r_i_glide_lipo>  (149) 
-0.569049

>  <r_i_glide_hbond>  (149) 
0

>  <r_i_glide_metal>  (149) 
-0

>  <r_i_glide_rewards>  (149) 
-0.953519

>  <r_i_glide_evdw>  (149) 
-34.8563

>  <r_i_glide_ecoul>  (149) 
-2.70153

>  <r_i_glide_erotb>  (149) 
0.639309

>  <r_i_glide_esite>  (149) 
-0.0104069

>  <r_i_glide_emodel>  (149) 
-43.5822

>  <r_i_glide_energy>  (149) 
-37.5578

>  <r_i_glide_einternal>  (149) 
2.54025

>  <r_i_glide_intrahb_reward>  (149) 
-0

>  <i_i_glide_confnum>  (149) 
3

>  <i_i_glide_posenum>  (149) 
27

>  <r_i_glide_eff_state_penalty>  (149) 
0

>  <ligand_id>  (149) 
51

>  <original_smiles>  (149) 
O=C(NC1CC2CCC(C1)N2CC1CCCC1)N1CCC(O)C2(CCC2)CC1

>  <smiles>  (149) 
[H]OC1([H])C([H])([H])C([H])([H])N(C(=O)N([H])C2([H])C([H])([H])C3([H])C([H])([H])C([H])([H])C([H])(C2([H])[H])[N+]3([H])C([H])([H])C2([H])C([H])([H])C([H])([H])C([H])([H])C2([H])[H])C([H])([H])C([H])([H])C12C([H])([H])C([H])([H])C2([H])[H]

$$$$
51:0:2
     RDKit          3D

 68 72  0  0  1  0  0  0  0  0999 V2000
    5.4117   -2.3481    3.2486 O   0  0  0  0  0  0  0  0  0  0  0  0
    4.8288   -1.7298    2.3808 C   0  0  0  0  0  0  0  0  0  0  0  0
    3.6713   -1.1091    2.5888 N   0  0  0  0  0  0  0  0  0  0  0  0
    3.0735   -0.7566    3.8873 C   0  0  2  0  0  0  0  0  0  0  0  0
    1.5406   -0.9388    3.8306 C   0  0  0  0  0  0  0  0  0  0  0  0
    0.7813    0.3136    3.3046 C   0  0  2  0  0  0  0  0  0  0  0  0
    1.2754    0.7439    1.9108 C   0  0  0  0  0  0  0  0  0  0  0  0
    2.4121    1.7473    2.2184 C   0  0  0  0  0  0  0  0  0  0  0  0
    2.5012    1.7885    3.7480 C   0  0  2  0  0  0  0  0  0  0  0  0
    3.4600    0.6963    4.3014 C   0  0  0  0  0  0  0  0  0  0  0  0
    1.1140    1.4996    4.1270 N   0  0  2  0  0  0  0  0  0  0  0  0
    0.7772    1.4926    5.5739 C   0  0  0  0  0  0  0  0  0  0  0  0
   -0.7417    1.5800    5.7811 C   0  0  0  0  0  0  0  0  0  0  0  0
   -1.3443    2.8958    5.2808 C   0  0  0  0  0  0  0  0  0  0  0  0
   -2.6099    3.1137    6.1135 C   0  0  0  0  0  0  0  0  0  0  0  0
   -2.5664    2.1032    7.2649 C   0  0  0  0  0  0  0  0  0  0  0  0
   -1.1645    1.5010    7.2364 C   0  0  0  0  0  0  0  0  0  0  0  0
    5.2479   -1.6891    1.0596 N   0  0  0  0  0  0  0  0  0  0  0  0
    6.4015   -2.4916    0.6475 C   0  0  0  0  0  0  0  0  0  0  0  0
    6.3825   -2.9617   -0.8302 C   0  0  0  0  0  0  0  0  0  0  0  0
    5.0341   -3.5010   -1.3656 C   0  0  1  0  0  0  0  0  0  0  0  0
    4.3882   -4.2958   -0.3920 O   0  0  0  0  0  0  0  0  0  0  0  0
    4.0880   -2.4069   -1.9017 C   0  0  0  0  0  0  0  0  0  0  0  0
    4.6071   -1.6340   -3.1261 C   0  0  0  0  0  0  0  0  0  0  0  0
    3.2241   -1.7283   -3.7554 C   0  0  0  0  0  0  0  0  0  0  0  0
    2.9774   -2.9192   -2.8408 C   0  0  0  0  0  0  0  0  0  0  0  0
    3.5988   -1.5009   -0.7603 C   0  0  0  0  0  0  0  0  0  0  0  0
    4.7001   -0.7955    0.0373 C   0  0  0  0  0  0  0  0  0  0  0  0
    3.2264   -0.7153    1.7834 H   0  0  0  0  0  0  0  0  0  0  0  0
    3.4622   -1.4381    4.6506 H   0  0  0  0  0  0  0  0  0  0  0  0
    1.2967   -1.7984    3.2119 H   0  0  0  0  0  0  0  0  0  0  0  0
    1.1814   -1.1946    4.8245 H   0  0  0  0  0  0  0  0  0  0  0  0
   -0.2962    0.1279    3.2752 H   0  0  0  0  0  0  0  0  0  0  0  0
    1.5664   -0.0969    1.2792 H   0  0  0  0  0  0  0  0  0  0  0  0
    0.4861    1.2602    1.3674 H   0  0  0  0  0  0  0  0  0  0  0  0
    3.3870    1.5007    1.8011 H   0  0  0  0  0  0  0  0  0  0  0  0
    2.1382    2.7250    1.8241 H   0  0  0  0  0  0  0  0  0  0  0  0
    2.8023    2.7797    4.0906 H   0  0  0  0  0  0  0  0  0  0  0  0
    3.4428    0.7499    5.3873 H   0  0  0  0  0  0  0  0  0  0  0  0
    4.4954    0.9237    4.0279 H   0  0  0  0  0  0  0  0  0  0  0  0
    1.1728    0.6221    6.1122 H   0  0  0  0  0  0  0  0  0  0  0  0
    1.2554    2.3370    6.0890 H   0  0  0  0  0  0  0  0  0  0  0  0
   -1.2393    0.7618    5.2662 H   0  0  0  0  0  0  0  0  0  0  0  0
   -0.6614    3.7356    5.4434 H   0  0  0  0  0  0  0  0  0  0  0  0
   -1.5693    2.8600    4.2110 H   0  0  0  0  0  0  0  0  0  0  0  0
   -2.6482    4.1351    6.4893 H   0  0  0  0  0  0  0  0  0  0  0  0
   -3.4986    2.9498    5.5064 H   0  0  0  0  0  0  0  0  0  0  0  0
   -2.8026    2.5585    8.2303 H   0  0  0  0  0  0  0  0  0  0  0  0
   -3.3033    1.3228    7.0747 H   0  0  0  0  0  0  0  0  0  0  0  0
   -1.1357    0.4782    7.6030 H   0  0  0  0  0  0  0  0  0  0  0  0
   -0.5075    2.1094    7.8513 H   0  0  0  0  0  0  0  0  0  0  0  0
    7.3229   -1.9416    0.8613 H   0  0  0  0  0  0  0  0  0  0  0  0
    6.4417   -3.4018    1.2398 H   0  0  0  0  0  0  0  0  0  0  0  0
    6.7345   -2.1537   -1.4702 H   0  0  0  0  0  0  0  0  0  0  0  0
    7.1332   -3.7424   -0.9489 H   0  0  0  0  0  0  0  0  0  0  0  0
    5.2650   -4.1862   -2.1869 H   0  0  0  0  0  0  0  0  0  0  0  0
    4.1382   -3.7181    0.3143 H   0  0  0  0  0  0  0  0  0  0  0  0
    4.9182   -0.6107   -2.9275 H   0  0  0  0  0  0  0  0  0  0  0  0
    5.3615   -2.1966   -3.6721 H   0  0  0  0  0  0  0  0  0  0  0  0
    2.6039   -0.8585   -3.5301 H   0  0  0  0  0  0  0  0  0  0  0  0
    3.2208   -1.9695   -4.8155 H   0  0  0  0  0  0  0  0  0  0  0  0
    3.2384   -3.8548   -3.3279 H   0  0  0  0  0  0  0  0  0  0  0  0
    1.9898   -2.9669   -2.3876 H   0  0  0  0  0  0  0  0  0  0  0  0
    3.0148   -0.6984   -1.1967 H   0  0  0  0  0  0  0  0  0  0  0  0
    2.8922   -2.0231   -0.1090 H   0  0  0  0  0  0  0  0  0  0  0  0
    4.2820    0.1270    0.4301 H   0  0  0  0  0  0  0  0  0  0  0  0
    5.4870   -0.4202   -0.6203 H   0  0  0  0  0  0  0  0  0  0  0  0
    0.5990    2.2524    3.6856 H   0  0  0  0  0  0  0  0  0  0  0  0
  1  2  2  0
  2  3  1  0
  2 18  1  0
  3  4  1  0
  3 29  1  0
  4 10  1  0
  4  5  1  0
  4 30  1  1
  5  6  1  0
  5 31  1  0
  5 32  1  0
  6 11  1  0
  6  7  1  0
  6 33  1  6
  7  8  1  0
  7 34  1  0
  7 35  1  0
  8  9  1  0
  8 36  1  0
  8 37  1  0
  9 10  1  0
  9 11  1  0
  9 38  1  6
 10 39  1  0
 10 40  1  0
 11 12  1  0
 11 68  1  6
 12 13  1  0
 12 41  1  0
 12 42  1  0
 13 17  1  0
 13 14  1  0
 13 43  1  0
 14 15  1  0
 14 44  1  0
 14 45  1  0
 15 16  1  0
 15 46  1  0
 15 47  1  0
 16 17  1  0
 16 48  1  0
 16 49  1  0
 17 50  1  0
 17 51  1  0
 18 28  1  0
 18 19  1  0
 19 20  1  0
 19 52  1  0
 19 53  1  0
 20 21  1  0
 20 54  1  0
 20 55  1  0
 21 22  1  0
 21 23  1  0
 21 56  1  6
 22 57  1  0
 23 26  1  0
 23 24  1  0
 23 27  1  0
 24 25  1  0
 24 58  1  0
 24 59  1  0
 25 26  1  0
 25 60  1  0
 25 61  1  0
 26 62  1  0
 26 63  1  0
 27 28  1  0
 27 64  1  0
 27 65  1  0
 28 66  1  0
 28 67  1  0
M  CHG  1  11   1
M  END
>  <i_m_ct_stereo_status>  (150) 
1

>  <s_m_source_file>  (150) 
/var/tmp/pbs.5076255.sched01/tmpdonsa7tf/408ubvndgu.sdf

>  <i_m_source_file_index>  (150) 
29

>  <i_lp_mmshare_version>  (150) 
48012

>  <i_f3d_flags>  (150) 
0

>  <s_epik_input>  (150) 
W0NIMl0xW0NIMl1bQ0gyXUMxMltDQEhdKFtPSF0pW0NIMl1bQ0gyXU4oW0NIMl1bQ0gyXTIpQyg9TylbTkhdW0NASF0oW0NIMl1bQ0BIXTM0KVtDSDJdW0NAQEhdKFtDSDJdW0NIMl0zKU40W0NIMl1bQ0hdNVtDSDJdW0NIMl1bQ0gyXVtDSDJdNQ==

>  <s_epik_cmdline>  (150) 
J2VwaWtfcHl0aG9uJywgJy1waHQnLCAnMi4wJywgJy1waCcsICc3LjAnLCAnLXRuJywgJzgnLCAnLW1hJywgJzIwMCcsICctaW1hZScsICc8aW5maWxlLm1hZT4nLCAnLW9tYWUnLCAnPG91dGZpbGUubWFlPic=

>  <r_lp_tautomer_probability>  (150) 
1

>  <r_epik_Ionization_Penalty>  (150) 
0.000198586

>  <r_epik_Ionization_Penalty_Charging>  (150) 
0.000142639

>  <r_epik_Ionization_Penalty_Neutral>  (150) 
5.59474e-05

>  <r_epik_State_Penalty>  (150) 
-0

>  <r_epik_Charging_Adjusted_Penalty>  (150) 
0.000142639

>  <i_epik_Tot_Q>  (150) 
1

>  <i_epik_Tot_abs_Q>  (150) 
1

>  <s_lp_Force_Field>  (150) 
OPLS3e

>  <r_lp_Energy>  (150) 
59.388

>  <b_lp_Chiralities_Consistent>  (150) 
1

>  <s_lp_Variant>  (150) 
51:0-1

>  <s_i_glide_gridfile>  (150) 
pfpi4k_grid

>  <i_i_glide_lignum>  (150) 
29

>  <i_i_glide_rotatable_bonds>  (150) 
6

>  <r_i_docking_score>  (150) 
-2.89122

>  <r_i_glide_ligand_efficiency>  (150) 
-0.103258

>  <r_i_glide_ligand_efficiency_sa>  (150) 
-0.313552

>  <r_i_glide_ligand_efficiency_ln>  (150) 
-0.667379

>  <r_i_glide_gscore>  (150) 
-2.89122

>  <r_i_glide_lipo>  (150) 
-0.492394

>  <r_i_glide_hbond>  (150) 
0

>  <r_i_glide_metal>  (150) 
-0

>  <r_i_glide_rewards>  (150) 
-0.938803

>  <r_i_glide_evdw>  (150) 
-34.3221

>  <r_i_glide_ecoul>  (150) 
-2.48569

>  <r_i_glide_erotb>  (150) 
0.639309

>  <r_i_glide_esite>  (150) 
-0.0103748

>  <r_i_glide_emodel>  (150) 
-42.7048

>  <r_i_glide_energy>  (150) 
-36.8078

>  <r_i_glide_einternal>  (150) 
1.96544

>  <r_i_glide_intrahb_reward>  (150) 
-0

>  <i_i_glide_confnum>  (150) 
2

>  <i_i_glide_posenum>  (150) 
33

>  <r_i_glide_eff_state_penalty>  (150) 
0

>  <ligand_id>  (150) 
51

>  <original_smiles>  (150) 
O=C(NC1CC2CCC(C1)N2CC1CCCC1)N1CCC(O)C2(CCC2)CC1

>  <smiles>  (150) 
[H]OC1([H])C([H])([H])C([H])([H])N(C(=O)N([H])C2([H])C([H])([H])C3([H])C([H])([H])C([H])([H])C([H])(C2([H])[H])[N+]3([H])C([H])([H])C2([H])C([H])([H])C([H])([H])C([H])([H])C2([H])[H])C([H])([H])C([H])([H])C12C([H])([H])C([H])([H])C2([H])[H]

$$$$
51:1:0
     RDKit          3D

 68 72  0  0  1  0  0  0  0  0999 V2000
    5.2302   -4.0778    2.8997 O   0  0  0  0  0  0  0  0  0  0  0  0
    5.5834   -4.3993    1.7750 C   0  0  0  0  0  0  0  0  0  0  0  0
    5.5929   -5.6831    1.3539 N   0  0  0  0  0  0  0  0  0  0  0  0
    5.3893   -6.8716    2.1962 C   0  0  1  0  0  0  0  0  0  0  0  0
    4.1457   -6.8105    3.1337 C   0  0  0  0  0  0  0  0  0  0  0  0
    3.9119   -8.1514    3.8703 C   0  0  2  0  0  0  0  0  0  0  0  0
    5.1891   -8.6409    4.5657 C   0  0  0  0  0  0  0  0  0  0  0  0
    5.9092   -9.4952    3.4975 C   0  0  0  0  0  0  0  0  0  0  0  0
    4.9875   -9.4212    2.2645 C   0  0  2  0  0  0  0  0  0  0  0  0
    5.3674   -8.1925    1.3697 C   0  0  0  0  0  0  0  0  0  0  0  0
    3.6616   -9.2388    2.8966 N   0  0  2  0  0  0  0  0  0  0  0  0
    2.4953   -9.1073    1.9846 C   0  0  0  0  0  0  0  0  0  0  0  0
    1.2012   -8.7461    2.7457 C   0  0  0  0  0  0  0  0  0  0  0  0
    0.2253   -9.9119    2.9326 C   0  0  0  0  0  0  0  0  0  0  0  0
   -1.0808   -9.1967    3.2565 C   0  0  0  0  0  0  0  0  0  0  0  0
   -1.0518   -7.8516    2.5228 C   0  0  0  0  0  0  0  0  0  0  0  0
    0.3820   -7.6681    2.0197 C   0  0  0  0  0  0  0  0  0  0  0  0
    5.8584   -3.4954    0.7990 N   0  0  0  0  0  0  0  0  0  0  0  0
    7.0252   -3.6300   -0.0941 C   0  0  0  0  0  0  0  0  0  0  0  0
    6.8302   -3.0065   -1.4889 C   0  0  0  0  0  0  0  0  0  0  0  0
    5.4401   -3.2613   -2.1228 C   0  0  1  0  0  0  0  0  0  0  0  0
    5.0121   -4.5754   -1.8448 O   0  0  0  0  0  0  0  0  0  0  0  0
    4.3590   -2.2290   -1.7367 C   0  0  0  0  0  0  0  0  0  0  0  0
    4.6645   -0.7775   -2.1677 C   0  0  0  0  0  0  0  0  0  0  0  0
    3.9106   -1.0269   -3.4714 C   0  0  0  0  0  0  0  0  0  0  0  0
    3.1882   -2.1624   -2.7455 C   0  0  0  0  0  0  0  0  0  0  0  0
    3.9415   -2.3681   -0.2578 C   0  0  0  0  0  0  0  0  0  0  0  0
    5.1035   -2.2359    0.7452 C   0  0  0  0  0  0  0  0  0  0  0  0
    5.8774   -5.8448    0.4010 H   0  0  0  0  0  0  0  0  0  0  0  0
    6.2749   -6.8965    2.8298 H   0  0  0  0  0  0  0  0  0  0  0  0
    4.2968   -6.0553    3.9070 H   0  0  0  0  0  0  0  0  0  0  0  0
    3.2508   -6.5097    2.5859 H   0  0  0  0  0  0  0  0  0  0  0  0
    3.1235   -8.0458    4.6185 H   0  0  0  0  0  0  0  0  0  0  0  0
    5.7984   -7.8219    4.9462 H   0  0  0  0  0  0  0  0  0  0  0  0
    4.9227   -9.2616    5.4167 H   0  0  0  0  0  0  0  0  0  0  0  0
    6.9160   -9.1355    3.2869 H   0  0  0  0  0  0  0  0  0  0  0  0
    5.9985  -10.5255    3.8450 H   0  0  0  0  0  0  0  0  0  0  0  0
    5.0118  -10.3465    1.6890 H   0  0  0  0  0  0  0  0  0  0  0  0
    4.6912   -8.1147    0.5161 H   0  0  0  0  0  0  0  0  0  0  0  0
    6.3534   -8.3664    0.9317 H   0  0  0  0  0  0  0  0  0  0  0  0
    2.6706   -8.3588    1.2174 H   0  0  0  0  0  0  0  0  0  0  0  0
    2.3844  -10.0383    1.4305 H   0  0  0  0  0  0  0  0  0  0  0  0
    1.4002   -8.3547    3.7382 H   0  0  0  0  0  0  0  0  0  0  0  0
    0.1189  -10.5244    2.0292 H   0  0  0  0  0  0  0  0  0  0  0  0
    0.5479  -10.5639    3.7517 H   0  0  0  0  0  0  0  0  0  0  0  0
   -1.9479   -9.8023    2.9894 H   0  0  0  0  0  0  0  0  0  0  0  0
   -1.1296   -9.0154    4.3384 H   0  0  0  0  0  0  0  0  0  0  0  0
   -1.7422   -7.8770    1.6849 H   0  0  0  0  0  0  0  0  0  0  0  0
   -1.3481   -7.0428    3.1973 H   0  0  0  0  0  0  0  0  0  0  0  0
    0.7779   -6.6781    2.2544 H   0  0  0  0  0  0  0  0  0  0  0  0
    0.4182   -7.8028    0.9322 H   0  0  0  0  0  0  0  0  0  0  0  0
    7.9080   -3.2055    0.3857 H   0  0  0  0  0  0  0  0  0  0  0  0
    7.2572   -4.6825   -0.2638 H   0  0  0  0  0  0  0  0  0  0  0  0
    7.0403   -1.9388   -1.4244 H   0  0  0  0  0  0  0  0  0  0  0  0
    7.5921   -3.4177   -2.1569 H   0  0  0  0  0  0  0  0  0  0  0  0
    5.5888   -3.2154   -3.2019 H   0  0  0  0  0  0  0  0  0  0  0  0
    4.1916   -4.7630   -2.3137 H   0  0  0  0  0  0  0  0  0  0  0  0
    4.2174   -0.0389   -1.5114 H   0  0  0  0  0  0  0  0  0  0  0  0
    5.7173   -0.5319   -2.3101 H   0  0  0  0  0  0  0  0  0  0  0  0
    3.2835   -0.1967   -3.8001 H   0  0  0  0  0  0  0  0  0  0  0  0
    4.5734   -1.3767   -4.2645 H   0  0  0  0  0  0  0  0  0  0  0  0
    3.0507   -3.0699   -3.3375 H   0  0  0  0  0  0  0  0  0  0  0  0
    2.2415   -1.8375   -2.3081 H   0  0  0  0  0  0  0  0  0  0  0  0
    3.2094   -1.5945   -0.0119 H   0  0  0  0  0  0  0  0  0  0  0  0
    3.4082   -3.3040   -0.0842 H   0  0  0  0  0  0  0  0  0  0  0  0
    4.6901   -1.9829    1.7224 H   0  0  0  0  0  0  0  0  0  0  0  0
    5.7507   -1.3968    0.5013 H   0  0  0  0  0  0  0  0  0  0  0  0
    3.4904  -10.0747    3.4471 H   0  0  0  0  0  0  0  0  0  0  0  0
  1  2  2  0
  2  3  1  0
  2 18  1  0
  3  4  1  0
  3 29  1  0
  4 10  1  0
  4  5  1  0
  4 30  1  1
  5  6  1  0
  5 31  1  0
  5 32  1  0
  6 11  1  0
  6  7  1  0
  6 33  1  1
  7  8  1  0
  7 34  1  0
  7 35  1  0
  8  9  1  0
  8 36  1  0
  8 37  1  0
  9 10  1  0
  9 11  1  0
  9 38  1  6
 10 39  1  0
 10 40  1  0
 11 12  1  0
 11 68  1  1
 12 13  1  0
 12 41  1  0
 12 42  1  0
 13 17  1  0
 13 14  1  0
 13 43  1  0
 14 15  1  0
 14 44  1  0
 14 45  1  0
 15 16  1  0
 15 46  1  0
 15 47  1  0
 16 17  1  0
 16 48  1  0
 16 49  1  0
 17 50  1  0
 17 51  1  0
 18 28  1  0
 18 19  1  0
 19 20  1  0
 19 52  1  0
 19 53  1  0
 20 21  1  0
 20 54  1  0
 20 55  1  0
 21 22  1  0
 21 23  1  0
 21 56  1  6
 22 57  1  0
 23 26  1  0
 23 24  1  0
 23 27  1  0
 24 25  1  0
 24 58  1  0
 24 59  1  0
 25 26  1  0
 25 60  1  0
 25 61  1  0
 26 62  1  0
 26 63  1  0
 27 28  1  0
 27 64  1  0
 27 65  1  0
 28 66  1  0
 28 67  1  0
M  CHG  1  11   1
M  END
>  <i_m_ct_stereo_status>  (151) 
1

>  <s_m_source_file>  (151) 
/var/tmp/pbs.5076255.sched01/tmpdonsa7tf/408ubvndgu.sdf

>  <i_m_source_file_index>  (151) 
30

>  <i_lp_mmshare_version>  (151) 
48012

>  <i_f3d_flags>  (151) 
0

>  <s_epik_input>  (151) 
W0NIMl0xW0NIMl1bQ0gyXUMxMltDQEhdKFtPSF0pW0NIMl1bQ0gyXU4oW0NIMl1bQ0gyXTIpQyg9TylbTkhdW0NASF0oW0NIMl1bQ0BIXTM0KVtDSDJdW0NAQEhdKFtDSDJdW0NIMl0zKU40W0NIMl1bQ0hdNVtDSDJdW0NIMl1bQ0gyXVtDSDJdNQ==

>  <s_epik_cmdline>  (151) 
J2VwaWtfcHl0aG9uJywgJy1waHQnLCAnMi4wJywgJy1waCcsICc3LjAnLCAnLXRuJywgJzgnLCAnLW1hJywgJzIwMCcsICctaW1hZScsICc8aW5maWxlLm1hZT4nLCAnLW9tYWUnLCAnPG91dGZpbGUubWFlPic=

>  <r_lp_tautomer_probability>  (151) 
1

>  <r_epik_Ionization_Penalty>  (151) 
0.000198586

>  <r_epik_Ionization_Penalty_Charging>  (151) 
0.000142639

>  <r_epik_Ionization_Penalty_Neutral>  (151) 
5.59474e-05

>  <r_epik_State_Penalty>  (151) 
-0

>  <r_epik_Charging_Adjusted_Penalty>  (151) 
0.000142639

>  <i_epik_Tot_Q>  (151) 
1

>  <i_epik_Tot_abs_Q>  (151) 
1

>  <s_lp_Force_Field>  (151) 
OPLS3e

>  <r_lp_Energy>  (151) 
56.1348

>  <b_lp_Chiralities_Consistent>  (151) 
1

>  <s_lp_Variant>  (151) 
51:0-2

>  <s_i_glide_gridfile>  (151) 
pfpi4k_grid

>  <i_i_glide_lignum>  (151) 
30

>  <i_i_glide_rotatable_bonds>  (151) 
6

>  <r_i_docking_score>  (151) 
-3.53796

>  <r_i_glide_ligand_efficiency>  (151) 
-0.126356

>  <r_i_glide_ligand_efficiency_sa>  (151) 
-0.38369

>  <r_i_glide_ligand_efficiency_ln>  (151) 
-0.816665

>  <r_i_glide_gscore>  (151) 
-3.53796

>  <r_i_glide_lipo>  (151) 
-0.652937

>  <r_i_glide_hbond>  (151) 
-0.267128

>  <r_i_glide_metal>  (151) 
-0

>  <r_i_glide_rewards>  (151) 
-0.901095

>  <r_i_glide_evdw>  (151) 
-33.8134

>  <r_i_glide_ecoul>  (151) 
-4.32761

>  <r_i_glide_erotb>  (151) 
0.639309

>  <r_i_glide_esite>  (151) 
-0.0162949

>  <r_i_glide_emodel>  (151) 
-43.6386

>  <r_i_glide_energy>  (151) 
-38.141

>  <r_i_glide_einternal>  (151) 
8.99374

>  <r_i_glide_intrahb_reward>  (151) 
-0

>  <i_i_glide_confnum>  (151) 
4

>  <i_i_glide_posenum>  (151) 
2

>  <r_i_glide_eff_state_penalty>  (151) 
0

>  <ligand_id>  (151) 
51

>  <original_smiles>  (151) 
O=C(NC1CC2CCC(C1)N2CC1CCCC1)N1CCC(O)C2(CCC2)CC1

>  <smiles>  (151) 
[H]OC1([H])C([H])([H])C([H])([H])N(C(=O)N([H])C2([H])C([H])([H])C3([H])C([H])([H])C([H])([H])C([H])(C2([H])[H])[N+]3([H])C([H])([H])C2([H])C([H])([H])C([H])([H])C([H])([H])C2([H])[H])C([H])([H])C([H])([H])C12C([H])([H])C([H])([H])C2([H])[H]

$$$$
51:1:1
     RDKit          3D

 68 72  0  0  1  0  0  0  0  0999 V2000
    1.6574   -2.2889    2.8818 O   0  0  0  0  0  0  0  0  0  0  0  0
    2.2868   -1.2391    2.9622 C   0  0  0  0  0  0  0  0  0  0  0  0
    3.3946   -1.0048    2.2463 N   0  0  0  0  0  0  0  0  0  0  0  0
    4.0998   -1.8894    1.3238 C   0  0  1  0  0  0  0  0  0  0  0  0
    4.7409   -3.1179    2.0143 C   0  0  0  0  0  0  0  0  0  0  0  0
    5.3494   -4.0879    0.9722 C   0  0  2  0  0  0  0  0  0  0  0  0
    6.3281   -3.3654    0.0305 C   0  0  0  0  0  0  0  0  0  0  0  0
    5.4421   -2.8708   -1.1394 C   0  0  0  0  0  0  0  0  0  0  0  0
    4.0212   -3.3529   -0.7762 C   0  0  2  0  0  0  0  0  0  0  0  0
    3.2750   -2.2901    0.0761 C   0  0  0  0  0  0  0  0  0  0  0  0
    4.3144   -4.5486    0.0297 N   0  0  2  0  0  0  0  0  0  0  0  0
    3.1534   -5.3101    0.5690 C   0  0  0  0  0  0  0  0  0  0  0  0
    3.6108   -6.5736    1.3126 C   0  0  0  0  0  0  0  0  0  0  0  0
    4.5657   -7.4803    0.5315 C   0  0  0  0  0  0  0  0  0  0  0  0
    4.4701   -8.8270    1.2377 C   0  0  0  0  0  0  0  0  0  0  0  0
    3.0429   -8.9012    1.8002 C   0  0  0  0  0  0  0  0  0  0  0  0
    2.4448   -7.4905    1.6842 C   0  0  0  0  0  0  0  0  0  0  0  0
    1.9468   -0.2105    3.8051 N   0  0  0  0  0  0  0  0  0  0  0  0
    2.8094    0.9742    4.0511 C   0  0  0  0  0  0  0  0  0  0  0  0
    2.0600    2.2920    4.3140 C   0  0  0  0  0  0  0  0  0  0  0  0
    0.8477    2.5475    3.3906 C   0  0  1  0  0  0  0  0  0  0  0  0
    1.1133    2.1532    2.0594 O   0  0  0  0  0  0  0  0  0  0  0  0
   -0.4837    1.9496    3.8994 C   0  0  0  0  0  0  0  0  0  0  0  0
   -0.9917    2.4923    5.2582 C   0  0  0  0  0  0  0  0  0  0  0  0
   -1.7814    3.5590    4.5139 C   0  0  0  0  0  0  0  0  0  0  0  0
   -1.7296    2.6331    3.2999 C   0  0  0  0  0  0  0  0  0  0  0  0
   -0.4648    0.4111    3.7888 C   0  0  0  0  0  0  0  0  0  0  0  0
    0.6862   -0.2708    4.5539 C   0  0  0  0  0  0  0  0  0  0  0  0
    3.7829   -0.0797    2.3279 H   0  0  0  0  0  0  0  0  0  0  0  0
    4.9167   -1.2537    0.9813 H   0  0  0  0  0  0  0  0  0  0  0  0
    5.5263   -2.7773    2.6890 H   0  0  0  0  0  0  0  0  0  0  0  0
    4.0192   -3.6509    2.6363 H   0  0  0  0  0  0  0  0  0  0  0  0
    5.8493   -4.9198    1.4704 H   0  0  0  0  0  0  0  0  0  0  0  0
    6.8665   -2.5627    0.5294 H   0  0  0  0  0  0  0  0  0  0  0  0
    7.0755   -4.0670   -0.3404 H   0  0  0  0  0  0  0  0  0  0  0  0
    5.4848   -1.7893   -1.2781 H   0  0  0  0  0  0  0  0  0  0  0  0
    5.7676   -3.3283   -2.0738 H   0  0  0  0  0  0  0  0  0  0  0  0
    3.4431   -3.6113   -1.6645 H   0  0  0  0  0  0  0  0  0  0  0  0
    2.2928   -2.6693    0.3599 H   0  0  0  0  0  0  0  0  0  0  0  0
    3.0684   -1.4050   -0.5291 H   0  0  0  0  0  0  0  0  0  0  0  0
    2.5368   -4.7128    1.2408 H   0  0  0  0  0  0  0  0  0  0  0  0
    2.5051   -5.5789   -0.2662 H   0  0  0  0  0  0  0  0  0  0  0  0
    4.1062   -6.2885    2.2416 H   0  0  0  0  0  0  0  0  0  0  0  0
    4.2401   -7.5795   -0.5056 H   0  0  0  0  0  0  0  0  0  0  0  0
    5.5884   -7.1021    0.5290 H   0  0  0  0  0  0  0  0  0  0  0  0
    4.6970   -9.6630    0.5733 H   0  0  0  0  0  0  0  0  0  0  0  0
    5.1871   -8.8598    2.0600 H   0  0  0  0  0  0  0  0  0  0  0  0
    2.4386   -9.6147    1.2335 H   0  0  0  0  0  0  0  0  0  0  0  0
    3.0632   -9.2322    2.8416 H   0  0  0  0  0  0  0  0  0  0  0  0
    1.9556   -7.1676    2.6055 H   0  0  0  0  0  0  0  0  0  0  0  0
    1.6931   -7.4890    0.8905 H   0  0  0  0  0  0  0  0  0  0  0  0
    3.4822    0.7671    4.8832 H   0  0  0  0  0  0  0  0  0  0  0  0
    3.4404    1.2230    3.1979 H   0  0  0  0  0  0  0  0  0  0  0  0
    1.7834    2.3326    5.3661 H   0  0  0  0  0  0  0  0  0  0  0  0
    2.7631    3.1179    4.1798 H   0  0  0  0  0  0  0  0  0  0  0  0
    0.7379    3.6316    3.3294 H   0  0  0  0  0  0  0  0  0  0  0  0
    0.6807    2.7846    1.4796 H   0  0  0  0  0  0  0  0  0  0  0  0
   -1.6325    1.7814    5.7823 H   0  0  0  0  0  0  0  0  0  0  0  0
   -0.2434    2.9099    5.9310 H   0  0  0  0  0  0  0  0  0  0  0  0
   -2.7717    3.7504    4.9215 H   0  0  0  0  0  0  0  0  0  0  0  0
   -1.2103    4.4768    4.3686 H   0  0  0  0  0  0  0  0  0  0  0  0
   -1.5605    3.1387    2.3472 H   0  0  0  0  0  0  0  0  0  0  0  0
   -2.5846    1.9659    3.2417 H   0  0  0  0  0  0  0  0  0  0  0  0
   -1.4017    0.0184    4.1889 H   0  0  0  0  0  0  0  0  0  0  0  0
   -0.4631    0.0892    2.7456 H   0  0  0  0  0  0  0  0  0  0  0  0
    0.4048   -1.3040    4.7580 H   0  0  0  0  0  0  0  0  0  0  0  0
    0.8002    0.1688    5.5437 H   0  0  0  0  0  0  0  0  0  0  0  0
    4.7806   -5.1832   -0.6090 H   0  0  0  0  0  0  0  0  0  0  0  0
  1  2  2  0
  2  3  1  0
  2 18  1  0
  3  4  1  0
  3 29  1  0
  4 10  1  0
  4  5  1  0
  4 30  1  6
  5  6  1  0
  5 31  1  0
  5 32  1  0
  6 11  1  0
  6  7  1  0
  6 33  1  1
  7  8  1  0
  7 34  1  0
  7 35  1  0
  8  9  1  0
  8 36  1  0
  8 37  1  0
  9 10  1  0
  9 11  1  0
  9 38  1  6
 10 39  1  0
 10 40  1  0
 11 12  1  0
 11 68  1  6
 12 13  1  0
 12 41  1  0
 12 42  1  0
 13 17  1  0
 13 14  1  0
 13 43  1  0
 14 15  1  0
 14 44  1  0
 14 45  1  0
 15 16  1  0
 15 46  1  0
 15 47  1  0
 16 17  1  0
 16 48  1  0
 16 49  1  0
 17 50  1  0
 17 51  1  0
 18 28  1  0
 18 19  1  0
 19 20  1  0
 19 52  1  0
 19 53  1  0
 20 21  1  0
 20 54  1  0
 20 55  1  0
 21 22  1  0
 21 23  1  0
 21 56  1  6
 22 57  1  0
 23 26  1  0
 23 24  1  0
 23 27  1  0
 24 25  1  0
 24 58  1  0
 24 59  1  0
 25 26  1  0
 25 60  1  0
 25 61  1  0
 26 62  1  0
 26 63  1  0
 27 28  1  0
 27 64  1  0
 27 65  1  0
 28 66  1  0
 28 67  1  0
M  CHG  1  11   1
M  END
>  <i_m_ct_stereo_status>  (152) 
1

>  <s_m_source_file>  (152) 
/var/tmp/pbs.5076255.sched01/tmpdonsa7tf/408ubvndgu.sdf

>  <i_m_source_file_index>  (152) 
30

>  <i_lp_mmshare_version>  (152) 
48012

>  <i_f3d_flags>  (152) 
0

>  <s_epik_input>  (152) 
W0NIMl0xW0NIMl1bQ0gyXUMxMltDQEhdKFtPSF0pW0NIMl1bQ0gyXU4oW0NIMl1bQ0gyXTIpQyg9TylbTkhdW0NASF0oW0NIMl1bQ0BIXTM0KVtDSDJdW0NAQEhdKFtDSDJdW0NIMl0zKU40W0NIMl1bQ0hdNVtDSDJdW0NIMl1bQ0gyXVtDSDJdNQ==

>  <s_epik_cmdline>  (152) 
J2VwaWtfcHl0aG9uJywgJy1waHQnLCAnMi4wJywgJy1waCcsICc3LjAnLCAnLXRuJywgJzgnLCAnLW1hJywgJzIwMCcsICctaW1hZScsICc8aW5maWxlLm1hZT4nLCAnLW9tYWUnLCAnPG91dGZpbGUubWFlPic=

>  <r_lp_tautomer_probability>  (152) 
1

>  <r_epik_Ionization_Penalty>  (152) 
0.000198586

>  <r_epik_Ionization_Penalty_Charging>  (152) 
0.000142639

>  <r_epik_Ionization_Penalty_Neutral>  (152) 
5.59474e-05

>  <r_epik_State_Penalty>  (152) 
-0

>  <r_epik_Charging_Adjusted_Penalty>  (152) 
0.000142639

>  <i_epik_Tot_Q>  (152) 
1

>  <i_epik_Tot_abs_Q>  (152) 
1

>  <s_lp_Force_Field>  (152) 
OPLS3e

>  <r_lp_Energy>  (152) 
56.1348

>  <b_lp_Chiralities_Consistent>  (152) 
1

>  <s_lp_Variant>  (152) 
51:0-2

>  <s_i_glide_gridfile>  (152) 
pfpi4k_grid

>  <i_i_glide_lignum>  (152) 
30

>  <i_i_glide_rotatable_bonds>  (152) 
6

>  <r_i_docking_score>  (152) 
-2.82292

>  <r_i_glide_ligand_efficiency>  (152) 
-0.100819

>  <r_i_glide_ligand_efficiency_sa>  (152) 
-0.306144

>  <r_i_glide_ligand_efficiency_ln>  (152) 
-0.651613

>  <r_i_glide_gscore>  (152) 
-2.82292

>  <r_i_glide_lipo>  (152) 
-0.375161

>  <r_i_glide_hbond>  (152) 
-0.16

>  <r_i_glide_metal>  (152) 
-0

>  <r_i_glide_rewards>  (152) 
-0.746028

>  <r_i_glide_evdw>  (152) 
-31.5577

>  <r_i_glide_ecoul>  (152) 
-3.90241

>  <r_i_glide_erotb>  (152) 
0.639309

>  <r_i_glide_esite>  (152) 
-0.0177919

>  <r_i_glide_emodel>  (152) 
-42.5265

>  <r_i_glide_energy>  (152) 
-35.4601

>  <r_i_glide_einternal>  (152) 
2.17868

>  <r_i_glide_intrahb_reward>  (152) 
-0

>  <i_i_glide_confnum>  (152) 
1

>  <i_i_glide_posenum>  (152) 
3

>  <r_i_glide_eff_state_penalty>  (152) 
0

>  <ligand_id>  (152) 
51

>  <original_smiles>  (152) 
O=C(NC1CC2CCC(C1)N2CC1CCCC1)N1CCC(O)C2(CCC2)CC1

>  <smiles>  (152) 
[H]OC1([H])C([H])([H])C([H])([H])N(C(=O)N([H])C2([H])C([H])([H])C3([H])C([H])([H])C([H])([H])C([H])(C2([H])[H])[N+]3([H])C([H])([H])C2([H])C([H])([H])C([H])([H])C([H])([H])C2([H])[H])C([H])([H])C([H])([H])C12C([H])([H])C([H])([H])C2([H])[H]

$$$$
51:1:2
     RDKit          3D

 68 72  0  0  1  0  0  0  0  0999 V2000
    2.9524   -5.1457    1.4337 O   0  0  0  0  0  0  0  0  0  0  0  0
    4.0868   -4.7707    1.0895 C   0  0  0  0  0  0  0  0  0  0  0  0
    5.1710   -5.5466    1.2661 N   0  0  0  0  0  0  0  0  0  0  0  0
    5.2574   -6.9122    1.7448 C   0  0  1  0  0  0  0  0  0  0  0  0
    4.8897   -7.0795    3.2357 C   0  0  0  0  0  0  0  0  0  0  0  0
    4.8641   -8.5859    3.6433 C   0  0  2  0  0  0  0  0  0  0  0  0
    6.1756   -9.2905    3.2663 C   0  0  0  0  0  0  0  0  0  0  0  0
    5.9338   -9.8117    1.8341 C   0  0  0  0  0  0  0  0  0  0  0  0
    4.4955   -9.3430    1.5066 C   0  0  2  0  0  0  0  0  0  0  0  0
    4.5105   -7.9387    0.8544 C   0  0  0  0  0  0  0  0  0  0  0  0
    3.8751   -9.3185    2.8364 N   0  0  2  0  0  0  0  0  0  0  0  0
    2.4407   -8.8953    2.8959 C   0  0  0  0  0  0  0  0  0  0  0  0
    1.9051   -8.8519    4.3314 C   0  0  0  0  0  0  0  0  0  0  0  0
    1.5605  -10.2176    4.9220 C   0  0  0  0  0  0  0  0  0  0  0  0
    0.6705   -9.8529    6.1163 C   0  0  0  0  0  0  0  0  0  0  0  0
   -0.0493   -8.5628    5.7248 C   0  0  0  0  0  0  0  0  0  0  0  0
    0.6344   -8.0278    4.4608 C   0  0  0  0  0  0  0  0  0  0  0  0
    4.3359   -3.5775    0.4898 N   0  0  0  0  0  0  0  0  0  0  0  0
    5.7020   -3.0169    0.2818 C   0  0  0  0  0  0  0  0  0  0  0  0
    5.8853   -2.1955   -1.0080 C   0  0  0  0  0  0  0  0  0  0  0  0
    5.2365   -2.7872   -2.2756 C   0  0  1  0  0  0  0  0  0  0  0  0
    5.3838   -4.1813   -2.3436 O   0  0  0  0  0  0  0  0  0  0  0  0
    3.7668   -2.3947   -2.5030 C   0  0  0  0  0  0  0  0  0  0  0  0
    3.5131   -0.8869   -2.7191 C   0  0  0  0  0  0  0  0  0  0  0  0
    3.6541   -1.0927   -4.2195 C   0  0  0  0  0  0  0  0  0  0  0  0
    3.2974   -2.5589   -3.9596 C   0  0  0  0  0  0  0  0  0  0  0  0
    2.8593   -3.0672   -1.4473 C   0  0  0  0  0  0  0  0  0  0  0  0
    3.2204   -2.7474    0.0144 C   0  0  0  0  0  0  0  0  0  0  0  0
    6.0342   -5.1561    0.9198 H   0  0  0  0  0  0  0  0  0  0  0  0
    6.3316   -7.1213    1.6477 H   0  0  0  0  0  0  0  0  0  0  0  0
    5.6200   -6.5584    3.8332 H   0  0  0  0  0  0  0  0  0  0  0  0
    3.9206   -6.6339    3.4562 H   0  0  0  0  0  0  0  0  0  0  0  0
    4.7151   -8.6894    4.7175 H   0  0  0  0  0  0  0  0  0  0  0  0
    7.0461   -8.6374    3.3575 H   0  0  0  0  0  0  0  0  0  0  0  0
    6.3326  -10.1308    3.9405 H   0  0  0  0  0  0  0  0  0  0  0  0
    6.6758   -9.4446    1.1141 H   0  0  0  0  0  0  0  0  0  0  0  0
    5.9849  -10.9013    1.8216 H   0  0  0  0  0  0  0  0  0  0  0  0
    3.9713  -10.0374    0.8526 H   0  0  0  0  0  0  0  0  0  0  0  0
    3.4920   -7.6052    0.6538 H   0  0  0  0  0  0  0  0  0  0  0  0
    4.9821   -7.9961   -0.1274 H   0  0  0  0  0  0  0  0  0  0  0  0
    2.2812   -7.9146    2.4450 H   0  0  0  0  0  0  0  0  0  0  0  0
    1.8341   -9.5719    2.2874 H   0  0  0  0  0  0  0  0  0  0  0  0
    2.6039   -8.3596    5.0076 H   0  0  0  0  0  0  0  0  0  0  0  0
    0.9964  -10.8309    4.2187 H   0  0  0  0  0  0  0  0  0  0  0  0
    2.4409  -10.7668    5.2361 H   0  0  0  0  0  0  0  0  0  0  0  0
   -0.0228  -10.6632    6.3583 H   0  0  0  0  0  0  0  0  0  0  0  0
    1.2984   -9.6900    6.9933 H   0  0  0  0  0  0  0  0  0  0  0  0
   -1.1005   -8.7610    5.5107 H   0  0  0  0  0  0  0  0  0  0  0  0
    0.0122   -7.8387    6.5422 H   0  0  0  0  0  0  0  0  0  0  0  0
    0.8790   -6.9685    4.5482 H   0  0  0  0  0  0  0  0  0  0  0  0
   -0.0129   -8.1651    3.5920 H   0  0  0  0  0  0  0  0  0  0  0  0
    5.9723   -2.4007    1.1423 H   0  0  0  0  0  0  0  0  0  0  0  0
    6.4714   -3.7816    0.1993 H   0  0  0  0  0  0  0  0  0  0  0  0
    5.5458   -1.1765   -0.8215 H   0  0  0  0  0  0  0  0  0  0  0  0
    6.9585   -2.1068   -1.1985 H   0  0  0  0  0  0  0  0  0  0  0  0
    5.8222   -2.4350   -3.1219 H   0  0  0  0  0  0  0  0  0  0  0  0
    4.6238   -4.5878   -1.9295 H   0  0  0  0  0  0  0  0  0  0  0  0
    2.5051   -0.6020   -2.4277 H   0  0  0  0  0  0  0  0  0  0  0  0
    4.2465   -0.1958   -2.3100 H   0  0  0  0  0  0  0  0  0  0  0  0
    2.9432   -0.5258   -4.8189 H   0  0  0  0  0  0  0  0  0  0  0  0
    4.6768   -0.9505   -4.5638 H   0  0  0  0  0  0  0  0  0  0  0  0
    3.8749   -3.2767   -4.5408 H   0  0  0  0  0  0  0  0  0  0  0  0
    2.2268   -2.7482   -4.0573 H   0  0  0  0  0  0  0  0  0  0  0  0
    1.8371   -2.7356   -1.6222 H   0  0  0  0  0  0  0  0  0  0  0  0
    2.7980   -4.1503   -1.5808 H   0  0  0  0  0  0  0  0  0  0  0  0
    2.3311   -2.9046    0.6234 H   0  0  0  0  0  0  0  0  0  0  0  0
    3.4317   -1.6867    0.1290 H   0  0  0  0  0  0  0  0  0  0  0  0
    3.9123  -10.2772    3.1569 H   0  0  0  0  0  0  0  0  0  0  0  0
  1  2  2  0
  2  3  1  0
  2 18  1  0
  3  4  1  0
  3 29  1  0
  4 10  1  0
  4  5  1  0
  4 30  1  1
  5  6  1  0
  5 31  1  0
  5 32  1  0
  6 11  1  0
  6  7  1  0
  6 33  1  1
  7  8  1  0
  7 34  1  0
  7 35  1  0
  8  9  1  0
  8 36  1  0
  8 37  1  0
  9 10  1  0
  9 11  1  0
  9 38  1  6
 10 39  1  0
 10 40  1  0
 11 12  1  0
 11 68  1  1
 12 13  1  0
 12 41  1  0
 12 42  1  0
 13 17  1  0
 13 14  1  0
 13 43  1  0
 14 15  1  0
 14 44  1  0
 14 45  1  0
 15 16  1  0
 15 46  1  0
 15 47  1  0
 16 17  1  0
 16 48  1  0
 16 49  1  0
 17 50  1  0
 17 51  1  0
 18 28  1  0
 18 19  1  0
 19 20  1  0
 19 52  1  0
 19 53  1  0
 20 21  1  0
 20 54  1  0
 20 55  1  0
 21 22  1  0
 21 23  1  0
 21 56  1  6
 22 57  1  0
 23 26  1  0
 23 24  1  0
 23 27  1  0
 24 25  1  0
 24 58  1  0
 24 59  1  0
 25 26  1  0
 25 60  1  0
 25 61  1  0
 26 62  1  0
 26 63  1  0
 27 28  1  0
 27 64  1  0
 27 65  1  0
 28 66  1  0
 28 67  1  0
M  CHG  1  11   1
M  END
>  <i_m_ct_stereo_status>  (153) 
1

>  <s_m_source_file>  (153) 
/var/tmp/pbs.5076255.sched01/tmpdonsa7tf/408ubvndgu.sdf

>  <i_m_source_file_index>  (153) 
30

>  <i_lp_mmshare_version>  (153) 
48012

>  <i_f3d_flags>  (153) 
0

>  <s_epik_input>  (153) 
W0NIMl0xW0NIMl1bQ0gyXUMxMltDQEhdKFtPSF0pW0NIMl1bQ0gyXU4oW0NIMl1bQ0gyXTIpQyg9TylbTkhdW0NASF0oW0NIMl1bQ0BIXTM0KVtDSDJdW0NAQEhdKFtDSDJdW0NIMl0zKU40W0NIMl1bQ0hdNVtDSDJdW0NIMl1bQ0gyXVtDSDJdNQ==

>  <s_epik_cmdline>  (153) 
J2VwaWtfcHl0aG9uJywgJy1waHQnLCAnMi4wJywgJy1waCcsICc3LjAnLCAnLXRuJywgJzgnLCAnLW1hJywgJzIwMCcsICctaW1hZScsICc8aW5maWxlLm1hZT4nLCAnLW9tYWUnLCAnPG91dGZpbGUubWFlPic=

>  <r_lp_tautomer_probability>  (153) 
1

>  <r_epik_Ionization_Penalty>  (153) 
0.000198586

>  <r_epik_Ionization_Penalty_Charging>  (153) 
0.000142639

>  <r_epik_Ionization_Penalty_Neutral>  (153) 
5.59474e-05

>  <r_epik_State_Penalty>  (153) 
-0

>  <r_epik_Charging_Adjusted_Penalty>  (153) 
0.000142639

>  <i_epik_Tot_Q>  (153) 
1

>  <i_epik_Tot_abs_Q>  (153) 
1

>  <s_lp_Force_Field>  (153) 
OPLS3e

>  <r_lp_Energy>  (153) 
56.1348

>  <b_lp_Chiralities_Consistent>  (153) 
1

>  <s_lp_Variant>  (153) 
51:0-2

>  <s_i_glide_gridfile>  (153) 
pfpi4k_grid

>  <i_i_glide_lignum>  (153) 
30

>  <i_i_glide_rotatable_bonds>  (153) 
6

>  <r_i_docking_score>  (153) 
-2.77108

>  <r_i_glide_ligand_efficiency>  (153) 
-0.0989671

>  <r_i_glide_ligand_efficiency_sa>  (153) 
-0.300522

>  <r_i_glide_ligand_efficiency_ln>  (153) 
-0.639646

>  <r_i_glide_gscore>  (153) 
-2.77108

>  <r_i_glide_lipo>  (153) 
-0.38722

>  <r_i_glide_hbond>  (153) 
-0.0486742

>  <r_i_glide_metal>  (153) 
-0

>  <r_i_glide_rewards>  (153) 
-0.812223

>  <r_i_glide_evdw>  (153) 
-32.2655

>  <r_i_glide_ecoul>  (153) 
-3.53196

>  <r_i_glide_erotb>  (153) 
0.639309

>  <r_i_glide_esite>  (153) 
-0.019199

>  <r_i_glide_emodel>  (153) 
-42.4502

>  <r_i_glide_energy>  (153) 
-35.7975

>  <r_i_glide_einternal>  (153) 
2.25974

>  <r_i_glide_intrahb_reward>  (153) 
-0

>  <i_i_glide_confnum>  (153) 
1

>  <i_i_glide_posenum>  (153) 
20

>  <r_i_glide_eff_state_penalty>  (153) 
0

>  <ligand_id>  (153) 
51

>  <original_smiles>  (153) 
O=C(NC1CC2CCC(C1)N2CC1CCCC1)N1CCC(O)C2(CCC2)CC1

>  <smiles>  (153) 
[H]OC1([H])C([H])([H])C([H])([H])N(C(=O)N([H])C2([H])C([H])([H])C3([H])C([H])([H])C([H])([H])C([H])(C2([H])[H])[N+]3([H])C([H])([H])C2([H])C([H])([H])C([H])([H])C([H])([H])C2([H])[H])C([H])([H])C([H])([H])C12C([H])([H])C([H])([H])C2([H])[H]

$$$$
52:0:0
     RDKit          3D

 63 68  0  0  1  0  0  0  0  0999 V2000
    3.1726    1.9845    7.1079 C   0  0  0  0  0  0  0  0  0  0  0  0
    2.1736    2.1282    5.8718 C   0  0  1  0  0  0  0  0  0  0  0  0
    0.9823    1.0714    5.3509 C   0  0  0  0  0  0  0  0  0  0  0  0
    0.8218    0.0160    4.2130 C   0  0  2  0  0  0  0  0  0  0  0  0
   -0.3636   -0.9802    4.4727 C   0  0  0  0  0  0  0  0  0  0  0  0
   -1.7321   -0.2654    4.9176 C   0  0  1  0  0  0  0  0  0  0  0  0
   -2.0120   -0.7192    6.1082 F   0  0  0  0  0  0  0  0  0  0  0  0
   -1.7813    1.2881    4.8611 C   0  0  0  0  0  0  0  0  0  0  0  0
   -1.7274    1.7127    3.5744 C   0  0  0  0  0  0  0  0  0  0  0  0
   -0.9909    2.9080    3.0090 C   0  0  0  0  0  0  0  0  0  0  0  0
    0.2780    3.3824    3.8038 C   0  0  2  0  0  0  0  0  0  0  0  0
    0.4695    4.6837    3.2818 O   0  0  0  0  0  0  0  0  0  0  0  0
    1.8250    2.5773    3.4432 C   0  0  2  0  0  0  0  0  0  0  0  0
    1.9231    1.6624    2.1526 C   0  0  0  0  0  0  0  0  0  0  0  0
    2.4623    0.2402    2.4496 C   0  0  0  0  0  0  0  0  0  0  0  0
    3.6928   -0.0019    1.9671 F   0  0  0  0  0  0  0  0  0  0  0  0
    2.1719   -0.3153    3.6537 C   0  0  0  0  0  0  0  0  0  0  0  0
    3.0784    0.1505    4.7732 C   0  0  2  0  0  0  0  0  0  0  0  0
    2.7058   -0.7061    6.2184 C   0  0  0  0  0  0  0  0  0  0  0  0
    1.4727   -0.5814    7.4251 C   0  0  0  0  0  0  0  0  0  0  0  0
    0.6132    0.6888    8.1047 C   0  0  0  0  0  0  0  0  0  0  0  0
    0.9892    1.0459    9.2192 O   0  0  0  0  0  0  0  0  0  0  0  0
   -0.7708    1.4658    7.5422 C   0  0  0  0  0  0  0  0  0  0  0  0
   -1.3172    2.2347    6.0786 C   0  0  2  0  0  0  0  0  0  0  0  0
   -2.6726    2.8054    6.5732 C   0  0  0  0  0  0  0  0  0  0  0  0
   -0.4414    3.5135    5.3480 C   0  0  2  0  0  0  0  0  0  0  0  0
   -1.3691    4.4607    5.1461 F   0  0  0  0  0  0  0  0  0  0  0  0
    0.5435    4.2184    6.2740 C   0  0  1  0  0  0  0  0  0  0  0  0
    0.2046    4.2388    7.6495 O   0  0  0  0  0  0  0  0  0  0  0  0
    1.9406    3.6934    6.0282 C   0  0  0  0  0  0  0  0  0  0  0  0
    2.8342    1.8178    4.6055 C   0  0  2  0  0  0  0  0  0  0  0  0
    4.1079    2.4063    4.5079 O   0  0  0  0  0  0  0  0  0  0  0  0
    3.6513    1.0619    7.3753 H   0  0  0  0  0  0  0  0  0  0  0  0
    2.7246    2.3475    8.0299 H   0  0  0  0  0  0  0  0  0  0  0  0
    4.0433    2.6328    6.9772 H   0  0  0  0  0  0  0  0  0  0  0  0
    0.3338    0.5278    5.8919 H   0  0  0  0  0  0  0  0  0  0  0  0
    0.3860    1.5335    4.7875 H   0  0  0  0  0  0  0  0  0  0  0  0
    0.3297    0.4018    3.3264 H   0  0  0  0  0  0  0  0  0  0  0  0
   -0.5344   -1.5327    3.5594 H   0  0  0  0  0  0  0  0  0  0  0  0
   -0.0689   -1.7397    5.1964 H   0  0  0  0  0  0  0  0  0  0  0  0
   -2.5533   -0.6550    4.3183 H   0  0  0  0  0  0  0  0  0  0  0  0
   -1.9178    0.9938    2.7904 H   0  0  0  0  0  0  0  0  0  0  0  0
   -0.7275    2.6151    2.0017 H   0  0  0  0  0  0  0  0  0  0  0  0
   -1.7293    3.7048    2.8955 H   0  0  0  0  0  0  0  0  0  0  0  0
    0.4099    4.6107    2.3142 H   0  0  0  0  0  0  0  0  0  0  0  0
    2.4275    3.4355    3.1423 H   0  0  0  0  0  0  0  0  0  0  0  0
    0.9962    1.5856    1.5946 H   0  0  0  0  0  0  0  0  0  0  0  0
    2.6108    2.1282    1.4733 H   0  0  0  0  0  0  0  0  0  0  0  0
    4.0957   -0.1070    4.4825 H   0  0  0  0  0  0  0  0  0  0  0  0
    2.5570   -1.7231    5.8533 H   0  0  0  0  0  0  0  0  0  0  0  0
    3.6497   -0.8492    6.7425 H   0  0  0  0  0  0  0  0  0  0  0  0
    0.6953   -1.2798    7.1228 H   0  0  0  0  0  0  0  0  0  0  0  0
    1.9087   -1.0766    8.2931 H   0  0  0  0  0  0  0  0  0  0  0  0
   -1.5497    0.7594    7.8039 H   0  0  0  0  0  0  0  0  0  0  0  0
   -0.9204    2.2167    8.3147 H   0  0  0  0  0  0  0  0  0  0  0  0
   -2.5537    3.6026    7.3099 H   0  0  0  0  0  0  0  0  0  0  0  0
   -3.2923    2.0295    7.0226 H   0  0  0  0  0  0  0  0  0  0  0  0
   -3.2672    3.2062    5.7502 H   0  0  0  0  0  0  0  0  0  0  0  0
    0.5764    5.2745    5.9938 H   0  0  0  0  0  0  0  0  0  0  0  0
    0.2369    3.3558    7.9849 H   0  0  0  0  0  0  0  0  0  0  0  0
    2.5463    4.1499    6.8116 H   0  0  0  0  0  0  0  0  0  0  0  0
    2.3558    4.2425    5.1844 H   0  0  0  0  0  0  0  0  0  0  0  0
    4.3685    2.4211    3.5937 H   0  0  0  0  0  0  0  0  0  0  0  0
  2  1  1  1
  1 33  1  0
  1 34  1  0
  1 35  1  0
  2 30  1  0
  2 31  1  0
  2  3  1  0
  3  4  1  0
  3 36  1  0
  3 37  1  0
  4 17  1  0
  4  5  1  0
  4 38  1  6
  5  6  1  0
  5 39  1  0
  5 40  1  0
  6  7  1  0
  6  8  1  0
  6 41  1  6
  8 24  1  0
  8  9  2  0
  9 10  1  0
  9 42  1  0
 10 11  1  0
 10 43  1  0
 10 44  1  0
 11 26  1  0
 11 12  1  6
 11 13  1  0
 12 45  1  0
 13 31  1  0
 13 14  1  0
 13 46  1  6
 14 15  1  0
 14 47  1  0
 14 48  1  0
 15 16  1  0
 15 17  2  0
 17 18  1  0
 18 19  1  0
 18 31  1  0
 18 49  1  6
 19 20  1  0
 19 50  1  0
 19 51  1  0
 20 21  1  0
 20 52  1  0
 20 53  1  0
 21 22  2  0
 21 23  1  0
 23 24  1  0
 23 54  1  0
 23 55  1  0
 24 25  1  1
 24 26  1  0
 25 56  1  0
 25 57  1  0
 25 58  1  0
 26 27  1  6
 26 28  1  0
 28 29  1  0
 28 30  1  0
 28 59  1  6
 29 60  1  0
 30 61  1  0
 30 62  1  0
 31 32  1  1
 32 63  1  0
M  END
>  <i_m_ct_stereo_status>  (154) 
1

>  <s_m_source_file>  (154) 
/var/tmp/pbs.5076255.sched01/tmpdonsa7tf/408ubvndgu.sdf

>  <i_m_source_file_index>  (154) 
31

>  <i_lp_mmshare_version>  (154) 
48012

>  <i_f3d_flags>  (154) 
1

>  <s_epik_input>  (154) 
W0NIM11bQ0BAXTEyW0NAXTMoW09IXSlbQ0BASF00W0NAXTUoW09IXSlbQ0BdKEYpKFtDQEBIXShbT0hdKVtDSDJdMilbQ0BAXTYoW0NIM10pQyg9W0NIXVtDSDJdNSlbQ0BIXShGKVtDSDJdW0NIXShbQ0gyXTEpQyg9QyhGKVtDSDJdNClbQ0BASF0zW0NIMl1bQ0gyXUMoPU8pW0NIMl02

>  <s_epik_cmdline>  (154) 
J2VwaWtfcHl0aG9uJywgJy1waHQnLCAnMi4wJywgJy1waCcsICc3LjAnLCAnLXRuJywgJzgnLCAnLW1hJywgJzIwMCcsICctaW1hZScsICc8aW5maWxlLm1hZT4nLCAnLW9tYWUnLCAnPG91dGZpbGUubWFlPic=

>  <r_lp_tautomer_probability>  (154) 
1

>  <r_epik_Ionization_Penalty>  (154) 
8.95451e-07

>  <r_epik_Ionization_Penalty_Charging>  (154) 
0

>  <r_epik_Ionization_Penalty_Neutral>  (154) 
8.95451e-07

>  <r_epik_State_Penalty>  (154) 
-0

>  <r_epik_Charging_Adjusted_Penalty>  (154) 
0

>  <i_epik_Tot_Q>  (154) 
0

>  <i_epik_Tot_abs_Q>  (154) 
0

>  <s_lp_Force_Field>  (154) 
OPLS3e

>  <r_lp_Energy>  (154) 
547.618

>  <b_lp_Chiralities_Consistent>  (154) 
1

>  <s_lp_Variant>  (154) 
52:0-1

>  <s_i_glide_gridfile>  (154) 
pfpi4k_grid

>  <i_i_glide_lignum>  (154) 
31

>  <i_i_glide_rotatable_bonds>  (154) 
3

>  <r_i_docking_score>  (154) 
-3.74932

>  <r_i_glide_ligand_efficiency>  (154) 
-0.117166

>  <r_i_glide_ligand_efficiency_sa>  (154) 
-0.37198

>  <r_i_glide_ligand_efficiency_ln>  (154) 
-0.839576

>  <r_i_glide_gscore>  (154) 
-3.74932

>  <r_i_glide_lipo>  (154) 
-0.18675

>  <r_i_glide_hbond>  (154) 
-0.456

>  <r_i_glide_metal>  (154) 
-0

>  <r_i_glide_rewards>  (154) 
-0.356668

>  <r_i_glide_evdw>  (154) 
-16.1627

>  <r_i_glide_ecoul>  (154) 
-11.9263

>  <r_i_glide_erotb>  (154) 
0

>  <r_i_glide_esite>  (154) 
-0.152824

>  <r_i_glide_emodel>  (154) 
-35.2343

>  <r_i_glide_energy>  (154) 
-28.089

>  <r_i_glide_einternal>  (154) 
0.664204

>  <r_i_glide_intrahb_reward>  (154) 
-0

>  <i_i_glide_confnum>  (154) 
1

>  <i_i_glide_posenum>  (154) 
24

>  <r_i_glide_eff_state_penalty>  (154) 
0

>  <ligand_id>  (154) 
52

>  <original_smiles>  (154) 
CC12CC3CC(F)C4=CCC5(O)C6CC(F)=C3C(CCC(=O)CC4(C)C5(F)C(O)C1)C62O

>  <smiles>  (154) 
[H]OC1([H])C([H])([H])C2(C([H])([H])[H])C([H])([H])C3([H])C4=C(F)C([H])([H])C5([H])C6(O[H])C([H])([H])C([H])=C(C([H])(F)C3([H])[H])C(C([H])([H])[H])(C([H])([H])C(=O)C([H])([H])C([H])([H])C4([H])C52O[H])C16F

$$$$
52:0:1
     RDKit          3D

 63 68  0  0  1  0  0  0  0  0999 V2000
    3.3471    3.8367    6.3744 C   0  0  0  0  0  0  0  0  0  0  0  0
    2.1354    3.2064    5.5452 C   0  0  1  0  0  0  0  0  0  0  0  0
    1.4542    1.6767    5.6664 C   0  0  0  0  0  0  0  0  0  0  0  0
    1.5200    0.3422    4.8550 C   0  0  2  0  0  0  0  0  0  0  0  0
    1.0095   -0.8957    5.6886 C   0  0  0  0  0  0  0  0  0  0  0  0
   -0.3594   -0.6369    6.5002 C   0  0  1  0  0  0  0  0  0  0  0  0
   -0.1232   -0.7443    7.8046 F   0  0  0  0  0  0  0  0  0  0  0  0
   -1.1420    0.6697    6.1406 C   0  0  0  0  0  0  0  0  0  0  0  0
   -1.5726    0.6560    4.8457 C   0  0  0  0  0  0  0  0  0  0  0  0
   -1.6045    1.8207    3.8393 C   0  0  0  0  0  0  0  0  0  0  0  0
   -0.5399    2.9636    4.0546 C   0  0  2  0  0  0  0  0  0  0  0  0
   -1.0519    4.0492    3.2836 O   0  0  0  0  0  0  0  0  0  0  0  0
    1.0827    2.7313    3.3448 C   0  0  2  0  0  0  0  0  0  0  0  0
    1.2790    1.5893    2.2664 C   0  0  0  0  0  0  0  0  0  0  0  0
    2.4245    0.6067    2.6269 C   0  0  0  0  0  0  0  0  0  0  0  0
    3.4718    0.6415    1.7870 F   0  0  0  0  0  0  0  0  0  0  0  0
    2.7038    0.3847    3.9373 C   0  0  0  0  0  0  0  0  0  0  0  0
    3.5453    1.4717    4.5796 C   0  0  2  0  0  0  0  0  0  0  0  0
    3.9446    1.0330    6.1941 C   0  0  0  0  0  0  0  0  0  0  0  0
    3.1104    1.0536    7.7047 C   0  0  0  0  0  0  0  0  0  0  0  0
    1.9591    2.0560    8.4018 C   0  0  0  0  0  0  0  0  0  0  0  0
    2.3871    2.8610    9.2266 O   0  0  0  0  0  0  0  0  0  0  0  0
    0.2834    2.0441    8.2195 C   0  0  0  0  0  0  0  0  0  0  0  0
   -0.8760    2.0586    6.9192 C   0  0  2  0  0  0  0  0  0  0  0  0
   -2.1864    2.2038    7.7389 C   0  0  0  0  0  0  0  0  0  0  0  0
   -0.8664    3.2813    5.7091 C   0  0  2  0  0  0  0  0  0  0  0  0
   -2.1371    3.7097    5.6766 F   0  0  0  0  0  0  0  0  0  0  0  0
   -0.1163    4.5484    6.1028 C   0  0  1  0  0  0  0  0  0  0  0  0
   -0.0991    4.8703    7.4799 O   0  0  0  0  0  0  0  0  0  0  0  0
    1.2671    4.5386    5.4916 C   0  0  0  0  0  0  0  0  0  0  0  0
    2.5609    2.7992    4.2115 C   0  0  2  0  0  0  0  0  0  0  0  0
    3.3987    3.7666    3.6067 O   0  0  0  0  0  0  0  0  0  0  0  0
    4.2388    3.2910    6.6158 H   0  0  0  0  0  0  0  0  0  0  0  0
    3.0127    4.2730    7.3115 H   0  0  0  0  0  0  0  0  0  0  0  0
    3.7740    4.6895    5.8422 H   0  0  0  0  0  0  0  0  0  0  0  0
    1.2738    1.1244    6.4845 H   0  0  0  0  0  0  0  0  0  0  0  0
    0.6035    1.6849    5.2627 H   0  0  0  0  0  0  0  0  0  0  0  0
    0.7174    0.2324    4.1299 H   0  0  0  0  0  0  0  0  0  0  0  0
    0.8463   -1.7232    4.9956 H   0  0  0  0  0  0  0  0  0  0  0  0
    1.7850   -1.2414    6.3712 H   0  0  0  0  0  0  0  0  0  0  0  0
   -1.0190   -1.4766    6.2814 H   0  0  0  0  0  0  0  0  0  0  0  0
   -1.6238   -0.3002    4.3426 H   0  0  0  0  0  0  0  0  0  0  0  0
   -1.5298    1.4048    2.8380 H   0  0  0  0  0  0  0  0  0  0  0  0
   -2.6200    2.2159    3.8788 H   0  0  0  0  0  0  0  0  0  0  0  0
   -0.6881    4.0184    2.3928 H   0  0  0  0  0  0  0  0  0  0  0  0
    1.1633    3.6214    2.7208 H   0  0  0  0  0  0  0  0  0  0  0  0
    0.3777    1.0155    2.0718 H   0  0  0  0  0  0  0  0  0  0  0  0
    1.5231    2.0468    1.3056 H   0  0  0  0  0  0  0  0  0  0  0  0
    4.4730    1.5251    4.0166 H   0  0  0  0  0  0  0  0  0  0  0  0
    4.1896   -0.0265    6.0891 H   0  0  0  0  0  0  0  0  0  0  0  0
    4.9459    1.4224    6.3761 H   0  0  0  0  0  0  0  0  0  0  0  0
    2.6814    0.0585    7.8204 H   0  0  0  0  0  0  0  0  0  0  0  0
    3.9125    1.0496    8.4460 H   0  0  0  0  0  0  0  0  0  0  0  0
   -0.0048    1.2163    8.8637 H   0  0  0  0  0  0  0  0  0  0  0  0
   -0.0025    2.8853    8.8486 H   0  0  0  0  0  0  0  0  0  0  0  0
   -2.2624    3.1724    8.2349 H   0  0  0  0  0  0  0  0  0  0  0  0
   -2.2592    1.4360    8.5102 H   0  0  0  0  0  0  0  0  0  0  0  0
   -3.0751    2.0859    7.1160 H   0  0  0  0  0  0  0  0  0  0  0  0
   -0.6242    5.3999    5.6472 H   0  0  0  0  0  0  0  0  0  0  0  0
    0.3816    4.2005    7.9461 H   0  0  0  0  0  0  0  0  0  0  0  0
    1.7634    5.4082    5.9260 H   0  0  0  0  0  0  0  0  0  0  0  0
    1.1841    4.9173    4.4750 H   0  0  0  0  0  0  0  0  0  0  0  0
    3.9013    3.3497    2.9128 H   0  0  0  0  0  0  0  0  0  0  0  0
  2  1  1  1
  1 33  1  0
  1 34  1  0
  1 35  1  0
  2 30  1  0
  2 31  1  0
  2  3  1  0
  3  4  1  0
  3 36  1  0
  3 37  1  0
  4 17  1  0
  4  5  1  0
  4 38  1  6
  5  6  1  0
  5 39  1  0
  5 40  1  0
  6  7  1  0
  6  8  1  0
  6 41  1  6
  8 24  1  0
  8  9  2  0
  9 10  1  0
  9 42  1  0
 10 11  1  0
 10 43  1  0
 10 44  1  0
 11 26  1  0
 11 12  1  6
 11 13  1  0
 12 45  1  0
 13 31  1  0
 13 14  1  0
 13 46  1  6
 14 15  1  0
 14 47  1  0
 14 48  1  0
 15 16  1  0
 15 17  2  0
 17 18  1  0
 18 19  1  0
 18 31  1  0
 18 49  1  6
 19 20  1  0
 19 50  1  0
 19 51  1  0
 20 21  1  0
 20 52  1  0
 20 53  1  0
 21 22  2  0
 21 23  1  0
 23 24  1  0
 23 54  1  0
 23 55  1  0
 24 25  1  1
 24 26  1  0
 25 56  1  0
 25 57  1  0
 25 58  1  0
 26 27  1  6
 26 28  1  0
 28 29  1  0
 28 30  1  0
 28 59  1  6
 29 60  1  0
 30 61  1  0
 30 62  1  0
 31 32  1  6
 32 63  1  0
M  END
>  <i_m_ct_stereo_status>  (155) 
1

>  <s_m_source_file>  (155) 
/var/tmp/pbs.5076255.sched01/tmpdonsa7tf/408ubvndgu.sdf

>  <i_m_source_file_index>  (155) 
31

>  <i_lp_mmshare_version>  (155) 
48012

>  <i_f3d_flags>  (155) 
1

>  <s_epik_input>  (155) 
W0NIM11bQ0BAXTEyW0NAXTMoW09IXSlbQ0BASF00W0NAXTUoW09IXSlbQ0BdKEYpKFtDQEBIXShbT0hdKVtDSDJdMilbQ0BAXTYoW0NIM10pQyg9W0NIXVtDSDJdNSlbQ0BIXShGKVtDSDJdW0NIXShbQ0gyXTEpQyg9QyhGKVtDSDJdNClbQ0BASF0zW0NIMl1bQ0gyXUMoPU8pW0NIMl02

>  <s_epik_cmdline>  (155) 
J2VwaWtfcHl0aG9uJywgJy1waHQnLCAnMi4wJywgJy1waCcsICc3LjAnLCAnLXRuJywgJzgnLCAnLW1hJywgJzIwMCcsICctaW1hZScsICc8aW5maWxlLm1hZT4nLCAnLW9tYWUnLCAnPG91dGZpbGUubWFlPic=

>  <r_lp_tautomer_probability>  (155) 
1

>  <r_epik_Ionization_Penalty>  (155) 
8.95451e-07

>  <r_epik_Ionization_Penalty_Charging>  (155) 
0

>  <r_epik_Ionization_Penalty_Neutral>  (155) 
8.95451e-07

>  <r_epik_State_Penalty>  (155) 
-0

>  <r_epik_Charging_Adjusted_Penalty>  (155) 
0

>  <i_epik_Tot_Q>  (155) 
0

>  <i_epik_Tot_abs_Q>  (155) 
0

>  <s_lp_Force_Field>  (155) 
OPLS3e

>  <r_lp_Energy>  (155) 
547.618

>  <b_lp_Chiralities_Consistent>  (155) 
1

>  <s_lp_Variant>  (155) 
52:0-1

>  <s_i_glide_gridfile>  (155) 
pfpi4k_grid

>  <i_i_glide_lignum>  (155) 
31

>  <i_i_glide_rotatable_bonds>  (155) 
3

>  <r_i_docking_score>  (155) 
-3.45619

>  <r_i_glide_ligand_efficiency>  (155) 
-0.108006

>  <r_i_glide_ligand_efficiency_sa>  (155) 
-0.342897

>  <r_i_glide_ligand_efficiency_ln>  (155) 
-0.773934

>  <r_i_glide_gscore>  (155) 
-3.45619

>  <r_i_glide_lipo>  (155) 
0

>  <r_i_glide_hbond>  (155) 
-0.456

>  <r_i_glide_metal>  (155) 
-0

>  <r_i_glide_rewards>  (155) 
-0.445537

>  <r_i_glide_evdw>  (155) 
-22.1133

>  <r_i_glide_ecoul>  (155) 
-9.21715

>  <r_i_glide_erotb>  (155) 
0

>  <r_i_glide_esite>  (155) 
-0.0664125

>  <r_i_glide_emodel>  (155) 
-37.7693

>  <r_i_glide_energy>  (155) 
-31.3304

>  <r_i_glide_einternal>  (155) 
1.00656

>  <r_i_glide_intrahb_reward>  (155) 
-0

>  <i_i_glide_confnum>  (155) 
1

>  <i_i_glide_posenum>  (155) 
36

>  <r_i_glide_eff_state_penalty>  (155) 
0

>  <ligand_id>  (155) 
52

>  <original_smiles>  (155) 
CC12CC3CC(F)C4=CCC5(O)C6CC(F)=C3C(CCC(=O)CC4(C)C5(F)C(O)C1)C62O

>  <smiles>  (155) 
[H]OC1([H])C([H])([H])C2(C([H])([H])[H])C([H])([H])C3([H])C4=C(F)C([H])([H])C5([H])C6(O[H])C([H])([H])C([H])=C(C([H])(F)C3([H])[H])C(C([H])([H])[H])(C([H])([H])C(=O)C([H])([H])C([H])([H])C4([H])C52O[H])C16F

$$$$
52:0:2
     RDKit          3D

 63 68  0  0  1  0  0  0  0  0999 V2000
    3.2541    3.4347    6.5828 C   0  0  0  0  0  0  0  0  0  0  0  0
    2.0422    2.9933    5.6430 C   0  0  1  0  0  0  0  0  0  0  0  0
    1.2799    1.4993    5.5341 C   0  0  0  0  0  0  0  0  0  0  0  0
    1.3047    0.2860    4.5522 C   0  0  2  0  0  0  0  0  0  0  0  0
    0.6947   -1.0246    5.1829 C   0  0  0  0  0  0  0  0  0  0  0  0
   -0.6817   -0.8017    5.9867 C   0  0  1  0  0  0  0  0  0  0  0  0
   -0.4562   -1.0911    7.2624 F   0  0  0  0  0  0  0  0  0  0  0  0
   -1.3808    0.5864    5.7930 C   0  0  0  0  0  0  0  0  0  0  0  0
   -1.7632    0.7741    4.4976 C   0  0  0  0  0  0  0  0  0  0  0  0
   -1.7067    2.0644    3.6586 C   0  0  0  0  0  0  0  0  0  0  0  0
   -0.5922    3.0994    4.0649 C   0  0  2  0  0  0  0  0  0  0  0  0
   -1.0243    4.3019    3.4356 O   0  0  0  0  0  0  0  0  0  0  0  0
    1.0405    2.8761    3.3738 C   0  0  2  0  0  0  0  0  0  0  0  0
    1.2253    1.8767    2.1572 C   0  0  0  0  0  0  0  0  0  0  0  0
    2.3080    0.7973    2.4126 C   0  0  0  0  0  0  0  0  0  0  0  0
    3.3987    0.9104    1.6400 F   0  0  0  0  0  0  0  0  0  0  0  0
    2.5226    0.3852    3.6874 C   0  0  0  0  0  0  0  0  0  0  0  0
    3.3938    1.3297    4.4905 C   0  0  2  0  0  0  0  0  0  0  0  0
    3.7120    0.6533    6.0397 C   0  0  0  0  0  0  0  0  0  0  0  0
    2.8247    0.5153    7.5125 C   0  0  0  0  0  0  0  0  0  0  0  0
    1.7041    1.4770    8.3086 C   0  0  0  0  0  0  0  0  0  0  0  0
    2.1458    2.1152    9.2595 O   0  0  0  0  0  0  0  0  0  0  0  0
    0.0370    1.5858    8.0778 C   0  0  0  0  0  0  0  0  0  0  0  0
   -1.0726    1.8408    6.7602 C   0  0  2  0  0  0  0  0  0  0  0  0
   -2.4036    1.9566    7.5480 C   0  0  0  0  0  0  0  0  0  0  0  0
   -0.9568    3.2127    5.7314 C   0  0  2  0  0  0  0  0  0  0  0  0
   -2.1990    3.7169    5.7262 F   0  0  0  0  0  0  0  0  0  0  0  0
   -0.1598    4.3732    6.3119 C   0  0  1  0  0  0  0  0  0  0  0  0
   -0.1763    4.4824    7.7192 O   0  0  0  0  0  0  0  0  0  0  0  0
    1.2443    4.3654    5.7492 C   0  0  0  0  0  0  0  0  0  0  0  0
    2.4933    2.7463    4.2756 C   0  0  2  0  0  0  0  0  0  0  0  0
    3.3992    3.7295    3.8044 O   0  0  0  0  0  0  0  0  0  0  0  0
    4.1046    2.8103    6.7780 H   0  0  0  0  0  0  0  0  0  0  0  0
    2.9071    3.7546    7.5624 H   0  0  0  0  0  0  0  0  0  0  0  0
    3.7449    4.3251    6.1835 H   0  0  0  0  0  0  0  0  0  0  0  0
    1.0387    0.8530    6.2629 H   0  0  0  0  0  0  0  0  0  0  0  0
    0.4445    1.6105    5.1162 H   0  0  0  0  0  0  0  0  0  0  0  0
    0.5263    0.3201    3.7959 H   0  0  0  0  0  0  0  0  0  0  0  0
    0.5175   -1.7391    4.3779 H   0  0  0  0  0  0  0  0  0  0  0  0
    1.4278   -1.5026    5.8333 H   0  0  0  0  0  0  0  0  0  0  0  0
   -1.3850   -1.5620    5.6477 H   0  0  0  0  0  0  0  0  0  0  0  0
   -1.8417   -0.0984    3.8646 H   0  0  0  0  0  0  0  0  0  0  0  0
   -1.6106    1.7847    2.6136 H   0  0  0  0  0  0  0  0  0  0  0  0
   -2.7024    2.5050    3.7177 H   0  0  0  0  0  0  0  0  0  0  0  0
   -0.7091    4.2857    2.5339 H   0  0  0  0  0  0  0  0  0  0  0  0
    1.1782    3.8388    2.8809 H   0  0  0  0  0  0  0  0  0  0  0  0
    0.3033    1.3909    1.8492 H   0  0  0  0  0  0  0  0  0  0  0  0
    1.5359    2.4552    1.2889 H   0  0  0  0  0  0  0  0  0  0  0  0
    4.3417    1.4092    3.9621 H   0  0  0  0  0  0  0  0  0  0  0  0
    3.9026   -0.3936    5.7969 H   0  0  0  0  0  0  0  0  0  0  0  0
    4.7255    0.9542    6.3034 H   0  0  0  0  0  0  0  0  0  0  0  0
    2.3399   -0.4589    7.4788 H   0  0  0  0  0  0  0  0  0  0  0  0
    3.5974    0.3689    8.2688 H   0  0  0  0  0  0  0  0  0  0  0  0
   -0.3185    0.7010    8.5994 H   0  0  0  0  0  0  0  0  0  0  0  0
   -0.2178    2.3582    8.8003 H   0  0  0  0  0  0  0  0  0  0  0  0
   -2.4520    2.8470    8.1760 H   0  0  0  0  0  0  0  0  0  0  0  0
   -2.5420    1.0983    8.2012 H   0  0  0  0  0  0  0  0  0  0  0  0
   -3.2749    1.9700    6.8897 H   0  0  0  0  0  0  0  0  0  0  0  0
   -0.6044    5.3093    5.9666 H   0  0  0  0  0  0  0  0  0  0  0  0
   -1.0784    4.5147    8.0063 H   0  0  0  0  0  0  0  0  0  0  0  0
    1.7677    5.1376    6.3166 H   0  0  0  0  0  0  0  0  0  0  0  0
    1.2184    4.8826    4.7921 H   0  0  0  0  0  0  0  0  0  0  0  0
    3.8465    3.3903    3.0352 H   0  0  0  0  0  0  0  0  0  0  0  0
  2  1  1  1
  1 33  1  0
  1 34  1  0
  1 35  1  0
  2 30  1  0
  2 31  1  0
  2  3  1  0
  3  4  1  0
  3 36  1  0
  3 37  1  0
  4 17  1  0
  4  5  1  0
  4 38  1  6
  5  6  1  0
  5 39  1  0
  5 40  1  0
  6  7  1  0
  6  8  1  0
  6 41  1  6
  8 24  1  0
  8  9  2  0
  9 10  1  0
  9 42  1  0
 10 11  1  0
 10 43  1  0
 10 44  1  0
 11 26  1  0
 11 12  1  6
 11 13  1  0
 12 45  1  0
 13 31  1  0
 13 14  1  0
 13 46  1  6
 14 15  1  0
 14 47  1  0
 14 48  1  0
 15 16  1  0
 15 17  2  0
 17 18  1  0
 18 19  1  0
 18 31  1  0
 18 49  1  6
 19 20  1  0
 19 50  1  0
 19 51  1  0
 20 21  1  0
 20 52  1  0
 20 53  1  0
 21 22  2  0
 21 23  1  0
 23 24  1  0
 23 54  1  0
 23 55  1  0
 24 25  1  1
 24 26  1  0
 25 56  1  0
 25 57  1  0
 25 58  1  0
 26 27  1  6
 26 28  1  0
 28 29  1  0
 28 30  1  0
 28 59  1  6
 29 60  1  0
 30 61  1  0
 30 62  1  0
 31 32  1  6
 32 63  1  0
M  END
>  <i_m_ct_stereo_status>  (156) 
1

>  <s_m_source_file>  (156) 
/var/tmp/pbs.5076255.sched01/tmpdonsa7tf/408ubvndgu.sdf

>  <i_m_source_file_index>  (156) 
31

>  <i_lp_mmshare_version>  (156) 
48012

>  <i_f3d_flags>  (156) 
1

>  <s_epik_input>  (156) 
W0NIM11bQ0BAXTEyW0NAXTMoW09IXSlbQ0BASF00W0NAXTUoW09IXSlbQ0BdKEYpKFtDQEBIXShbT0hdKVtDSDJdMilbQ0BAXTYoW0NIM10pQyg9W0NIXVtDSDJdNSlbQ0BIXShGKVtDSDJdW0NIXShbQ0gyXTEpQyg9QyhGKVtDSDJdNClbQ0BASF0zW0NIMl1bQ0gyXUMoPU8pW0NIMl02

>  <s_epik_cmdline>  (156) 
J2VwaWtfcHl0aG9uJywgJy1waHQnLCAnMi4wJywgJy1waCcsICc3LjAnLCAnLXRuJywgJzgnLCAnLW1hJywgJzIwMCcsICctaW1hZScsICc8aW5maWxlLm1hZT4nLCAnLW9tYWUnLCAnPG91dGZpbGUubWFlPic=

>  <r_lp_tautomer_probability>  (156) 
1

>  <r_epik_Ionization_Penalty>  (156) 
8.95451e-07

>  <r_epik_Ionization_Penalty_Charging>  (156) 
0

>  <r_epik_Ionization_Penalty_Neutral>  (156) 
8.95451e-07

>  <r_epik_State_Penalty>  (156) 
-0

>  <r_epik_Charging_Adjusted_Penalty>  (156) 
0

>  <i_epik_Tot_Q>  (156) 
0

>  <i_epik_Tot_abs_Q>  (156) 
0

>  <s_lp_Force_Field>  (156) 
OPLS3e

>  <r_lp_Energy>  (156) 
547.618

>  <b_lp_Chiralities_Consistent>  (156) 
1

>  <s_lp_Variant>  (156) 
52:0-1

>  <s_i_glide_gridfile>  (156) 
pfpi4k_grid

>  <i_i_glide_lignum>  (156) 
31

>  <i_i_glide_rotatable_bonds>  (156) 
3

>  <r_i_docking_score>  (156) 
-3.2617

>  <r_i_glide_ligand_efficiency>  (156) 
-0.101928

>  <r_i_glide_ligand_efficiency_sa>  (156) 
-0.323602

>  <r_i_glide_ligand_efficiency_ln>  (156) 
-0.730384

>  <r_i_glide_gscore>  (156) 
-3.2617

>  <r_i_glide_lipo>  (156) 
0

>  <r_i_glide_hbond>  (156) 
-0.456

>  <r_i_glide_metal>  (156) 
-0

>  <r_i_glide_rewards>  (156) 
-0.435417

>  <r_i_glide_evdw>  (156) 
-21.4897

>  <r_i_glide_ecoul>  (156) 
-8.13861

>  <r_i_glide_erotb>  (156) 
0

>  <r_i_glide_esite>  (156) 
-0.0750092

>  <r_i_glide_emodel>  (156) 
-35.8251

>  <r_i_glide_energy>  (156) 
-29.6283

>  <r_i_glide_einternal>  (156) 
0.9036

>  <r_i_glide_intrahb_reward>  (156) 
-0

>  <i_i_glide_confnum>  (156) 
2

>  <i_i_glide_posenum>  (156) 
7

>  <r_i_glide_eff_state_penalty>  (156) 
0

>  <ligand_id>  (156) 
52

>  <original_smiles>  (156) 
CC12CC3CC(F)C4=CCC5(O)C6CC(F)=C3C(CCC(=O)CC4(C)C5(F)C(O)C1)C62O

>  <smiles>  (156) 
[H]OC1([H])C([H])([H])C2(C([H])([H])[H])C([H])([H])C3([H])C4=C(F)C([H])([H])C5([H])C6(O[H])C([H])([H])C([H])=C(C([H])(F)C3([H])[H])C(C([H])([H])[H])(C([H])([H])C(=O)C([H])([H])C([H])([H])C4([H])C52O[H])C16F

$$$$
52:1:0
     RDKit          3D

 63 68  0  0  1  0  0  0  0  0999 V2000
    3.7791    1.9184    6.8829 C   0  0  0  0  0  0  0  0  0  0  0  0
    2.8023    1.5562    5.6367 C   0  0  1  0  0  0  0  0  0  0  0  0
    1.3377    0.5896    5.5364 C   0  0  0  0  0  0  0  0  0  0  0  0
    0.9698   -0.9400    5.5180 C   0  0  1  0  0  0  0  0  0  0  0  0
   -0.5504   -1.1654    5.0803 C   0  0  0  0  0  0  0  0  0  0  0  0
   -1.5926    0.0002    5.4103 C   0  0  1  0  0  0  0  0  0  0  0  0
   -1.7315    0.1454    6.7208 F   0  0  0  0  0  0  0  0  0  0  0  0
   -1.2141    1.3150    4.7040 C   0  0  0  0  0  0  0  0  0  0  0  0
   -1.0833    1.0780    3.3664 C   0  0  0  0  0  0  0  0  0  0  0  0
   -0.0179    1.5990    2.4193 C   0  0  0  0  0  0  0  0  0  0  0  0
    1.2940    2.0812    3.1135 C   0  0  2  0  0  0  0  0  0  0  0  0
    1.8234    2.9431    2.1071 O   0  0  0  0  0  0  0  0  0  0  0  0
    2.6245    0.9348    3.2660 C   0  0  2  0  0  0  0  0  0  0  0  0
    2.5374   -0.4514    2.5554 C   0  0  0  0  0  0  0  0  0  0  0  0
    2.0611   -1.5899    3.4614 C   0  0  0  0  0  0  0  0  0  0  0  0
    1.0835   -2.3502    2.9455 F   0  0  0  0  0  0  0  0  0  0  0  0
    2.1586   -1.5129    4.8117 C   0  0  0  0  0  0  0  0  0  0  0  0
    3.2898   -0.7773    5.5467 C   0  0  2  0  0  0  0  0  0  0  0  0
    2.9736   -0.7004    7.2368 C   0  0  0  0  0  0  0  0  0  0  0  0
    1.7617    0.1572    8.1556 C   0  0  0  0  0  0  0  0  0  0  0  0
    1.1362    1.7201    8.1090 C   0  0  0  0  0  0  0  0  0  0  0  0
    1.5832    2.4698    8.9707 O   0  0  0  0  0  0  0  0  0  0  0  0
   -0.0822    2.3942    7.1586 C   0  0  0  0  0  0  0  0  0  0  0  0
   -0.4622    2.5128    5.4595 C   0  0  2  0  0  0  0  0  0  0  0  0
   -1.6167    3.5544    5.5495 C   0  0  0  0  0  0  0  0  0  0  0  0
    0.6757    3.0486    4.3483 C   0  0  2  0  0  0  0  0  0  0  0  0
   -0.0105    3.9667    3.6598 F   0  0  0  0  0  0  0  0  0  0  0  0
    1.7846    3.9088    4.9180 C   0  0  1  0  0  0  0  0  0  0  0  0
    1.5036    4.5945    6.1225 O   0  0  0  0  0  0  0  0  0  0  0  0
    2.9906    3.0318    5.0302 C   0  0  0  0  0  0  0  0  0  0  0  0
    3.4220    0.6145    4.6962 C   0  0  2  0  0  0  0  0  0  0  0  0
    4.8066    0.8185    4.4797 O   0  0  0  0  0  0  0  0  0  0  0  0
    3.8911    1.3432    7.7810 H   0  0  0  0  0  0  0  0  0  0  0  0
    3.5031    2.8658    7.3484 H   0  0  0  0  0  0  0  0  0  0  0  0
    4.8155    2.0575    6.5714 H   0  0  0  0  0  0  0  0  0  0  0  0
    0.5755    0.5654    6.2170 H   0  0  0  0  0  0  0  0  0  0  0  0
    0.9140    0.5440    4.6032 H   0  0  0  0  0  0  0  0  0  0  0  0
    0.9169   -1.4634    6.4641 H   0  0  0  0  0  0  0  0  0  0  0  0
   -0.6173   -1.3755    4.0214 H   0  0  0  0  0  0  0  0  0  0  0  0
   -0.9000   -2.0847    5.5465 H   0  0  0  0  0  0  0  0  0  0  0  0
   -2.5771   -0.2972    5.0478 H   0  0  0  0  0  0  0  0  0  0  0  0
   -1.5846    0.2217    2.9432 H   0  0  0  0  0  0  0  0  0  0  0  0
    0.1882    0.8218    1.6872 H   0  0  0  0  0  0  0  0  0  0  0  0
   -0.5093    2.3890    1.8530 H   0  0  0  0  0  0  0  0  0  0  0  0
    1.1158    3.4791    1.7244 H   0  0  0  0  0  0  0  0  0  0  0  0
    3.3944    1.4027    2.6499 H   0  0  0  0  0  0  0  0  0  0  0  0
    1.9286   -0.4056    1.6533 H   0  0  0  0  0  0  0  0  0  0  0  0
    3.5328   -0.7302    2.2070 H   0  0  0  0  0  0  0  0  0  0  0  0
    4.1820   -1.3796    5.3825 H   0  0  0  0  0  0  0  0  0  0  0  0
    2.7749   -1.7407    7.4987 H   0  0  0  0  0  0  0  0  0  0  0  0
    3.9386   -0.6268    7.7358 H   0  0  0  0  0  0  0  0  0  0  0  0
    0.8787   -0.4751    8.2304 H   0  0  0  0  0  0  0  0  0  0  0  0
    2.1491    0.1010    9.1730 H   0  0  0  0  0  0  0  0  0  0  0  0
   -0.9856    2.0382    7.6482 H   0  0  0  0  0  0  0  0  0  0  0  0
   -0.0626    3.4262    7.5041 H   0  0  0  0  0  0  0  0  0  0  0  0
   -1.2644    4.5346    5.8726 H   0  0  0  0  0  0  0  0  0  0  0  0
   -2.3918    3.2353    6.2484 H   0  0  0  0  0  0  0  0  0  0  0  0
   -2.1313    3.6917    4.5956 H   0  0  0  0  0  0  0  0  0  0  0  0
    2.0418    4.6918    4.2004 H   0  0  0  0  0  0  0  0  0  0  0  0
    2.2260    5.1692    6.3210 H   0  0  0  0  0  0  0  0  0  0  0  0
    3.7551    3.6575    5.4944 H   0  0  0  0  0  0  0  0  0  0  0  0
    3.4803    3.0328    4.0613 H   0  0  0  0  0  0  0  0  0  0  0  0
    4.9121    1.5994    3.9577 H   0  0  0  0  0  0  0  0  0  0  0  0
  2  1  1  1
  1 33  1  0
  1 34  1  0
  1 35  1  0
  2 30  1  0
  2 31  1  0
  2  3  1  0
  3  4  1  0
  3 36  1  0
  3 37  1  0
  4 17  1  0
  4  5  1  0
  4 38  1  1
  5  6  1  0
  5 39  1  0
  5 40  1  0
  6  7  1  0
  6  8  1  0
  6 41  1  6
  8 24  1  0
  8  9  2  0
  9 10  1  0
  9 42  1  0
 10 11  1  0
 10 43  1  0
 10 44  1  0
 11 26  1  0
 11 12  1  6
 11 13  1  0
 12 45  1  0
 13 31  1  0
 13 14  1  0
 13 46  1  6
 14 15  1  0
 14 47  1  0
 14 48  1  0
 15 16  1  0
 15 17  2  0
 17 18  1  0
 18 19  1  0
 18 31  1  0
 18 49  1  1
 19 20  1  0
 19 50  1  0
 19 51  1  0
 20 21  1  0
 20 52  1  0
 20 53  1  0
 21 22  2  0
 21 23  1  0
 23 24  1  0
 23 54  1  0
 23 55  1  0
 24 25  1  1
 24 26  1  0
 25 56  1  0
 25 57  1  0
 25 58  1  0
 26 27  1  6
 26 28  1  0
 28 29  1  0
 28 30  1  0
 28 59  1  6
 29 60  1  0
 30 61  1  0
 30 62  1  0
 31 32  1  6
 32 63  1  0
M  END
>  <i_m_ct_stereo_status>  (157) 
1

>  <s_m_source_file>  (157) 
/var/tmp/pbs.5076255.sched01/tmpdonsa7tf/408ubvndgu.sdf

>  <i_m_source_file_index>  (157) 
32

>  <i_lp_mmshare_version>  (157) 
48012

>  <i_f3d_flags>  (157) 
1

>  <s_epik_input>  (157) 
W0NIM11bQ0BAXTEyW0NAXTMoW09IXSlbQ0BASF00W0NAXTUoW09IXSlbQ0BdKEYpKFtDQEBIXShbT0hdKVtDSDJdMilbQ0BAXTYoW0NIM10pQyg9W0NIXVtDSDJdNSlbQ0BIXShGKVtDSDJdW0NIXShbQ0gyXTEpQyg9QyhGKVtDSDJdNClbQ0BASF0zW0NIMl1bQ0gyXUMoPU8pW0NIMl02

>  <s_epik_cmdline>  (157) 
J2VwaWtfcHl0aG9uJywgJy1waHQnLCAnMi4wJywgJy1waCcsICc3LjAnLCAnLXRuJywgJzgnLCAnLW1hJywgJzIwMCcsICctaW1hZScsICc8aW5maWxlLm1hZT4nLCAnLW9tYWUnLCAnPG91dGZpbGUubWFlPic=

>  <r_lp_tautomer_probability>  (157) 
1

>  <r_epik_Ionization_Penalty>  (157) 
8.95451e-07

>  <r_epik_Ionization_Penalty_Charging>  (157) 
0

>  <r_epik_Ionization_Penalty_Neutral>  (157) 
8.95451e-07

>  <r_epik_State_Penalty>  (157) 
-0

>  <r_epik_Charging_Adjusted_Penalty>  (157) 
0

>  <i_epik_Tot_Q>  (157) 
0

>  <i_epik_Tot_abs_Q>  (157) 
0

>  <s_lp_Force_Field>  (157) 
OPLS3e

>  <r_lp_Energy>  (157) 
535.856

>  <b_lp_Chiralities_Consistent>  (157) 
1

>  <s_lp_Variant>  (157) 
52:0-2

>  <s_i_glide_gridfile>  (157) 
pfpi4k_grid

>  <i_i_glide_lignum>  (157) 
32

>  <i_i_glide_rotatable_bonds>  (157) 
3

>  <r_i_docking_score>  (157) 
-2.95539

>  <r_i_glide_ligand_efficiency>  (157) 
-0.0923558

>  <r_i_glide_ligand_efficiency_sa>  (157) 
-0.293211

>  <r_i_glide_ligand_efficiency_ln>  (157) 
-0.661792

>  <r_i_glide_gscore>  (157) 
-2.95539

>  <r_i_glide_lipo>  (157) 
-0.00183719

>  <r_i_glide_hbond>  (157) 
-0.301714

>  <r_i_glide_metal>  (157) 
-0

>  <r_i_glide_rewards>  (157) 
-0.35953

>  <r_i_glide_evdw>  (157) 
-20.4315

>  <r_i_glide_ecoul>  (157) 
-7.1382

>  <r_i_glide_erotb>  (157) 
0

>  <r_i_glide_esite>  (157) 
-0.2

>  <r_i_glide_emodel>  (157) 
-33.332

>  <r_i_glide_energy>  (157) 
-27.5697

>  <r_i_glide_einternal>  (157) 
0.611284

>  <r_i_glide_intrahb_reward>  (157) 
-0

>  <i_i_glide_confnum>  (157) 
2

>  <i_i_glide_posenum>  (157) 
27

>  <r_i_glide_eff_state_penalty>  (157) 
0

>  <ligand_id>  (157) 
52

>  <original_smiles>  (157) 
CC12CC3CC(F)C4=CCC5(O)C6CC(F)=C3C(CCC(=O)CC4(C)C5(F)C(O)C1)C62O

>  <smiles>  (157) 
[H]OC1([H])C([H])([H])C2(C([H])([H])[H])C([H])([H])C3([H])C4=C(F)C([H])([H])C5([H])C6(O[H])C([H])([H])C([H])=C(C([H])(F)C3([H])[H])C(C([H])([H])[H])(C([H])([H])C(=O)C([H])([H])C([H])([H])C4([H])C52O[H])C16F

$$$$
52:1:1
     RDKit          3D

 63 68  0  0  1  0  0  0  0  0999 V2000
    2.4461    3.5404    7.7309 C   0  0  0  0  0  0  0  0  0  0  0  0
    2.0170    2.7900    6.3564 C   0  0  1  0  0  0  0  0  0  0  0  0
    0.9617    1.4200    6.0465 C   0  0  0  0  0  0  0  0  0  0  0  0
    1.0269   -0.1455    6.1999 C   0  0  1  0  0  0  0  0  0  0  0  0
   -0.1737   -0.8637    5.4281 C   0  0  0  0  0  0  0  0  0  0  0  0
   -1.5365   -0.0456    5.2818 C   0  0  1  0  0  0  0  0  0  0  0  0
   -2.0933    0.1473    6.4761 F   0  0  0  0  0  0  0  0  0  0  0  0
   -1.3232    1.2549    4.4707 C   0  0  0  0  0  0  0  0  0  0  0  0
   -0.7447    0.9485    3.2752 C   0  0  0  0  0  0  0  0  0  0  0  0
    0.3857    1.6751    2.5559 C   0  0  0  0  0  0  0  0  0  0  0  0
    1.2616    2.5999    3.4670 C   0  0  2  0  0  0  0  0  0  0  0  0
    1.8138    3.4776    2.4923 O   0  0  0  0  0  0  0  0  0  0  0  0
    2.7349    1.9265    4.1654 C   0  0  2  0  0  0  0  0  0  0  0  0
    3.2325    0.5174    3.7153 C   0  0  0  0  0  0  0  0  0  0  0  0
    2.8171   -0.6250    4.6478 C   0  0  0  0  0  0  0  0  0  0  0  0
    2.2770   -1.6891    4.0305 F   0  0  0  0  0  0  0  0  0  0  0  0
    2.4815   -0.3957    5.9426 C   0  0  0  0  0  0  0  0  0  0  0  0
    3.1052    0.7109    6.8076 C   0  0  2  0  0  0  0  0  0  0  0  0
    2.2870    0.8445    8.3143 C   0  0  0  0  0  0  0  0  0  0  0  0
    0.6718    1.3799    8.7213 C   0  0  0  0  0  0  0  0  0  0  0  0
   -0.2965    2.6661    8.2321 C   0  0  0  0  0  0  0  0  0  0  0  0
   -0.3345    3.6127    9.0161 O   0  0  0  0  0  0  0  0  0  0  0  0
   -1.3051    2.8493    6.8992 C   0  0  0  0  0  0  0  0  0  0  0  0
   -1.1702    2.6929    5.1690 C   0  0  2  0  0  0  0  0  0  0  0  0
   -2.5166    3.3448    4.7623 C   0  0  0  0  0  0  0  0  0  0  0  0
    0.0659    3.4401    4.3129 C   0  0  2  0  0  0  0  0  0  0  0  0
   -0.5929    4.0372    3.3143 F   0  0  0  0  0  0  0  0  0  0  0  0
    0.6818    4.6472    4.9956 C   0  0  1  0  0  0  0  0  0  0  0  0
   -0.1193    5.3365    5.9409 O   0  0  0  0  0  0  0  0  0  0  0  0
    1.9841    4.1915    5.5709 C   0  0  0  0  0  0  0  0  0  0  0  0
    3.1187    1.9929    5.7909 C   0  0  2  0  0  0  0  0  0  0  0  0
    4.3996    2.5857    5.9219 O   0  0  0  0  0  0  0  0  0  0  0  0
    2.4296    3.1112    8.7129 H   0  0  0  0  0  0  0  0  0  0  0  0
    1.8082    4.4021    7.9348 H   0  0  0  0  0  0  0  0  0  0  0  0
    3.4535    3.9562    7.6817 H   0  0  0  0  0  0  0  0  0  0  0  0
    0.0637    1.2271    6.4983 H   0  0  0  0  0  0  0  0  0  0  0  0
    0.8653    1.1613    5.0566 H   0  0  0  0  0  0  0  0  0  0  0  0
    0.8333   -0.5693    7.1770 H   0  0  0  0  0  0  0  0  0  0  0  0
    0.1337   -1.1719    4.4388 H   0  0  0  0  0  0  0  0  0  0  0  0
   -0.3903   -1.7968    5.9390 H   0  0  0  0  0  0  0  0  0  0  0  0
   -2.2528   -0.6505    4.7251 H   0  0  0  0  0  0  0  0  0  0  0  0
   -0.8404   -0.0543    2.8891 H   0  0  0  0  0  0  0  0  0  0  0  0
    1.0009    0.9329    2.0571 H   0  0  0  0  0  0  0  0  0  0  0  0
   -0.0959    2.2148    1.7417 H   0  0  0  0  0  0  0  0  0  0  0  0
    1.1178    3.7793    1.8937 H   0  0  0  0  0  0  0  0  0  0  0  0
    3.5018    2.5495    3.7020 H   0  0  0  0  0  0  0  0  0  0  0  0
    2.9322    0.2963    2.6928 H   0  0  0  0  0  0  0  0  0  0  0  0
    4.3224    0.5242    3.6979 H   0  0  0  0  0  0  0  0  0  0  0  0
    4.1307    0.3927    6.9901 H   0  0  0  0  0  0  0  0  0  0  0  0
    2.2979   -0.1770    8.6940 H   0  0  0  0  0  0  0  0  0  0  0  0
    3.0018    1.2524    9.0270 H   0  0  0  0  0  0  0  0  0  0  0  0
    0.0076    0.5182    8.6726 H   0  0  0  0  0  0  0  0  0  0  0  0
    0.7346    1.5344    9.7984 H   0  0  0  0  0  0  0  0  0  0  0  0
   -2.1827    2.2760    7.1828 H   0  0  0  0  0  0  0  0  0  0  0  0
   -1.6741    3.8596    7.0516 H   0  0  0  0  0  0  0  0  0  0  0  0
   -2.5212    4.4138    4.9657 H   0  0  0  0  0  0  0  0  0  0  0  0
   -3.3631    2.9179    5.2975 H   0  0  0  0  0  0  0  0  0  0  0  0
   -2.7421    3.2195    3.7010 H   0  0  0  0  0  0  0  0  0  0  0  0
    0.9318    5.4015    4.2449 H   0  0  0  0  0  0  0  0  0  0  0  0
   -0.2276    4.7819    6.6986 H   0  0  0  0  0  0  0  0  0  0  0  0
    2.3797    5.0575    6.1029 H   0  0  0  0  0  0  0  0  0  0  0  0
    2.7238    4.2500    4.7798 H   0  0  0  0  0  0  0  0  0  0  0  0
    4.3990    3.4051    5.4547 H   0  0  0  0  0  0  0  0  0  0  0  0
  2  1  1  1
  1 33  1  0
  1 34  1  0
  1 35  1  0
  2 30  1  0
  2 31  1  0
  2  3  1  0
  3  4  1  0
  3 36  1  0
  3 37  1  0
  4 17  1  0
  4  5  1  0
  4 38  1  1
  5  6  1  0
  5 39  1  0
  5 40  1  0
  6  7  1  0
  6  8  1  0
  6 41  1  6
  8 24  1  0
  8  9  2  0
  9 10  1  0
  9 42  1  0
 10 11  1  0
 10 43  1  0
 10 44  1  0
 11 26  1  0
 11 12  1  6
 11 13  1  0
 12 45  1  0
 13 31  1  0
 13 14  1  0
 13 46  1  6
 14 15  1  0
 14 47  1  0
 14 48  1  0
 15 16  1  0
 15 17  2  0
 17 18  1  0
 18 19  1  0
 18 31  1  0
 18 49  1  1
 19 20  1  0
 19 50  1  0
 19 51  1  0
 20 21  1  0
 20 52  1  0
 20 53  1  0
 21 22  2  0
 21 23  1  0
 23 24  1  0
 23 54  1  0
 23 55  1  0
 24 25  1  6
 24 26  1  0
 25 56  1  0
 25 57  1  0
 25 58  1  0
 26 27  1  6
 26 28  1  0
 28 29  1  0
 28 30  1  0
 28 59  1  6
 29 60  1  0
 30 61  1  0
 30 62  1  0
 31 32  1  6
 32 63  1  0
M  END
>  <i_m_ct_stereo_status>  (158) 
1

>  <s_m_source_file>  (158) 
/var/tmp/pbs.5076255.sched01/tmpdonsa7tf/408ubvndgu.sdf

>  <i_m_source_file_index>  (158) 
32

>  <i_lp_mmshare_version>  (158) 
48012

>  <i_f3d_flags>  (158) 
1

>  <s_epik_input>  (158) 
W0NIM11bQ0BAXTEyW0NAXTMoW09IXSlbQ0BASF00W0NAXTUoW09IXSlbQ0BdKEYpKFtDQEBIXShbT0hdKVtDSDJdMilbQ0BAXTYoW0NIM10pQyg9W0NIXVtDSDJdNSlbQ0BIXShGKVtDSDJdW0NIXShbQ0gyXTEpQyg9QyhGKVtDSDJdNClbQ0BASF0zW0NIMl1bQ0gyXUMoPU8pW0NIMl02

>  <s_epik_cmdline>  (158) 
J2VwaWtfcHl0aG9uJywgJy1waHQnLCAnMi4wJywgJy1waCcsICc3LjAnLCAnLXRuJywgJzgnLCAnLW1hJywgJzIwMCcsICctaW1hZScsICc8aW5maWxlLm1hZT4nLCAnLW9tYWUnLCAnPG91dGZpbGUubWFlPic=

>  <r_lp_tautomer_probability>  (158) 
1

>  <r_epik_Ionization_Penalty>  (158) 
8.95451e-07

>  <r_epik_Ionization_Penalty_Charging>  (158) 
0

>  <r_epik_Ionization_Penalty_Neutral>  (158) 
8.95451e-07

>  <r_epik_State_Penalty>  (158) 
-0

>  <r_epik_Charging_Adjusted_Penalty>  (158) 
0

>  <i_epik_Tot_Q>  (158) 
0

>  <i_epik_Tot_abs_Q>  (158) 
0

>  <s_lp_Force_Field>  (158) 
OPLS3e

>  <r_lp_Energy>  (158) 
535.856

>  <b_lp_Chiralities_Consistent>  (158) 
1

>  <s_lp_Variant>  (158) 
52:0-2

>  <s_i_glide_gridfile>  (158) 
pfpi4k_grid

>  <i_i_glide_lignum>  (158) 
32

>  <i_i_glide_rotatable_bonds>  (158) 
3

>  <r_i_docking_score>  (158) 
-2.84539

>  <r_i_glide_ligand_efficiency>  (158) 
-0.0889185

>  <r_i_glide_ligand_efficiency_sa>  (158) 
-0.282299

>  <r_i_glide_ligand_efficiency_ln>  (158) 
-0.637161

>  <r_i_glide_gscore>  (158) 
-2.84539

>  <r_i_glide_lipo>  (158) 
-0.0227266

>  <r_i_glide_hbond>  (158) 
-0.16

>  <r_i_glide_metal>  (158) 
-0

>  <r_i_glide_rewards>  (158) 
-0.32382

>  <r_i_glide_evdw>  (158) 
-21.1921

>  <r_i_glide_ecoul>  (158) 
-7.19101

>  <r_i_glide_erotb>  (158) 
0

>  <r_i_glide_esite>  (158) 
-0.200589

>  <r_i_glide_emodel>  (158) 
-34.1798

>  <r_i_glide_energy>  (158) 
-28.3831

>  <r_i_glide_einternal>  (158) 
0.150447

>  <r_i_glide_intrahb_reward>  (158) 
-0

>  <i_i_glide_confnum>  (158) 
1

>  <i_i_glide_posenum>  (158) 
9

>  <r_i_glide_eff_state_penalty>  (158) 
0

>  <ligand_id>  (158) 
52

>  <original_smiles>  (158) 
CC12CC3CC(F)C4=CCC5(O)C6CC(F)=C3C(CCC(=O)CC4(C)C5(F)C(O)C1)C62O

>  <smiles>  (158) 
[H]OC1([H])C([H])([H])C2(C([H])([H])[H])C([H])([H])C3([H])C4=C(F)C([H])([H])C5([H])C6(O[H])C([H])([H])C([H])=C(C([H])(F)C3([H])[H])C(C([H])([H])[H])(C([H])([H])C(=O)C([H])([H])C([H])([H])C4([H])C52O[H])C16F

$$$$
52:1:2
     RDKit          3D

 63 68  0  0  1  0  0  0  0  0999 V2000
    2.9277    4.2485    6.8993 C   0  0  0  0  0  0  0  0  0  0  0  0
    1.9457    3.4856    5.8534 C   0  0  1  0  0  0  0  0  0  0  0  0
    1.3826    1.8230    5.7720 C   0  0  0  0  0  0  0  0  0  0  0  0
    1.9729    0.4311    5.3325 C   0  0  1  0  0  0  0  0  0  0  0  0
    0.8280   -0.6730    5.1964 C   0  0  0  0  0  0  0  0  0  0  0  0
   -0.4598   -0.5075    6.1270 C   0  0  1  0  0  0  0  0  0  0  0  0
   -0.1401   -0.6666    7.4100 F   0  0  0  0  0  0  0  0  0  0  0  0
   -1.2109    0.8114    5.8276 C   0  0  0  0  0  0  0  0  0  0  0  0
   -1.4908    0.8729    4.4936 C   0  0  0  0  0  0  0  0  0  0  0  0
   -1.3742    2.0696    3.5538 C   0  0  0  0  0  0  0  0  0  0  0  0
   -0.4150    3.2073    4.0426 C   0  0  2  0  0  0  0  0  0  0  0  0
   -0.9064    4.3153    3.2853 O   0  0  0  0  0  0  0  0  0  0  0  0
    1.2627    3.1727    3.5159 C   0  0  2  0  0  0  0  0  0  0  0  0
    1.7028    2.1451    2.4345 C   0  0  0  0  0  0  0  0  0  0  0  0
    2.3517    0.8733    2.9883 C   0  0  0  0  0  0  0  0  0  0  0  0
    1.8691   -0.2740    2.4827 F   0  0  0  0  0  0  0  0  0  0  0  0
    2.8960    0.8443    4.2301 C   0  0  0  0  0  0  0  0  0  0  0  0
    3.5860    2.0460    4.8936 C   0  0  2  0  0  0  0  0  0  0  0  0
    3.9587    1.7103    6.5390 C   0  0  0  0  0  0  0  0  0  0  0  0
    2.9386    1.4707    7.9371 C   0  0  0  0  0  0  0  0  0  0  0  0
    1.5777    2.2499    8.5467 C   0  0  0  0  0  0  0  0  0  0  0  0
    1.8035    3.0286    9.4742 O   0  0  0  0  0  0  0  0  0  0  0  0
   -0.0557    2.0814    8.1743 C   0  0  0  0  0  0  0  0  0  0  0  0
   -1.0495    2.1221    6.7410 C   0  0  2  0  0  0  0  0  0  0  0  0
   -2.4416    2.1701    7.4341 C   0  0  0  0  0  0  0  0  0  0  0  0
   -0.9480    3.3861    5.6352 C   0  0  2  0  0  0  0  0  0  0  0  0
   -2.2308    3.7193    5.4437 F   0  0  0  0  0  0  0  0  0  0  0  0
   -0.4025    4.6800    6.2025 C   0  0  1  0  0  0  0  0  0  0  0  0
   -0.5465    4.9025    7.5903 O   0  0  0  0  0  0  0  0  0  0  0  0
    1.0162    4.7901    5.7451 C   0  0  0  0  0  0  0  0  0  0  0  0
    2.5725    3.2827    4.5418 C   0  0  2  0  0  0  0  0  0  0  0  0
    3.3875    4.3584    4.1095 O   0  0  0  0  0  0  0  0  0  0  0  0
    3.6810    3.7847    7.5064 H   0  0  0  0  0  0  0  0  0  0  0  0
    2.3700    4.7351    7.7004 H   0  0  0  0  0  0  0  0  0  0  0  0
    3.4838    5.0586    6.4250 H   0  0  0  0  0  0  0  0  0  0  0  0
    1.1007    1.2325    6.5568 H   0  0  0  0  0  0  0  0  0  0  0  0
    0.7410    1.6250    4.9957 H   0  0  0  0  0  0  0  0  0  0  0  0
    2.5902   -0.1056    6.0413 H   0  0  0  0  0  0  0  0  0  0  0  0
    0.4846   -0.7514    4.1718 H   0  0  0  0  0  0  0  0  0  0  0  0
    1.2749   -1.6472    5.3972 H   0  0  0  0  0  0  0  0  0  0  0  0
   -1.1372   -1.3304    5.9043 H   0  0  0  0  0  0  0  0  0  0  0  0
   -1.5297   -0.0469    3.9292 H   0  0  0  0  0  0  0  0  0  0  0  0
   -1.0651    1.6960    2.5797 H   0  0  0  0  0  0  0  0  0  0  0  0
   -2.3946    2.4277    3.4004 H   0  0  0  0  0  0  0  0  0  0  0  0
   -0.5937    4.2380    2.3732 H   0  0  0  0  0  0  0  0  0  0  0  0
    1.3313    4.0904    2.9288 H   0  0  0  0  0  0  0  0  0  0  0  0
    0.8899    1.8909    1.7551 H   0  0  0  0  0  0  0  0  0  0  0  0
    2.4521    2.6178    1.8048 H   0  0  0  0  0  0  0  0  0  0  0  0
    4.5169    2.1771    4.3475 H   0  0  0  0  0  0  0  0  0  0  0  0
    4.5029    0.7662    6.4797 H   0  0  0  0  0  0  0  0  0  0  0  0
    4.8125    2.3342    6.8030 H   0  0  0  0  0  0  0  0  0  0  0  0
    2.6809    0.4130    7.9935 H   0  0  0  0  0  0  0  0  0  0  0  0
    3.6439    1.5584    8.7654 H   0  0  0  0  0  0  0  0  0  0  0  0
   -0.3196    1.1652    8.6992 H   0  0  0  0  0  0  0  0  0  0  0  0
   -0.4995    2.8217    8.8390 H   0  0  0  0  0  0  0  0  0  0  0  0
   -2.6167    3.1033    7.9707 H   0  0  0  0  0  0  0  0  0  0  0  0
   -2.5568    1.3532    8.1494 H   0  0  0  0  0  0  0  0  0  0  0  0
   -3.2638    2.0567    6.7277 H   0  0  0  0  0  0  0  0  0  0  0  0
   -0.9266    5.5181    5.7419 H   0  0  0  0  0  0  0  0  0  0  0  0
   -0.0531    4.2423    8.0588 H   0  0  0  0  0  0  0  0  0  0  0  0
    1.3897    5.7053    6.2108 H   0  0  0  0  0  0  0  0  0  0  0  0
    1.0037    5.2202    4.7484 H   0  0  0  0  0  0  0  0  0  0  0  0
    2.8308    5.0618    3.8045 H   0  0  0  0  0  0  0  0  0  0  0  0
  2  1  1  1
  1 33  1  0
  1 34  1  0
  1 35  1  0
  2 30  1  0
  2 31  1  0
  2  3  1  0
  3  4  1  0
  3 36  1  0
  3 37  1  0
  4 17  1  0
  4  5  1  0
  4 38  1  1
  5  6  1  0
  5 39  1  0
  5 40  1  0
  6  7  1  0
  6  8  1  0
  6 41  1  6
  8 24  1  0
  8  9  2  0
  9 10  1  0
  9 42  1  0
 10 11  1  0
 10 43  1  0
 10 44  1  0
 11 26  1  0
 11 12  1  6
 11 13  1  0
 12 45  1  0
 13 31  1  0
 13 14  1  0
 13 46  1  6
 14 15  1  0
 14 47  1  0
 14 48  1  0
 15 16  1  0
 15 17  2  0
 17 18  1  0
 18 19  1  0
 18 31  1  0
 18 49  1  6
 19 20  1  0
 19 50  1  0
 19 51  1  0
 20 21  1  0
 20 52  1  0
 20 53  1  0
 21 22  2  0
 21 23  1  0
 23 24  1  0
 23 54  1  0
 23 55  1  0
 24 25  1  1
 24 26  1  0
 25 56  1  0
 25 57  1  0
 25 58  1  0
 26 27  1  6
 26 28  1  0
 28 29  1  0
 28 30  1  0
 28 59  1  6
 29 60  1  0
 30 61  1  0
 30 62  1  0
 31 32  1  6
 32 63  1  0
M  END
>  <i_m_ct_stereo_status>  (159) 
1

>  <s_m_source_file>  (159) 
/var/tmp/pbs.5076255.sched01/tmpdonsa7tf/408ubvndgu.sdf

>  <i_m_source_file_index>  (159) 
32

>  <i_lp_mmshare_version>  (159) 
48012

>  <i_f3d_flags>  (159) 
1

>  <s_epik_input>  (159) 
W0NIM11bQ0BAXTEyW0NAXTMoW09IXSlbQ0BASF00W0NAXTUoW09IXSlbQ0BdKEYpKFtDQEBIXShbT0hdKVtDSDJdMilbQ0BAXTYoW0NIM10pQyg9W0NIXVtDSDJdNSlbQ0BIXShGKVtDSDJdW0NIXShbQ0gyXTEpQyg9QyhGKVtDSDJdNClbQ0BASF0zW0NIMl1bQ0gyXUMoPU8pW0NIMl02

>  <s_epik_cmdline>  (159) 
J2VwaWtfcHl0aG9uJywgJy1waHQnLCAnMi4wJywgJy1waCcsICc3LjAnLCAnLXRuJywgJzgnLCAnLW1hJywgJzIwMCcsICctaW1hZScsICc8aW5maWxlLm1hZT4nLCAnLW9tYWUnLCAnPG91dGZpbGUubWFlPic=

>  <r_lp_tautomer_probability>  (159) 
1

>  <r_epik_Ionization_Penalty>  (159) 
8.95451e-07

>  <r_epik_Ionization_Penalty_Charging>  (159) 
0

>  <r_epik_Ionization_Penalty_Neutral>  (159) 
8.95451e-07

>  <r_epik_State_Penalty>  (159) 
-0

>  <r_epik_Charging_Adjusted_Penalty>  (159) 
0

>  <i_epik_Tot_Q>  (159) 
0

>  <i_epik_Tot_abs_Q>  (159) 
0

>  <s_lp_Force_Field>  (159) 
OPLS3e

>  <r_lp_Energy>  (159) 
535.856

>  <b_lp_Chiralities_Consistent>  (159) 
1

>  <s_lp_Variant>  (159) 
52:0-2

>  <s_i_glide_gridfile>  (159) 
pfpi4k_grid

>  <i_i_glide_lignum>  (159) 
32

>  <i_i_glide_rotatable_bonds>  (159) 
3

>  <r_i_docking_score>  (159) 
-2.69982

>  <r_i_glide_ligand_efficiency>  (159) 
-0.0843693

>  <r_i_glide_ligand_efficiency_sa>  (159) 
-0.267856

>  <r_i_glide_ligand_efficiency_ln>  (159) 
-0.604563

>  <r_i_glide_gscore>  (159) 
-2.69982

>  <r_i_glide_lipo>  (159) 
0

>  <r_i_glide_hbond>  (159) 
-0.16

>  <r_i_glide_metal>  (159) 
-0

>  <r_i_glide_rewards>  (159) 
-0.32382

>  <r_i_glide_evdw>  (159) 
-23.4171

>  <r_i_glide_ecoul>  (159) 
-6.26347

>  <r_i_glide_erotb>  (159) 
0

>  <r_i_glide_esite>  (159) 
-0.105622

>  <r_i_glide_emodel>  (159) 
-35.0199

>  <r_i_glide_energy>  (159) 
-29.6806

>  <r_i_glide_einternal>  (159) 
0.352743

>  <r_i_glide_intrahb_reward>  (159) 
-0

>  <i_i_glide_confnum>  (159) 
1

>  <i_i_glide_posenum>  (159) 
1

>  <r_i_glide_eff_state_penalty>  (159) 
0

>  <ligand_id>  (159) 
52

>  <original_smiles>  (159) 
CC12CC3CC(F)C4=CCC5(O)C6CC(F)=C3C(CCC(=O)CC4(C)C5(F)C(O)C1)C62O

>  <smiles>  (159) 
[H]OC1([H])C([H])([H])C2(C([H])([H])[H])C([H])([H])C3([H])C4=C(F)C([H])([H])C5([H])C6(O[H])C([H])([H])C([H])=C(C([H])(F)C3([H])[H])C(C([H])([H])[H])(C([H])([H])C(=O)C([H])([H])C([H])([H])C4([H])C52O[H])C16F

$$$$
54:1:0
     RDKit          3D

111118  0  0  1  0  0  0  0  0999 V2000
    3.7938    1.4420    4.4795 C   0  0  0  0  0  0  0  0  0  0  0  0
    3.0016    0.4077    4.1094 C   0  0  0  0  0  0  0  0  0  0  0  0
    1.7433    0.5338    3.3078 C   0  0  1  0  0  0  0  0  0  0  0  0
    1.7853    1.5535    2.1586 C   0  0  0  0  0  0  0  0  0  0  0  0
    1.5110   -0.9301    2.8500 C   0  0  0  0  0  0  0  0  0  0  0  0
    2.0071   -1.6987    4.0149 N   0  0  0  0  0  0  0  0  0  0  0  0
    1.9707   -3.1514    3.8182 C   0  0  0  0  0  0  0  0  0  0  0  0
    1.5579   -3.9766    5.0933 C   0  0  2  0  0  0  0  0  0  0  0  0
    0.1058   -3.5621    5.5057 C   0  0  0  0  0  0  0  0  0  0  0  0
   -0.3871   -2.1286    5.7625 C   0  0  0  0  0  0  0  0  0  0  0  0
    0.4406   -1.1327    6.6015 C   0  0  1  0  0  0  0  0  0  0  0  0
   -0.5097   -0.2508    7.2056 O   0  0  0  0  0  0  0  0  0  0  0  0
   -0.0513    1.0821    7.4283 C   0  0  0  0  0  0  0  0  0  0  0  0
    1.5316   -1.6635    7.5927 C   0  0  1  0  0  0  0  0  0  0  0  0
    1.0748   -2.3066    8.9793 C   0  0  0  0  0  0  0  0  0  0  0  0
    0.3871   -1.2123    9.8556 C   0  0  0  0  0  0  0  0  0  0  0  0
    0.0397   -3.4420    8.8659 C   0  0  0  0  0  0  0  0  0  0  0  0
    2.2632   -2.7772    9.8824 C   0  0  0  0  0  0  0  0  0  0  0  0
    3.5565   -3.2376    9.2023 C   0  0  0  0  0  0  0  0  0  0  0  0
    3.8537   -2.2582    8.0744 C   0  0  1  0  0  0  0  0  0  0  0  0
    5.3098   -2.0121    7.6320 C   0  0  1  0  0  0  0  0  0  0  0  0
    6.1422   -3.1606    7.7907 O   0  0  0  0  0  0  0  0  0  0  0  0
    7.5076   -2.9389    7.6364 C   0  0  0  0  0  0  0  0  0  0  0  0
    8.0348   -2.2211    8.7008 O   0  0  0  0  0  0  0  0  0  0  0  0
    9.4352   -2.0118    8.5842 C   0  0  0  0  0  0  0  0  0  0  0  0
    5.1392   -1.5454    6.1782 C   0  0  0  0  0  0  0  0  0  0  0  0
    3.6153   -1.3005    5.9497 C   0  0  2  0  0  0  0  0  0  0  0  0
    2.8196   -2.2905    6.8882 C   0  0  2  0  0  0  0  0  0  0  0  0
    2.5761   -3.7553    6.2857 C   0  0  2  0  0  0  0  0  0  0  0  0
    3.8784   -4.5199    5.9754 C   0  0  0  0  0  0  0  0  0  0  0  0
    3.6611   -6.0213    5.8513 C   0  0  0  0  0  0  0  0  0  0  0  0
    2.7866   -6.4359    4.6465 C   0  0  2  0  0  0  0  0  0  0  0  0
    3.6351   -6.1754    3.3496 C   0  0  0  0  0  0  0  0  0  0  0  0
    2.9741   -6.5179    2.1445 O   0  0  0  0  0  0  0  0  0  0  0  0
    1.4523   -5.5476    4.6485 C   0  0  1  0  0  0  0  0  0  0  0  0
    0.2441   -6.3921    5.2229 C   0  0  0  0  0  0  0  0  0  0  0  0
   -0.0278   -7.7413    4.5089 C   0  0  0  0  0  0  0  0  0  0  0  0
    1.2433   -8.3701    3.9531 C   0  0  2  0  0  0  0  0  0  0  0  0
    1.3114   -9.8802    3.8243 C   0  0  0  0  0  0  0  0  0  0  0  0
    0.3406  -10.5995    3.5530 O   0  0  0  0  0  0  0  0  0  0  0  0
    2.7314  -10.3964    3.9981 C   0  0  0  0  0  0  0  0  0  0  0  0
    2.8170  -11.4055    5.1593 C   0  0  0  0  0  0  0  0  0  0  0  0
    3.2292  -11.0551    2.7061 C   0  0  0  0  0  0  0  0  0  0  0  0
    3.5269   -9.0753    4.3117 C   0  0  0  0  0  0  0  0  0  0  0  0
    2.4850   -8.0021    4.7807 C   0  0  1  0  0  0  0  0  0  0  0  0
    2.2400   -8.3709    6.1442 O   0  0  0  0  0  0  0  0  0  0  0  0
    3.2508   -1.0413    4.4577 C   0  0  2  0  0  0  0  0  0  0  0  0
    4.2429   -1.5329    3.5618 O   0  0  0  0  0  0  0  0  0  0  0  0
    4.6997    1.2836    5.0460 H   0  0  0  0  0  0  0  0  0  0  0  0
    3.5576    2.4544    4.2001 H   0  0  0  0  0  0  0  0  0  0  0  0
    0.9415    0.8030    3.9972 H   0  0  0  0  0  0  0  0  0  0  0  0
    1.9094    2.5679    2.5346 H   0  0  0  0  0  0  0  0  0  0  0  0
    0.8532    1.5405    1.5897 H   0  0  0  0  0  0  0  0  0  0  0  0
    2.6026    1.3455    1.4649 H   0  0  0  0  0  0  0  0  0  0  0  0
    0.4704   -1.1170    2.6427 H   0  0  0  0  0  0  0  0  0  0  0  0
    2.1081   -1.1368    1.9679 H   0  0  0  0  0  0  0  0  0  0  0  0
    1.2877   -3.3707    3.0089 H   0  0  0  0  0  0  0  0  0  0  0  0
    2.9397   -3.4715    3.4559 H   0  0  0  0  0  0  0  0  0  0  0  0
   -0.5431   -3.8714    4.6880 H   0  0  0  0  0  0  0  0  0  0  0  0
   -0.1937   -4.1542    6.3651 H   0  0  0  0  0  0  0  0  0  0  0  0
   -0.6084   -1.6563    4.8022 H   0  0  0  0  0  0  0  0  0  0  0  0
   -1.3765   -2.2294    6.2195 H   0  0  0  0  0  0  0  0  0  0  0  0
    0.9491   -0.5050    5.8931 H   0  0  0  0  0  0  0  0  0  0  0  0
   -0.8577    1.6710    7.8704 H   0  0  0  0  0  0  0  0  0  0  0  0
    0.2494    1.5655    6.4996 H   0  0  0  0  0  0  0  0  0  0  0  0
    0.7864    1.1251    8.1240 H   0  0  0  0  0  0  0  0  0  0  0  0
    1.9020   -0.7024    7.9182 H   0  0  0  0  0  0  0  0  0  0  0  0
    0.2219   -1.5634   10.8769 H   0  0  0  0  0  0  0  0  0  0  0  0
   -0.5779   -0.8952    9.4797 H   0  0  0  0  0  0  0  0  0  0  0  0
    1.0209   -0.3213    9.9352 H   0  0  0  0  0  0  0  0  0  0  0  0
   -0.3380   -3.7329    9.8434 H   0  0  0  0  0  0  0  0  0  0  0  0
    0.4643   -4.3481    8.4350 H   0  0  0  0  0  0  0  0  0  0  0  0
   -0.8285   -3.1567    8.2839 H   0  0  0  0  0  0  0  0  0  0  0  0
    2.5446   -1.9834   10.5624 H   0  0  0  0  0  0  0  0  0  0  0  0
    1.9282   -3.5872   10.5435 H   0  0  0  0  0  0  0  0  0  0  0  0
    4.3679   -3.2245    9.9265 H   0  0  0  0  0  0  0  0  0  0  0  0
    3.4868   -4.2646    8.8502 H   0  0  0  0  0  0  0  0  0  0  0  0
    3.7234   -1.2993    8.5814 H   0  0  0  0  0  0  0  0  0  0  0  0
    5.7252   -1.1996    8.2356 H   0  0  0  0  0  0  0  0  0  0  0  0
    7.9772   -3.9233    7.6060 H   0  0  0  0  0  0  0  0  0  0  0  0
    7.7023   -2.4326    6.6956 H   0  0  0  0  0  0  0  0  0  0  0  0
    9.7861   -1.4269    9.4378 H   0  0  0  0  0  0  0  0  0  0  0  0
    9.6721   -1.4547    7.6829 H   0  0  0  0  0  0  0  0  0  0  0  0
    9.9889   -2.9540    8.5723 H   0  0  0  0  0  0  0  0  0  0  0  0
    5.7340   -0.6514    5.9975 H   0  0  0  0  0  0  0  0  0  0  0  0
    5.5414   -2.3224    5.5373 H   0  0  0  0  0  0  0  0  0  0  0  0
    3.4640   -0.3328    6.4369 H   0  0  0  0  0  0  0  0  0  0  0  0
    2.1310   -4.3112    7.1027 H   0  0  0  0  0  0  0  0  0  0  0  0
    4.3839   -4.1235    5.0945 H   0  0  0  0  0  0  0  0  0  0  0  0
    4.5674   -4.4375    6.7940 H   0  0  0  0  0  0  0  0  0  0  0  0
    4.6210   -6.5366    5.8201 H   0  0  0  0  0  0  0  0  0  0  0  0
    3.1958   -6.3137    6.7979 H   0  0  0  0  0  0  0  0  0  0  0  0
    3.9347   -5.1522    3.2275 H   0  0  0  0  0  0  0  0  0  0  0  0
    4.5907   -6.7111    3.4013 H   0  0  0  0  0  0  0  0  0  0  0  0
    2.8575   -7.4451    2.0950 H   0  0  0  0  0  0  0  0  0  0  0  0
    1.1538   -5.4875    3.5980 H   0  0  0  0  0  0  0  0  0  0  0  0
    0.4136   -6.5745    6.2887 H   0  0  0  0  0  0  0  0  0  0  0  0
   -0.7111   -5.8949    5.1649 H   0  0  0  0  0  0  0  0  0  0  0  0
   -0.5706   -8.4205    5.1539 H   0  0  0  0  0  0  0  0  0  0  0  0
   -0.6853   -7.5570    3.6519 H   0  0  0  0  0  0  0  0  0  0  0  0
    1.3459   -8.0362    2.9325 H   0  0  0  0  0  0  0  0  0  0  0  0
    3.8465  -11.6757    5.3890 H   0  0  0  0  0  0  0  0  0  0  0  0
    2.2891  -12.3302    4.9096 H   0  0  0  0  0  0  0  0  0  0  0  0
    2.3632  -11.0303    6.0786 H   0  0  0  0  0  0  0  0  0  0  0  0
    4.2838  -11.3204    2.7582 H   0  0  0  0  0  0  0  0  0  0  0  0
    3.0939  -10.4093    1.8356 H   0  0  0  0  0  0  0  0  0  0  0  0
    2.6815  -11.9789    2.4980 H   0  0  0  0  0  0  0  0  0  0  0  0
    4.3256   -9.2272    5.0341 H   0  0  0  0  0  0  0  0  0  0  0  0
    4.0068   -8.7743    3.3792 H   0  0  0  0  0  0  0  0  0  0  0  0
    2.0707   -9.2833    6.2000 H   0  0  0  0  0  0  0  0  0  0  0  0
    4.9794   -1.8054    4.0693 H   0  0  0  0  0  0  0  0  0  0  0  0
  1  2  2  0
  1 49  1  0
  1 50  1  0
  2 47  1  0
  2  3  1  0
  3  4  1  0
  3  5  1  0
  3 51  1  1
  4 52  1  0
  4 53  1  0
  4 54  1  0
  5  6  1  0
  5 55  1  0
  5 56  1  0
  6 47  1  0
  6  7  1  0
  8  7  1  6
  7 57  1  0
  7 58  1  0
  8 29  1  0
  8 35  1  0
  8  9  1  0
  9 10  1  0
  9 59  1  0
  9 60  1  0
 10 11  1  0
 10 61  1  0
 10 62  1  0
 11 12  1  0
 11 14  1  0
 11 63  1  6
 12 13  1  0
 13 64  1  0
 13 65  1  0
 13 66  1  0
 28 14  1  1
 14 15  1  0
 14 67  1  1
 15 16  1  0
 15 17  1  0
 15 18  1  0
 16 68  1  0
 16 69  1  0
 16 70  1  0
 17 71  1  0
 17 72  1  0
 17 73  1  0
 18 19  1  0
 18 74  1  0
 18 75  1  0
 19 20  1  0
 19 76  1  0
 19 77  1  0
 20 28  1  0
 20 21  1  0
 20 78  1  1
 21 22  1  0
 21 26  1  0
 21 79  1  1
 22 23  1  0
 23 24  1  0
 23 80  1  0
 23 81  1  0
 24 25  1  0
 25 82  1  0
 25 83  1  0
 25 84  1  0
 26 27  1  0
 26 85  1  0
 26 86  1  0
 27 28  1  0
 27 47  1  0
 27 87  1  1
 28 29  1  0
 29 30  1  0
 29 88  1  1
 30 31  1  0
 30 89  1  0
 30 90  1  0
 31 32  1  0
 31 91  1  0
 31 92  1  0
 32 45  1  0
 32 33  1  6
 32 35  1  0
 33 34  1  0
 33 93  1  0
 33 94  1  0
 34 95  1  0
 35 36  1  0
 35 96  1  6
 36 37  1  0
 36 97  1  0
 36 98  1  0
 37 38  1  0
 37 99  1  0
 37100  1  0
 38 45  1  0
 38 39  1  0
 38101  1  6
 39 40  2  0
 39 41  1  0
 41 42  1  0
 41 43  1  0
 41 44  1  0
 42102  1  0
 42103  1  0
 42104  1  0
 43105  1  0
 43106  1  0
 43107  1  0
 44 45  1  0
 44108  1  0
 44109  1  0
 45 46  1  1
 46110  1  0
 47 48  1  6
 48111  1  0
M  END
>  <i_m_ct_stereo_status>  (160) 
1

>  <s_m_source_file>  (160) 
/var/tmp/pbs.5076255.sched01/tmpdonsa7tf/408ubvndgu.sdf

>  <i_m_source_file_index>  (160) 
35

>  <i_lp_mmshare_version>  (160) 
48012

>  <i_f3d_flags>  (160) 
0

>  <s_epik_input>  (160) 
W0NIMl09QzFbQ0BASF0oW0NIM10pW0NIMl1OKFtDSDJdMilbQ0BdMShbT0hdKVtDQEBIXTNbQ0gyXVtDQEhdKE9bQ0gyXU9bQ0gzXSlbQ0BASF00W0NIMl1bQ0gyXUMoW0NIM10pKFtDSDNdKVtDQEhdKFtDQEBIXShbQ0gyXVtDSDJdNSlPW0NIM10pW0NAQF0zNFtDQEBIXShbQ0BdMjU2KVtDSDJdW0NIMl1bQ0BdNyhbQ0gyXVtPSF0pW0NASF02W0NIMl1bQ0gyXVtDQEhdOFtDQEBdNyhbT0hdKVtDSDJdQyhDOD1PKShbQ0gzXSlbQ0gzXQ==

>  <s_epik_cmdline>  (160) 
J2VwaWtfcHl0aG9uJywgJy1waHQnLCAnMi4wJywgJy1waCcsICc3LjAnLCAnLXRuJywgJzgnLCAnLW1hJywgJzIwMCcsICctaW1hZScsICc8aW5maWxlLm1hZT4nLCAnLW9tYWUnLCAnPG91dGZpbGUubWFlPic=

>  <r_epik_Ionization_Penalty>  (160) 
0.806025

>  <r_epik_Ionization_Penalty_Charging>  (160) 
0

>  <r_epik_Ionization_Penalty_Neutral>  (160) 
0.806025

>  <r_epik_State_Penalty>  (160) 
0.855949

>  <r_epik_Charging_Adjusted_Penalty>  (160) 
0.855949

>  <i_epik_Tot_Q>  (160) 
0

>  <i_epik_Tot_abs_Q>  (160) 
0

>  <s_epik_Chemistry_Notes>  (160) 
This compound contains an acetal/aminal-like group ( X-CH(R)-Y where X, Y are N, S, or O) that may be acid/base labile, releasing an aldehyde.

>  <s_lp_Force_Field>  (160) 
OPLS3e

>  <r_lp_Energy>  (160) 
148.27

>  <b_lp_Chiralities_Consistent>  (160) 
1

>  <s_lp_Variant>  (160) 
54:0-2

>  <s_i_glide_gridfile>  (160) 
pfpi4k_grid

>  <i_i_glide_lignum>  (160) 
35

>  <i_i_glide_rotatable_bonds>  (160) 
8

>  <r_i_docking_score>  (160) 
-1.66348

>  <r_i_glide_ligand_efficiency>  (160) 
-0.0346559

>  <r_i_glide_ligand_efficiency_sa>  (160) 
-0.125948

>  <r_i_glide_ligand_efficiency_ln>  (160) 
-0.341494

>  <r_i_glide_gscore>  (160) 
-1.66348

>  <r_i_glide_lipo>  (160) 
-0.109679

>  <r_i_glide_hbond>  (160) 
-0.0421613

>  <r_i_glide_metal>  (160) 
-0

>  <r_i_glide_rewards>  (160) 
-0.0344635

>  <r_i_glide_evdw>  (160) 
-26.4402

>  <r_i_glide_ecoul>  (160) 
-1.95743

>  <r_i_glide_erotb>  (160) 
0.142497

>  <r_i_glide_esite>  (160) 
-0.00405514

>  <r_i_glide_emodel>  (160) 
-29.9933

>  <r_i_glide_energy>  (160) 
-28.3976

>  <r_i_glide_einternal>  (160) 
2.01424

>  <r_i_glide_intrahb_reward>  (160) 
-0

>  <i_i_glide_confnum>  (160) 
1

>  <i_i_glide_posenum>  (160) 
29

>  <r_i_glide_eff_state_penalty>  (160) 
0

>  <ligand_id>  (160) 
54

>  <original_smiles>  (160) 
C=C1C(C)CN2CC34CCC(OC)C5C(C)(C)CCC6C(OCOC)CC(C65C3CCC3(CO)C4CCC4C(=O)C(C)(C)CC43O)C12O

>  <smiles>  (160) 
[H]OC([H])([H])C12C([H])([H])C([H])([H])C3([H])C4(C([H])([H])N5C([H])([H])C([H])(C([H])([H])[H])C(=C([H])[H])C5(O[H])C5([H])C([H])([H])C([H])(OC([H])([H])OC([H])([H])[H])C6([H])C([H])([H])C([H])([H])C(C([H])([H])[H])(C([H])([H])[H])C([H])(C([H])(OC([H])([H])[H])C([H])([H])C4([H])[H])C563)C1([H])C([H])([H])C([H])([H])C1([H])C(=O)C(C([H])([H])[H])(C([H])([H])[H])C([H])([H])C12O[H]

$$$$
54:1:1
     RDKit          3D

111118  0  0  1  0  0  0  0  0999 V2000
    3.6578    1.5305    4.2651 C   0  0  0  0  0  0  0  0  0  0  0  0
    2.8999    0.4798    3.9209 C   0  0  0  0  0  0  0  0  0  0  0  0
    1.6152    0.5496    3.1290 C   0  0  1  0  0  0  0  0  0  0  0  0
    1.6249    1.5573    1.9688 C   0  0  0  0  0  0  0  0  0  0  0  0
    1.4279   -0.9062    2.7014 C   0  0  0  0  0  0  0  0  0  0  0  0
    1.9583   -1.6633    3.8333 N   0  0  0  0  0  0  0  0  0  0  0  0
    1.9557   -3.1174    3.6967 C   0  0  0  0  0  0  0  0  0  0  0  0
    1.5584   -3.9251    4.9792 C   0  0  2  0  0  0  0  0  0  0  0  0
    0.1036   -3.5427    5.4041 C   0  0  0  0  0  0  0  0  0  0  0  0
   -0.4188   -2.1154    5.6456 C   0  0  0  0  0  0  0  0  0  0  0  0
    0.3925   -1.0907    6.4625 C   0  0  1  0  0  0  0  0  0  0  0  0
   -0.5689   -0.2192    7.0583 O   0  0  0  0  0  0  0  0  0  0  0  0
   -0.1386    1.1243    7.2689 C   0  0  0  0  0  0  0  0  0  0  0  0
    1.5095   -1.5799    7.4358 C   0  0  1  0  0  0  0  0  0  0  0  0
    1.0758   -2.2004    8.8527 C   0  0  0  0  0  0  0  0  0  0  0  0
    0.3871   -1.1137    9.7187 C   0  0  0  0  0  0  0  0  0  0  0  0
    0.0750   -3.3725    8.7632 C   0  0  0  0  0  0  0  0  0  0  0  0
    2.2875   -2.6498    9.7478 C   0  0  0  0  0  0  0  0  0  0  0  0
    3.5838   -3.0795    9.0540 C   0  0  0  0  0  0  0  0  0  0  0  0
    3.8475   -2.1066    7.9138 C   0  0  1  0  0  0  0  0  0  0  0  0
    5.2884   -1.8410    7.4485 C   0  0  1  0  0  0  0  0  0  0  0  0
    6.1426   -2.9702    7.6352 O   0  0  0  0  0  0  0  0  0  0  0  0
    7.4999   -2.7333    7.4556 C   0  0  0  0  0  0  0  0  0  0  0  0
    8.0422   -1.9119    8.4363 O   0  0  0  0  0  0  0  0  0  0  0  0
    8.0428   -2.4978    9.7293 C   0  0  0  0  0  0  0  0  0  0  0  0
    5.1006   -1.4030    5.9961 C   0  0  0  0  0  0  0  0  0  0  0  0
    3.5735   -1.1907    5.7751 C   0  0  2  0  0  0  0  0  0  0  0  0
    2.8088   -2.1867    6.7385 C   0  0  2  0  0  0  0  0  0  0  0  0
    2.5862   -3.6661    6.1599 C   0  0  2  0  0  0  0  0  0  0  0  0
    3.9033   -4.4048    5.8426 C   0  0  0  0  0  0  0  0  0  0  0  0
    3.7186   -5.9103    5.7527 C   0  0  0  0  0  0  0  0  0  0  0  0
    2.8478   -6.3663    4.5609 C   0  0  2  0  0  0  0  0  0  0  0  0
    3.6707   -6.1120    3.2484 C   0  0  0  0  0  0  0  0  0  0  0  0
    3.0067   -6.4791    2.0554 O   0  0  0  0  0  0  0  0  0  0  0  0
    1.4857   -5.5084    4.5617 C   0  0  1  0  0  0  0  0  0  0  0  0
    0.3062   -6.3756    5.1676 C   0  0  0  0  0  0  0  0  0  0  0  0
    0.0536   -7.7344    4.4680 C   0  0  0  0  0  0  0  0  0  0  0  0
    1.3420   -8.3502    3.9186 C   0  0  2  0  0  0  0  0  0  0  0  0
    1.4297   -9.8654    3.8054 C   0  0  0  0  0  0  0  0  0  0  0  0
    0.4818  -10.6041    3.5664 O   0  0  0  0  0  0  0  0  0  0  0  0
    2.8809  -10.3306    3.9792 C   0  0  0  0  0  0  0  0  0  0  0  0
    2.9899  -11.3279    5.1519 C   0  0  0  0  0  0  0  0  0  0  0  0
    3.3675  -11.0068    2.6846 C   0  0  0  0  0  0  0  0  0  0  0  0
    3.6341   -8.9925    4.2552 C   0  0  0  0  0  0  0  0  0  0  0  0
    2.5781   -7.9408    4.7231 C   0  0  1  0  0  0  0  0  0  0  0  0
    2.3548   -8.2805    6.0950 O   0  0  0  0  0  0  0  0  0  0  0  0
    3.1822   -0.9780    4.2664 C   0  0  2  0  0  0  0  0  0  0  0  0
    4.1996   -1.4143    3.3899 O   0  0  0  0  0  0  0  0  0  0  0  0
    4.5739    1.3940    4.8176 H   0  0  0  0  0  0  0  0  0  0  0  0
    3.3891    2.5339    3.9783 H   0  0  0  0  0  0  0  0  0  0  0  0
    0.8181    0.8147    3.8236 H   0  0  0  0  0  0  0  0  0  0  0  0
    1.7261    2.5822    2.3253 H   0  0  0  0  0  0  0  0  0  0  0  0
    0.6916    1.5153    1.4049 H   0  0  0  0  0  0  0  0  0  0  0  0
    2.4423    1.3583    1.2760 H   0  0  0  0  0  0  0  0  0  0  0  0
    0.3802   -1.1373    2.5105 H   0  0  0  0  0  0  0  0  0  0  0  0
    1.9930   -1.1183    1.7904 H   0  0  0  0  0  0  0  0  0  0  0  0
    1.2589   -3.3669    2.8927 H   0  0  0  0  0  0  0  0  0  0  0  0
    2.9247   -3.4198    3.3281 H   0  0  0  0  0  0  0  0  0  0  0  0
   -0.5514   -3.8783    4.6007 H   0  0  0  0  0  0  0  0  0  0  0  0
   -0.1717   -4.1283    6.2748 H   0  0  0  0  0  0  0  0  0  0  0  0
   -0.6596   -1.6665    4.6789 H   0  0  0  0  0  0  0  0  0  0  0  0
   -1.3991   -2.2338    6.1129 H   0  0  0  0  0  0  0  0  0  0  0  0
    0.8823   -0.4653    5.7295 H   0  0  0  0  0  0  0  0  0  0  0  0
   -0.9518    1.7024    7.7100 H   0  0  0  0  0  0  0  0  0  0  0  0
    0.1486    1.6052    6.3330 H   0  0  0  0  0  0  0  0  0  0  0  0
    0.7026    1.1918    7.9578 H   0  0  0  0  0  0  0  0  0  0  0  0
    1.8598   -0.6031    7.7521 H   0  0  0  0  0  0  0  0  0  0  0  0
    0.2359   -1.4551   10.7442 H   0  0  0  0  0  0  0  0  0  0  0  0
   -0.5856   -0.8231    9.3445 H   0  0  0  0  0  0  0  0  0  0  0  0
    1.0023   -0.2158    9.7786 H   0  0  0  0  0  0  0  0  0  0  0  0
   -0.2882   -3.6561    9.7512 H   0  0  0  0  0  0  0  0  0  0  0  0
    0.5122   -4.2731    8.3418 H   0  0  0  0  0  0  0  0  0  0  0  0
   -0.8089   -3.1131    8.1880 H   0  0  0  0  0  0  0  0  0  0  0  0
    2.5687   -1.8260   10.4099 H   0  0  0  0  0  0  0  0  0  0  0  0
    1.9819   -3.4501   10.4198 H   0  0  0  0  0  0  0  0  0  0  0  0
    4.4050   -3.0345    9.7730 H   0  0  0  0  0  0  0  0  0  0  0  0
    3.5417   -4.1145    8.7199 H   0  0  0  0  0  0  0  0  0  0  0  0
    3.6976   -1.1473    8.4047 H   0  0  0  0  0  0  0  0  0  0  0  0
    5.6903   -1.0073    8.0307 H   0  0  0  0  0  0  0  0  0  0  0  0
    8.0100   -3.6967    7.4617 H   0  0  0  0  0  0  0  0  0  0  0  0
    7.6707   -2.2713    6.4849 H   0  0  0  0  0  0  0  0  0  0  0  0
    8.4942   -1.8038   10.4391 H   0  0  0  0  0  0  0  0  0  0  0  0
    8.6226   -3.4221    9.7493 H   0  0  0  0  0  0  0  0  0  0  0  0
    7.0288   -2.7128   10.0695 H   0  0  0  0  0  0  0  0  0  0  0  0
    5.6650   -0.4944    5.7860 H   0  0  0  0  0  0  0  0  0  0  0  0
    5.5045   -2.1719    5.3446 H   0  0  0  0  0  0  0  0  0  0  0  0
    3.3974   -0.2189    6.2460 H   0  0  0  0  0  0  0  0  0  0  0  0
    2.1654   -4.2184    6.9920 H   0  0  0  0  0  0  0  0  0  0  0  0
    4.3900   -4.0088    4.9556 H   0  0  0  0  0  0  0  0  0  0  0  0
    4.5994   -4.2946    6.6568 H   0  0  0  0  0  0  0  0  0  0  0  0
    4.6905   -6.4070    5.7170 H   0  0  0  0  0  0  0  0  0  0  0  0
    3.2706   -6.1999    6.7032 H   0  0  0  0  0  0  0  0  0  0  0  0
    3.9394   -5.0751    3.1095 H   0  0  0  0  0  0  0  0  0  0  0  0
    4.6359   -6.6156    3.2991 H   0  0  0  0  0  0  0  0  0  0  0  0
    2.9190   -7.4232    2.0236 H   0  0  0  0  0  0  0  0  0  0  0  0
    1.1775   -5.4734    3.5171 H   0  0  0  0  0  0  0  0  0  0  0  0
    0.4904   -6.5339    6.2302 H   0  0  0  0  0  0  0  0  0  0  0  0
   -0.6643   -5.8954    5.1075 H   0  0  0  0  0  0  0  0  0  0  0  0
   -0.4655   -8.4189    5.1386 H   0  0  0  0  0  0  0  0  0  0  0  0
   -0.6132   -7.5818    3.6207 H   0  0  0  0  0  0  0  0  0  0  0  0
    1.4245   -8.0222    2.8863 H   0  0  0  0  0  0  0  0  0  0  0  0
    4.0315  -11.5678    5.3716 H   0  0  0  0  0  0  0  0  0  0  0  0
    2.4831  -12.2672    4.9219 H   0  0  0  0  0  0  0  0  0  0  0  0
    2.5394  -10.9480    6.0691 H   0  0  0  0  0  0  0  0  0  0  0  0
    4.4307  -11.2453    2.7293 H   0  0  0  0  0  0  0  0  0  0  0  0
    3.2103  -10.3742    1.8094 H   0  0  0  0  0  0  0  0  0  0  0  0
    2.8409  -11.9437    2.4957 H   0  0  0  0  0  0  0  0  0  0  0  0
    4.4494   -9.1152    4.9739 H   0  0  0  0  0  0  0  0  0  0  0  0
    4.0998   -8.6957    3.3164 H   0  0  0  0  0  0  0  0  0  0  0  0
    2.1727   -9.2085    6.1596 H   0  0  0  0  0  0  0  0  0  0  0  0
    3.7941   -1.8116    2.6353 H   0  0  0  0  0  0  0  0  0  0  0  0
  1  2  2  0
  1 49  1  0
  1 50  1  0
  2 47  1  0
  2  3  1  0
  3  4  1  0
  3  5  1  0
  3 51  1  1
  4 52  1  0
  4 53  1  0
  4 54  1  0
  5  6  1  0
  5 55  1  0
  5 56  1  0
  6 47  1  0
  6  7  1  0
  8  7  1  6
  7 57  1  0
  7 58  1  0
  8 29  1  0
  8 35  1  0
  8  9  1  0
  9 10  1  0
  9 59  1  0
  9 60  1  0
 10 11  1  0
 10 61  1  0
 10 62  1  0
 11 12  1  0
 11 14  1  0
 11 63  1  6
 12 13  1  0
 13 64  1  0
 13 65  1  0
 13 66  1  0
 28 14  1  1
 14 15  1  0
 14 67  1  1
 15 16  1  0
 15 17  1  0
 15 18  1  0
 16 68  1  0
 16 69  1  0
 16 70  1  0
 17 71  1  0
 17 72  1  0
 17 73  1  0
 18 19  1  0
 18 74  1  0
 18 75  1  0
 19 20  1  0
 19 76  1  0
 19 77  1  0
 20 28  1  0
 20 21  1  0
 20 78  1  1
 21 22  1  0
 21 26  1  0
 21 79  1  1
 22 23  1  0
 23 24  1  0
 23 80  1  0
 23 81  1  0
 24 25  1  0
 25 82  1  0
 25 83  1  0
 25 84  1  0
 26 27  1  0
 26 85  1  0
 26 86  1  0
 27 28  1  0
 27 47  1  0
 27 87  1  1
 28 29  1  0
 29 30  1  0
 29 88  1  1
 30 31  1  0
 30 89  1  0
 30 90  1  0
 31 32  1  0
 31 91  1  0
 31 92  1  0
 32 45  1  0
 32 33  1  6
 32 35  1  0
 33 34  1  0
 33 93  1  0
 33 94  1  0
 34 95  1  0
 35 36  1  0
 35 96  1  6
 36 37  1  0
 36 97  1  0
 36 98  1  0
 37 38  1  0
 37 99  1  0
 37100  1  0
 38 45  1  0
 38 39  1  0
 38101  1  6
 39 40  2  0
 39 41  1  0
 41 42  1  0
 41 43  1  0
 41 44  1  0
 42102  1  0
 42103  1  0
 42104  1  0
 43105  1  0
 43106  1  0
 43107  1  0
 44 45  1  0
 44108  1  0
 44109  1  0
 45 46  1  1
 46110  1  0
 47 48  1  6
 48111  1  0
M  END
>  <i_m_ct_stereo_status>  (161) 
1

>  <s_m_source_file>  (161) 
/var/tmp/pbs.5076255.sched01/tmpdonsa7tf/408ubvndgu.sdf

>  <i_m_source_file_index>  (161) 
35

>  <i_lp_mmshare_version>  (161) 
48012

>  <i_f3d_flags>  (161) 
0

>  <s_epik_input>  (161) 
W0NIMl09QzFbQ0BASF0oW0NIM10pW0NIMl1OKFtDSDJdMilbQ0BdMShbT0hdKVtDQEBIXTNbQ0gyXVtDQEhdKE9bQ0gyXU9bQ0gzXSlbQ0BASF00W0NIMl1bQ0gyXUMoW0NIM10pKFtDSDNdKVtDQEhdKFtDQEBIXShbQ0gyXVtDSDJdNSlPW0NIM10pW0NAQF0zNFtDQEBIXShbQ0BdMjU2KVtDSDJdW0NIMl1bQ0BdNyhbQ0gyXVtPSF0pW0NASF02W0NIMl1bQ0gyXVtDQEhdOFtDQEBdNyhbT0hdKVtDSDJdQyhDOD1PKShbQ0gzXSlbQ0gzXQ==

>  <s_epik_cmdline>  (161) 
J2VwaWtfcHl0aG9uJywgJy1waHQnLCAnMi4wJywgJy1waCcsICc3LjAnLCAnLXRuJywgJzgnLCAnLW1hJywgJzIwMCcsICctaW1hZScsICc8aW5maWxlLm1hZT4nLCAnLW9tYWUnLCAnPG91dGZpbGUubWFlPic=

>  <r_epik_Ionization_Penalty>  (161) 
0.806025

>  <r_epik_Ionization_Penalty_Charging>  (161) 
0

>  <r_epik_Ionization_Penalty_Neutral>  (161) 
0.806025

>  <r_epik_State_Penalty>  (161) 
0.855949

>  <r_epik_Charging_Adjusted_Penalty>  (161) 
0.855949

>  <i_epik_Tot_Q>  (161) 
0

>  <i_epik_Tot_abs_Q>  (161) 
0

>  <s_epik_Chemistry_Notes>  (161) 
This compound contains an acetal/aminal-like group ( X-CH(R)-Y where X, Y are N, S, or O) that may be acid/base labile, releasing an aldehyde.

>  <s_lp_Force_Field>  (161) 
OPLS3e

>  <r_lp_Energy>  (161) 
148.27

>  <b_lp_Chiralities_Consistent>  (161) 
1

>  <s_lp_Variant>  (161) 
54:0-2

>  <s_i_glide_gridfile>  (161) 
pfpi4k_grid

>  <i_i_glide_lignum>  (161) 
35

>  <i_i_glide_rotatable_bonds>  (161) 
8

>  <r_i_docking_score>  (161) 
-1.64891

>  <r_i_glide_ligand_efficiency>  (161) 
-0.0343523

>  <r_i_glide_ligand_efficiency_sa>  (161) 
-0.124844

>  <r_i_glide_ligand_efficiency_ln>  (161) 
-0.338502

>  <r_i_glide_gscore>  (161) 
-1.64891

>  <r_i_glide_lipo>  (161) 
-0.0254305

>  <r_i_glide_hbond>  (161) 
-0.0489914

>  <r_i_glide_metal>  (161) 
-0

>  <r_i_glide_rewards>  (161) 
-0.0438608

>  <r_i_glide_evdw>  (161) 
-25.7061

>  <r_i_glide_ecoul>  (161) 
-2.55876

>  <r_i_glide_erotb>  (161) 
0.142497

>  <r_i_glide_esite>  (161) 
-0.004007

>  <r_i_glide_emodel>  (161) 
-30.3648

>  <r_i_glide_energy>  (161) 
-28.2648

>  <r_i_glide_einternal>  (161) 
0.797235

>  <r_i_glide_intrahb_reward>  (161) 
-0

>  <i_i_glide_confnum>  (161) 
1

>  <i_i_glide_posenum>  (161) 
19

>  <r_i_glide_eff_state_penalty>  (161) 
0

>  <ligand_id>  (161) 
54

>  <original_smiles>  (161) 
C=C1C(C)CN2CC34CCC(OC)C5C(C)(C)CCC6C(OCOC)CC(C65C3CCC3(CO)C4CCC4C(=O)C(C)(C)CC43O)C12O

>  <smiles>  (161) 
[H]OC([H])([H])C12C([H])([H])C([H])([H])C3([H])C4(C([H])([H])N5C([H])([H])C([H])(C([H])([H])[H])C(=C([H])[H])C5(O[H])C5([H])C([H])([H])C([H])(OC([H])([H])OC([H])([H])[H])C6([H])C([H])([H])C([H])([H])C(C([H])([H])[H])(C([H])([H])[H])C([H])(C([H])(OC([H])([H])[H])C([H])([H])C4([H])[H])C563)C1([H])C([H])([H])C([H])([H])C1([H])C(=O)C(C([H])([H])[H])(C([H])([H])[H])C([H])([H])C12O[H]

$$$$
54:1:2
     RDKit          3D

111118  0  0  1  0  0  0  0  0999 V2000
    3.8204    1.3852    4.3737 C   0  0  0  0  0  0  0  0  0  0  0  0
    3.0398    0.3584    4.0065 C   0  0  0  0  0  0  0  0  0  0  0  0
    1.7734    0.4714    3.1927 C   0  0  1  0  0  0  0  0  0  0  0  0
    1.8267    1.4887    2.0418 C   0  0  0  0  0  0  0  0  0  0  0  0
    1.5466   -0.9767    2.7548 C   0  0  0  0  0  0  0  0  0  0  0  0
    2.0365   -1.7544    3.8919 N   0  0  0  0  0  0  0  0  0  0  0  0
    1.9913   -3.2076    3.7464 C   0  0  0  0  0  0  0  0  0  0  0  0
    1.5529   -4.0119    5.0185 C   0  0  2  0  0  0  0  0  0  0  0  0
    0.1046   -3.5976    5.4244 C   0  0  0  0  0  0  0  0  0  0  0  0
   -0.3849   -2.1628    5.6531 C   0  0  0  0  0  0  0  0  0  0  0  0
    0.4374   -1.1588    6.4855 C   0  0  1  0  0  0  0  0  0  0  0  0
   -0.4738   -0.2446    7.1010 O   0  0  0  0  0  0  0  0  0  0  0  0
   -1.0956    0.6876    6.2173 C   0  0  0  0  0  0  0  0  0  0  0  0
    1.5241   -1.6732    7.4810 C   0  0  1  0  0  0  0  0  0  0  0  0
    1.0590   -2.2927    8.8891 C   0  0  0  0  0  0  0  0  0  0  0  0
    0.3801   -1.1868    9.7459 C   0  0  0  0  0  0  0  0  0  0  0  0
    0.0286   -3.4370    8.7815 C   0  0  0  0  0  0  0  0  0  0  0  0
    2.2448   -2.7830    9.8004 C   0  0  0  0  0  0  0  0  0  0  0  0
    3.5380   -3.2493    9.1253 C   0  0  0  0  0  0  0  0  0  0  0  0
    3.8459   -2.2757    7.9968 C   0  0  1  0  0  0  0  0  0  0  0  0
    5.3043   -2.0587    7.5519 C   0  0  1  0  0  0  0  0  0  0  0  0
    6.1207   -3.2164    7.7289 O   0  0  0  0  0  0  0  0  0  0  0  0
    7.4797   -3.0245    7.5108 C   0  0  0  0  0  0  0  0  0  0  0  0
    8.1978   -4.2008    7.6812 O   0  0  0  0  0  0  0  0  0  0  0  0
    7.9104   -5.1964    6.7113 C   0  0  0  0  0  0  0  0  0  0  0  0
    5.1492   -1.6023    6.1013 C   0  0  0  0  0  0  0  0  0  0  0  0
    3.6327   -1.3412    5.8610 C   0  0  2  0  0  0  0  0  0  0  0  0
    2.8219   -2.3166    6.8063 C   0  0  2  0  0  0  0  0  0  0  0  0
    2.5687   -3.7878    6.2147 C   0  0  2  0  0  0  0  0  0  0  0  0
    3.8685   -4.5644    5.9114 C   0  0  0  0  0  0  0  0  0  0  0  0
    3.6428   -6.0633    5.8084 C   0  0  0  0  0  0  0  0  0  0  0  0
    2.7764   -6.4857    4.6012 C   0  0  2  0  0  0  0  0  0  0  0  0
    3.6249   -6.2474    3.3016 C   0  0  0  0  0  0  0  0  0  0  0  0
    2.9649   -6.5812    2.0962 O   0  0  0  0  0  0  0  0  0  0  0  0
    1.4404   -5.5887    4.5884 C   0  0  1  0  0  0  0  0  0  0  0  0
    0.2273   -6.4250    5.1712 C   0  0  0  0  0  0  0  0  0  0  0  0
   -0.0548   -7.7702    4.4583 C   0  0  0  0  0  0  0  0  0  0  0  0
    1.2223   -8.4181    3.9231 C   0  0  2  0  0  0  0  0  0  0  0  0
    1.2657   -9.9327    3.7973 C   0  0  0  0  0  0  0  0  0  0  0  0
    0.2984  -10.6380    3.5309 O   0  0  0  0  0  0  0  0  0  0  0  0
    2.6980  -10.4441    3.9895 C   0  0  0  0  0  0  0  0  0  0  0  0
    2.7618  -11.4499    5.1564 C   0  0  0  0  0  0  0  0  0  0  0  0
    3.1834  -11.1273    2.6999 C   0  0  0  0  0  0  0  0  0  0  0  0
    3.4890   -9.1318    4.2874 C   0  0  0  0  0  0  0  0  0  0  0  0
    2.4583   -8.0523    4.7491 C   0  0  1  0  0  0  0  0  0  0  0  0
    2.2043   -8.3950    6.1152 O   0  0  0  0  0  0  0  0  0  0  0  0
    3.2734   -1.1079    4.3485 C   0  0  2  0  0  0  0  0  0  0  0  0
    4.2909   -1.5696    3.4841 O   0  0  0  0  0  0  0  0  0  0  0  0
    4.7223    1.2175    4.9413 H   0  0  0  0  0  0  0  0  0  0  0  0
    3.5865    2.3986    4.0908 H   0  0  0  0  0  0  0  0  0  0  0  0
    0.9744    0.7561    3.8752 H   0  0  0  0  0  0  0  0  0  0  0  0
    1.9547    2.5059    2.4105 H   0  0  0  0  0  0  0  0  0  0  0  0
    0.8976    1.4795    1.4697 H   0  0  0  0  0  0  0  0  0  0  0  0
    2.6447    1.2784    1.3509 H   0  0  0  0  0  0  0  0  0  0  0  0
    0.4961   -1.1750    2.5470 H   0  0  0  0  0  0  0  0  0  0  0  0
    2.1198   -1.2005    1.8528 H   0  0  0  0  0  0  0  0  0  0  0  0
    1.3011   -3.4314    2.9300 H   0  0  0  0  0  0  0  0  0  0  0  0
    2.9575   -3.5362    3.3915 H   0  0  0  0  0  0  0  0  0  0  0  0
   -0.5414   -3.9136    4.6077 H   0  0  0  0  0  0  0  0  0  0  0  0
   -0.2017   -4.1756    6.2889 H   0  0  0  0  0  0  0  0  0  0  0  0
   -0.5942   -1.7156    4.6788 H   0  0  0  0  0  0  0  0  0  0  0  0
   -1.3748   -2.2551    6.1070 H   0  0  0  0  0  0  0  0  0  0  0  0
    0.9903   -0.5381    5.7921 H   0  0  0  0  0  0  0  0  0  0  0  0
   -1.7653    1.3393    6.7819 H   0  0  0  0  0  0  0  0  0  0  0  0
   -1.6969    0.1949    5.4501 H   0  0  0  0  0  0  0  0  0  0  0  0
   -0.3564    1.3240    5.7262 H   0  0  0  0  0  0  0  0  0  0  0  0
    1.8712   -0.6915    7.8007 H   0  0  0  0  0  0  0  0  0  0  0  0
    0.2219   -1.5257   10.7739 H   0  0  0  0  0  0  0  0  0  0  0  0
   -0.5851   -0.8773    9.3717 H   0  0  0  0  0  0  0  0  0  0  0  0
    1.0119   -0.2970    9.8036 H   0  0  0  0  0  0  0  0  0  0  0  0
   -0.3529   -3.7165    9.7640 H   0  0  0  0  0  0  0  0  0  0  0  0
    0.4502   -4.3458    8.3628 H   0  0  0  0  0  0  0  0  0  0  0  0
   -0.8403   -3.1524    8.1959 H   0  0  0  0  0  0  0  0  0  0  0  0
    2.5392   -1.9730   10.4731 H   0  0  0  0  0  0  0  0  0  0  0  0
    1.9066   -3.5785   10.4633 H   0  0  0  0  0  0  0  0  0  0  0  0
    4.3487   -3.2345    9.8559 H   0  0  0  0  0  0  0  0  0  0  0  0
    3.4741   -4.2806    8.7844 H   0  0  0  0  0  0  0  0  0  0  0  0
    3.7095   -1.3130    8.4868 H   0  0  0  0  0  0  0  0  0  0  0  0
    5.7338   -1.2495    8.1494 H   0  0  0  0  0  0  0  0  0  0  0  0
    7.6593   -2.6207    6.5152 H   0  0  0  0  0  0  0  0  0  0  0  0
    7.8592   -2.3113    8.2431 H   0  0  0  0  0  0  0  0  0  0  0  0
    8.5368   -6.0696    6.8977 H   0  0  0  0  0  0  0  0  0  0  0  0
    8.1242   -4.8443    5.7018 H   0  0  0  0  0  0  0  0  0  0  0  0
    6.8690   -5.5173    6.7586 H   0  0  0  0  0  0  0  0  0  0  0  0
    5.7460   -0.7109    5.9087 H   0  0  0  0  0  0  0  0  0  0  0  0
    5.5395   -2.3782    5.4489 H   0  0  0  0  0  0  0  0  0  0  0  0
    3.4821   -0.3682    6.3374 H   0  0  0  0  0  0  0  0  0  0  0  0
    2.1205   -4.3337    7.0370 H   0  0  0  0  0  0  0  0  0  0  0  0
    4.3817   -4.1772    5.0356 H   0  0  0  0  0  0  0  0  0  0  0  0
    4.5530   -4.4805    6.7371 H   0  0  0  0  0  0  0  0  0  0  0  0
    4.5997   -6.5880    5.7840 H   0  0  0  0  0  0  0  0  0  0  0  0
    3.1731   -6.3462    6.7506 H   0  0  0  0  0  0  0  0  0  0  0  0
    3.9303   -5.2191    3.1776 H   0  0  0  0  0  0  0  0  0  0  0  0
    4.5725   -6.7835    3.3584 H   0  0  0  0  0  0  0  0  0  0  0  0
    2.8463   -7.5212    2.0532 H   0  0  0  0  0  0  0  0  0  0  0  0
    1.1477   -5.5389    3.5396 H   0  0  0  0  0  0  0  0  0  0  0  0
    0.3908   -6.5956    6.2358 H   0  0  0  0  0  0  0  0  0  0  0  0
   -0.7293   -5.9195    5.1008 H   0  0  0  0  0  0  0  0  0  0  0  0
   -0.6036   -8.4435    5.1164 H   0  0  0  0  0  0  0  0  0  0  0  0
   -0.7051   -7.5920    3.6024 H   0  0  0  0  0  0  0  0  0  0  0  0
    1.3313   -8.0852    2.8955 H   0  0  0  0  0  0  0  0  0  0  0  0
    3.7913  -11.7242    5.3914 H   0  0  0  0  0  0  0  0  0  0  0  0
    2.2292  -12.3714    4.9142 H   0  0  0  0  0  0  0  0  0  0  0  0
    2.3111  -11.0565    6.0683 H   0  0  0  0  0  0  0  0  0  0  0  0
    4.2381  -11.3971    2.7596 H   0  0  0  0  0  0  0  0  0  0  0  0
    3.0561  -10.4876    1.8254 H   0  0  0  0  0  0  0  0  0  0  0  0
    2.6324  -12.0480    2.5003 H   0  0  0  0  0  0  0  0  0  0  0  0
    4.2897   -9.2847    5.0165 H   0  0  0  0  0  0  0  0  0  0  0  0
    3.9764   -8.8433    3.3570 H   0  0  0  0  0  0  0  0  0  0  0  0
    2.0102   -9.3205    6.1732 H   0  0  0  0  0  0  0  0  0  0  0  0
    3.8862   -1.9479    2.7202 H   0  0  0  0  0  0  0  0  0  0  0  0
  1  2  2  0
  1 49  1  0
  1 50  1  0
  2 47  1  0
  2  3  1  0
  3  4  1  0
  3  5  1  0
  3 51  1  1
  4 52  1  0
  4 53  1  0
  4 54  1  0
  5  6  1  0
  5 55  1  0
  5 56  1  0
  6 47  1  0
  6  7  1  0
  8  7  1  6
  7 57  1  0
  7 58  1  0
  8 29  1  0
  8 35  1  0
  8  9  1  0
  9 10  1  0
  9 59  1  0
  9 60  1  0
 10 11  1  0
 10 61  1  0
 10 62  1  0
 11 12  1  0
 11 14  1  0
 11 63  1  6
 12 13  1  0
 13 64  1  0
 13 65  1  0
 13 66  1  0
 28 14  1  1
 14 15  1  0
 14 67  1  1
 15 16  1  0
 15 17  1  0
 15 18  1  0
 16 68  1  0
 16 69  1  0
 16 70  1  0
 17 71  1  0
 17 72  1  0
 17 73  1  0
 18 19  1  0
 18 74  1  0
 18 75  1  0
 19 20  1  0
 19 76  1  0
 19 77  1  0
 20 28  1  0
 20 21  1  0
 20 78  1  1
 21 22  1  0
 21 26  1  0
 21 79  1  1
 22 23  1  0
 23 24  1  0
 23 80  1  0
 23 81  1  0
 24 25  1  0
 25 82  1  0
 25 83  1  0
 25 84  1  0
 26 27  1  0
 26 85  1  0
 26 86  1  0
 27 28  1  0
 27 47  1  0
 27 87  1  1
 28 29  1  0
 29 30  1  0
 29 88  1  1
 30 31  1  0
 30 89  1  0
 30 90  1  0
 31 32  1  0
 31 91  1  0
 31 92  1  0
 32 45  1  0
 32 33  1  6
 32 35  1  0
 33 34  1  0
 33 93  1  0
 33 94  1  0
 34 95  1  0
 35 36  1  0
 35 96  1  6
 36 37  1  0
 36 97  1  0
 36 98  1  0
 37 38  1  0
 37 99  1  0
 37100  1  0
 38 45  1  0
 38 39  1  0
 38101  1  6
 39 40  2  0
 39 41  1  0
 41 42  1  0
 41 43  1  0
 41 44  1  0
 42102  1  0
 42103  1  0
 42104  1  0
 43105  1  0
 43106  1  0
 43107  1  0
 44 45  1  0
 44108  1  0
 44109  1  0
 45 46  1  1
 46110  1  0
 47 48  1  6
 48111  1  0
M  END
>  <i_m_ct_stereo_status>  (162) 
1

>  <s_m_source_file>  (162) 
/var/tmp/pbs.5076255.sched01/tmpdonsa7tf/408ubvndgu.sdf

>  <i_m_source_file_index>  (162) 
35

>  <i_lp_mmshare_version>  (162) 
48012

>  <i_f3d_flags>  (162) 
0

>  <s_epik_input>  (162) 
W0NIMl09QzFbQ0BASF0oW0NIM10pW0NIMl1OKFtDSDJdMilbQ0BdMShbT0hdKVtDQEBIXTNbQ0gyXVtDQEhdKE9bQ0gyXU9bQ0gzXSlbQ0BASF00W0NIMl1bQ0gyXUMoW0NIM10pKFtDSDNdKVtDQEhdKFtDQEBIXShbQ0gyXVtDSDJdNSlPW0NIM10pW0NAQF0zNFtDQEBIXShbQ0BdMjU2KVtDSDJdW0NIMl1bQ0BdNyhbQ0gyXVtPSF0pW0NASF02W0NIMl1bQ0gyXVtDQEhdOFtDQEBdNyhbT0hdKVtDSDJdQyhDOD1PKShbQ0gzXSlbQ0gzXQ==

>  <s_epik_cmdline>  (162) 
J2VwaWtfcHl0aG9uJywgJy1waHQnLCAnMi4wJywgJy1waCcsICc3LjAnLCAnLXRuJywgJzgnLCAnLW1hJywgJzIwMCcsICctaW1hZScsICc8aW5maWxlLm1hZT4nLCAnLW9tYWUnLCAnPG91dGZpbGUubWFlPic=

>  <r_epik_Ionization_Penalty>  (162) 
0.806025

>  <r_epik_Ionization_Penalty_Charging>  (162) 
0

>  <r_epik_Ionization_Penalty_Neutral>  (162) 
0.806025

>  <r_epik_State_Penalty>  (162) 
0.855949

>  <r_epik_Charging_Adjusted_Penalty>  (162) 
0.855949

>  <i_epik_Tot_Q>  (162) 
0

>  <i_epik_Tot_abs_Q>  (162) 
0

>  <s_epik_Chemistry_Notes>  (162) 
This compound contains an acetal/aminal-like group ( X-CH(R)-Y where X, Y are N, S, or O) that may be acid/base labile, releasing an aldehyde.

>  <s_lp_Force_Field>  (162) 
OPLS3e

>  <r_lp_Energy>  (162) 
148.27

>  <b_lp_Chiralities_Consistent>  (162) 
1

>  <s_lp_Variant>  (162) 
54:0-2

>  <s_i_glide_gridfile>  (162) 
pfpi4k_grid

>  <i_i_glide_lignum>  (162) 
35

>  <i_i_glide_rotatable_bonds>  (162) 
8

>  <r_i_docking_score>  (162) 
-1.63418

>  <r_i_glide_ligand_efficiency>  (162) 
-0.0340454

>  <r_i_glide_ligand_efficiency_sa>  (162) 
-0.123729

>  <r_i_glide_ligand_efficiency_ln>  (162) 
-0.335477

>  <r_i_glide_gscore>  (162) 
-1.63418

>  <r_i_glide_lipo>  (162) 
-0.0442294

>  <r_i_glide_hbond>  (162) 
-0.0329752

>  <r_i_glide_metal>  (162) 
-0

>  <r_i_glide_rewards>  (162) 
-0.0361816

>  <r_i_glide_evdw>  (162) 
-26.2221

>  <r_i_glide_ecoul>  (162) 
-2.33797

>  <r_i_glide_erotb>  (162) 
0.142497

>  <r_i_glide_esite>  (162) 
-0.00148838

>  <r_i_glide_emodel>  (162) 
-29.576

>  <r_i_glide_energy>  (162) 
-28.5601

>  <r_i_glide_einternal>  (162) 
2.89036

>  <r_i_glide_intrahb_reward>  (162) 
-0

>  <i_i_glide_confnum>  (162) 
1

>  <i_i_glide_posenum>  (162) 
33

>  <r_i_glide_eff_state_penalty>  (162) 
0

>  <ligand_id>  (162) 
54

>  <original_smiles>  (162) 
C=C1C(C)CN2CC34CCC(OC)C5C(C)(C)CCC6C(OCOC)CC(C65C3CCC3(CO)C4CCC4C(=O)C(C)(C)CC43O)C12O

>  <smiles>  (162) 
[H]OC([H])([H])C12C([H])([H])C([H])([H])C3([H])C4(C([H])([H])N5C([H])([H])C([H])(C([H])([H])[H])C(=C([H])[H])C5(O[H])C5([H])C([H])([H])C([H])(OC([H])([H])OC([H])([H])[H])C6([H])C([H])([H])C([H])([H])C(C([H])([H])[H])(C([H])([H])[H])C([H])(C([H])(OC([H])([H])[H])C([H])([H])C4([H])[H])C563)C1([H])C([H])([H])C([H])([H])C1([H])C(=O)C(C([H])([H])[H])(C([H])([H])[H])C([H])([H])C12O[H]

$$$$
54:2:0
     RDKit          3D

111118  0  0  1  0  0  0  0  0999 V2000
    4.7428   -3.2404   11.6747 C   0  0  0  0  0  0  0  0  0  0  0  0
    5.2708   -4.0099   10.7257 C   0  0  0  0  0  0  0  0  0  0  0  0
    6.1801   -3.4537    9.6478 C   0  0  1  0  0  0  0  0  0  0  0  0
    7.6689   -3.5786   10.0248 C   0  0  0  0  0  0  0  0  0  0  0  0
    5.7752   -4.2829    8.4363 C   0  0  0  0  0  0  0  0  0  0  0  0
    5.2755   -5.5691    8.9736 N   0  0  2  0  0  0  0  0  0  0  0  0
    4.6461   -6.5750    8.0938 C   0  0  0  0  0  0  0  0  0  0  0  0
    3.1712   -6.4304    7.5649 C   0  0  2  0  0  0  0  0  0  0  0  0
    2.9494   -5.0371    6.8847 C   0  0  0  0  0  0  0  0  0  0  0  0
    2.1788   -3.8518    7.5190 C   0  0  0  0  0  0  0  0  0  0  0  0
    2.2628   -3.5707    9.0225 C   0  0  1  0  0  0  0  0  0  0  0  0
    1.8704   -2.2043    9.1721 O   0  0  0  0  0  0  0  0  0  0  0  0
    2.4122   -1.5102   10.2915 C   0  0  0  0  0  0  0  0  0  0  0  0
    1.4845   -4.5320    9.9790 C   0  0  1  0  0  0  0  0  0  0  0  0
   -0.1312   -4.5018    9.9354 C   0  0  0  0  0  0  0  0  0  0  0  0
   -0.6734   -3.0649   10.0794 C   0  0  0  0  0  0  0  0  0  0  0  0
   -0.8712   -5.0976    8.7050 C   0  0  0  0  0  0  0  0  0  0  0  0
   -0.6864   -5.2564   11.1667 C   0  0  0  0  0  0  0  0  0  0  0  0
   -0.1544   -6.6890   11.2929 C   0  0  0  0  0  0  0  0  0  0  0  0
    1.3726   -6.6323   11.3107 C   0  0  1  0  0  0  0  0  0  0  0  0
    2.1635   -7.8003   11.9207 C   0  0  1  0  0  0  0  0  0  0  0  0
    1.6574   -9.0766   11.5461 O   0  0  0  0  0  0  0  0  0  0  0  0
    2.2215  -10.1729   12.1850 C   0  0  0  0  0  0  0  0  0  0  0  0
    1.5651  -11.3487   11.8407 O   0  0  0  0  0  0  0  0  0  0  0  0
    1.7428  -11.7374   10.4836 C   0  0  0  0  0  0  0  0  0  0  0  0
    3.5879   -7.5015   11.4458 C   0  0  0  0  0  0  0  0  0  0  0  0
    3.5559   -6.0509   10.8762 C   0  0  2  0  0  0  0  0  0  0  0  0
    2.1574   -5.9596   10.1147 C   0  0  2  0  0  0  0  0  0  0  0  0
    2.1155   -6.7299    8.7073 C   0  0  2  0  0  0  0  0  0  0  0  0
    1.7415   -8.2249    8.7557 C   0  0  0  0  0  0  0  0  0  0  0  0
    1.0095   -8.6728    7.4996 C   0  0  0  0  0  0  0  0  0  0  0  0
    1.8295   -8.5085    6.2029 C   0  0  2  0  0  0  0  0  0  0  0  0
    2.3200   -9.9436    5.7779 C   0  0  0  0  0  0  0  0  0  0  0  0
    3.0220  -10.6386    6.8151 O   0  0  0  0  0  0  0  0  0  0  0  0
    3.0970   -7.5577    6.3944 C   0  0  1  0  0  0  0  0  0  0  0  0
    3.7472   -7.1861    5.0008 C   0  0  0  0  0  0  0  0  0  0  0  0
    2.7885   -6.7467    3.8595 C   0  0  0  0  0  0  0  0  0  0  0  0
    1.6425   -7.7532    3.7593 C   0  0  2  0  0  0  0  0  0  0  0  0
    0.5242   -7.4937    2.7635 C   0  0  0  0  0  0  0  0  0  0  0  0
    0.6188   -6.8081    1.7484 O   0  0  0  0  0  0  0  0  0  0  0  0
   -0.7620   -8.1748    3.2339 C   0  0  0  0  0  0  0  0  0  0  0  0
   -1.8971   -7.1473    3.2914 C   0  0  0  0  0  0  0  0  0  0  0  0
   -1.1535   -9.3143    2.2802 C   0  0  0  0  0  0  0  0  0  0  0  0
   -0.3809   -8.6956    4.6444 C   0  0  0  0  0  0  0  0  0  0  0  0
    0.8939   -7.9245    5.0832 C   0  0  1  0  0  0  0  0  0  0  0  0
    0.3957   -6.6694    5.5162 O   0  0  0  0  0  0  0  0  0  0  0  0
    4.9077   -5.4546   10.3805 C   0  0  2  0  0  0  0  0  0  0  0  0
    5.8882   -6.1921   10.9013 O   0  0  0  0  0  0  0  0  0  0  0  0
    4.0220   -3.6085   12.3909 H   0  0  0  0  0  0  0  0  0  0  0  0
    5.0135   -2.1883   11.7392 H   0  0  0  0  0  0  0  0  0  0  0  0
    5.9445   -2.4029    9.4759 H   0  0  0  0  0  0  0  0  0  0  0  0
    7.8726   -3.0618   10.9628 H   0  0  0  0  0  0  0  0  0  0  0  0
    8.3130   -3.1381    9.2604 H   0  0  0  0  0  0  0  0  0  0  0  0
    7.9635   -4.6216   10.1591 H   0  0  0  0  0  0  0  0  0  0  0  0
    4.9791   -3.7528    7.9345 H   0  0  0  0  0  0  0  0  0  0  0  0
    6.5905   -4.4241    7.7213 H   0  0  0  0  0  0  0  0  0  0  0  0
    5.3348   -6.6838    7.2516 H   0  0  0  0  0  0  0  0  0  0  0  0
    4.7214   -7.5123    8.6403 H   0  0  0  0  0  0  0  0  0  0  0  0
    3.8809   -4.6921    6.4375 H   0  0  0  0  0  0  0  0  0  0  0  0
    2.3482   -5.2104    6.0099 H   0  0  0  0  0  0  0  0  0  0  0  0
    2.5804   -2.9646    7.0326 H   0  0  0  0  0  0  0  0  0  0  0  0
    1.1543   -3.8359    7.1709 H   0  0  0  0  0  0  0  0  0  0  0  0
    3.3091   -3.6076    9.2689 H   0  0  0  0  0  0  0  0  0  0  0  0
    1.9493   -0.5323   10.4284 H   0  0  0  0  0  0  0  0  0  0  0  0
    3.4746   -1.3447   10.1261 H   0  0  0  0  0  0  0  0  0  0  0  0
    2.2737   -2.0367   11.2353 H   0  0  0  0  0  0  0  0  0  0  0  0
    1.6801   -4.0970   10.9557 H   0  0  0  0  0  0  0  0  0  0  0  0
   -1.7370   -3.0667   10.3264 H   0  0  0  0  0  0  0  0  0  0  0  0
   -0.5432   -2.4973    9.1593 H   0  0  0  0  0  0  0  0  0  0  0  0
   -0.1756   -2.5269   10.8834 H   0  0  0  0  0  0  0  0  0  0  0  0
   -1.9438   -4.8944    8.7650 H   0  0  0  0  0  0  0  0  0  0  0  0
   -0.7909   -6.1786    8.6467 H   0  0  0  0  0  0  0  0  0  0  0  0
   -0.5535   -4.7113    7.7454 H   0  0  0  0  0  0  0  0  0  0  0  0
   -0.4196   -4.7053   12.0688 H   0  0  0  0  0  0  0  0  0  0  0  0
   -1.7772   -5.2702   11.1514 H   0  0  0  0  0  0  0  0  0  0  0  0
   -0.5171   -7.1337   12.2250 H   0  0  0  0  0  0  0  0  0  0  0  0
   -0.5185   -7.3190   10.4924 H   0  0  0  0  0  0  0  0  0  0  0  0
    1.4793   -5.9212   12.1287 H   0  0  0  0  0  0  0  0  0  0  0  0
    2.0985   -7.7167   13.0056 H   0  0  0  0  0  0  0  0  0  0  0  0
    3.2824  -10.2533   11.9484 H   0  0  0  0  0  0  0  0  0  0  0  0
    2.1153  -10.0647   13.2650 H   0  0  0  0  0  0  0  0  0  0  0  0
    1.2057  -12.6686   10.3067 H   0  0  0  0  0  0  0  0  0  0  0  0
    2.7926  -11.9085   10.2420 H   0  0  0  0  0  0  0  0  0  0  0  0
    1.3395  -10.9929    9.8003 H   0  0  0  0  0  0  0  0  0  0  0  0
    4.2887   -7.6006   12.2787 H   0  0  0  0  0  0  0  0  0  0  0  0
    3.9099   -8.2107   10.6853 H   0  0  0  0  0  0  0  0  0  0  0  0
    3.4324   -5.4869   11.7945 H   0  0  0  0  0  0  0  0  0  0  0  0
    1.2366   -6.3276    8.2422 H   0  0  0  0  0  0  0  0  0  0  0  0
    2.6010   -8.8665    8.9549 H   0  0  0  0  0  0  0  0  0  0  0  0
    0.9988   -8.4177    9.5134 H   0  0  0  0  0  0  0  0  0  0  0  0
    0.7360   -9.7160    7.6330 H   0  0  0  0  0  0  0  0  0  0  0  0
    0.0489   -8.1617    7.4382 H   0  0  0  0  0  0  0  0  0  0  0  0
    1.5042  -10.6080    5.5018 H   0  0  0  0  0  0  0  0  0  0  0  0
    2.9820   -9.9194    4.9160 H   0  0  0  0  0  0  0  0  0  0  0  0
    2.4084  -11.2779    7.1843 H   0  0  0  0  0  0  0  0  0  0  0  0
    3.8223   -8.2746    6.7756 H   0  0  0  0  0  0  0  0  0  0  0  0
    4.5228   -6.4341    5.1159 H   0  0  0  0  0  0  0  0  0  0  0  0
    4.2727   -8.0730    4.6365 H   0  0  0  0  0  0  0  0  0  0  0  0
    2.4182   -5.7285    3.9734 H   0  0  0  0  0  0  0  0  0  0  0  0
    3.3313   -6.7306    2.9141 H   0  0  0  0  0  0  0  0  0  0  0  0
    2.0647   -8.7052    3.4430 H   0  0  0  0  0  0  0  0  0  0  0  0
   -2.8102   -7.5934    3.6821 H   0  0  0  0  0  0  0  0  0  0  0  0
   -2.1329   -6.7913    2.2936 H   0  0  0  0  0  0  0  0  0  0  0  0
   -1.6338   -6.2893    3.9081 H   0  0  0  0  0  0  0  0  0  0  0  0
   -2.0152   -9.8525    2.6685 H   0  0  0  0  0  0  0  0  0  0  0  0
   -0.3375  -10.0231    2.1381 H   0  0  0  0  0  0  0  0  0  0  0  0
   -1.4224   -8.9356    1.2949 H   0  0  0  0  0  0  0  0  0  0  0  0
   -1.2072   -8.5933    5.3511 H   0  0  0  0  0  0  0  0  0  0  0  0
   -0.1873   -9.7624    4.5574 H   0  0  0  0  0  0  0  0  0  0  0  0
    1.1435   -6.1556    5.7936 H   0  0  0  0  0  0  0  0  0  0  0  0
    6.1321   -6.0265    9.2443 H   0  0  0  0  0  0  0  0  0  0  0  0
  1  2  2  0
  1 49  1  0
  1 50  1  0
  2 47  1  0
  2  3  1  0
  3  4  1  0
  3  5  1  0
  3 51  1  6
  4 52  1  0
  4 53  1  0
  4 54  1  0
  5  6  1  0
  5 55  1  0
  5 56  1  0
  6 47  1  0
  6  7  1  0
  6111  1  1
  8  7  1  1
  7 57  1  0
  7 58  1  0
  8 29  1  0
  8 35  1  0
  8  9  1  0
  9 10  1  0
  9 59  1  0
  9 60  1  0
 10 11  1  0
 10 61  1  0
 10 62  1  0
 11 12  1  0
 11 14  1  0
 11 63  1  1
 12 13  1  0
 13 64  1  0
 13 65  1  0
 13 66  1  0
 28 14  1  6
 14 15  1  0
 14 67  1  1
 15 16  1  0
 15 17  1  0
 15 18  1  0
 16 68  1  0
 16 69  1  0
 16 70  1  0
 17 71  1  0
 17 72  1  0
 17 73  1  0
 18 19  1  0
 18 74  1  0
 18 75  1  0
 19 20  1  0
 19 76  1  0
 19 77  1  0
 20 28  1  0
 20 21  1  0
 20 78  1  1
 21 22  1  0
 21 26  1  0
 21 79  1  1
 22 23  1  0
 23 24  1  0
 23 80  1  0
 23 81  1  0
 24 25  1  0
 25 82  1  0
 25 83  1  0
 25 84  1  0
 26 27  1  0
 26 85  1  0
 26 86  1  0
 27 28  1  0
 27 47  1  0
 27 87  1  1
 28 29  1  0
 29 30  1  0
 29 88  1  6
 30 31  1  0
 30 89  1  0
 30 90  1  0
 31 32  1  0
 31 91  1  0
 31 92  1  0
 32 45  1  0
 32 33  1  6
 32 35  1  0
 33 34  1  0
 33 93  1  0
 33 94  1  0
 34 95  1  0
 35 36  1  0
 35 96  1  1
 36 37  1  0
 36 97  1  0
 36 98  1  0
 37 38  1  0
 37 99  1  0
 37100  1  0
 38 45  1  0
 38 39  1  0
 38101  1  6
 39 40  2  0
 39 41  1  0
 41 42  1  0
 41 43  1  0
 41 44  1  0
 42102  1  0
 42103  1  0
 42104  1  0
 43105  1  0
 43106  1  0
 43107  1  0
 44 45  1  0
 44108  1  0
 44109  1  0
 45 46  1  1
 46110  1  0
 47 48  1  1
M  CHG  2   6   1  48  -1
M  END
>  <i_m_ct_stereo_status>  (163) 
1

>  <s_m_source_file>  (163) 
/var/tmp/pbs.5076255.sched01/tmpdonsa7tf/408ubvndgu.sdf

>  <i_m_source_file_index>  (163) 
36

>  <i_lp_mmshare_version>  (163) 
48012

>  <i_f3d_flags>  (163) 
0

>  <s_epik_input>  (163) 
W0NIMl09QzFbQ0BASF0oW0NIM10pW0NIMl1OKFtDSDJdMilbQ0BdMShbT0hdKVtDQEBIXTNbQ0gyXVtDQEhdKE9bQ0gyXU9bQ0gzXSlbQ0BASF00W0NIMl1bQ0gyXUMoW0NIM10pKFtDSDNdKVtDQEhdKFtDQEBIXShbQ0gyXVtDSDJdNSlPW0NIM10pW0NAQF0zNFtDQEBIXShbQ0BdMjU2KVtDSDJdW0NIMl1bQ0BdNyhbQ0gyXVtPSF0pW0NASF02W0NIMl1bQ0gyXVtDQEhdOFtDQEBdNyhbT0hdKVtDSDJdQyhDOD1PKShbQ0gzXSlbQ0gzXQ==

>  <s_epik_cmdline>  (163) 
J2VwaWtfcHl0aG9uJywgJy1waHQnLCAnMi4wJywgJy1waCcsICc3LjAnLCAnLXRuJywgJzgnLCAnLW1hJywgJzIwMCcsICctaW1hZScsICc8aW5maWxlLm1hZT4nLCAnLW9tYWUnLCAnPG91dGZpbGUubWFlPic=

>  <r_epik_Ionization_Penalty>  (163) 
1.79958

>  <r_epik_Ionization_Penalty_Charging>  (163) 
1.79958

>  <r_epik_Ionization_Penalty_Neutral>  (163) 
8.85127e-07

>  <r_epik_State_Penalty>  (163) 
2.07251

>  <r_epik_Charging_Adjusted_Penalty>  (163) 
3.87208

>  <i_epik_Tot_Q>  (163) 
0

>  <i_epik_Tot_abs_Q>  (163) 
2

>  <s_epik_Chemistry_Notes>  (163) 
This compound contains an acetal/aminal-like group ( X-CH(R)-Y where X, Y are N, S, or O) that may be acid/base labile, releasing an aldehyde.

>  <s_lp_Force_Field>  (163) 
OPLS3e

>  <r_lp_Energy>  (163) 
167.341

>  <b_lp_Chiralities_Consistent>  (163) 
1

>  <s_lp_Variant>  (163) 
54:0-3

>  <s_i_glide_gridfile>  (163) 
pfpi4k_grid

>  <i_i_glide_lignum>  (163) 
36

>  <i_i_glide_rotatable_bonds>  (163) 
7

>  <r_i_docking_score>  (163) 
-2.51685

>  <r_i_glide_ligand_efficiency>  (163) 
-0.0524344

>  <r_i_glide_ligand_efficiency_sa>  (163) 
-0.190559

>  <r_i_glide_ligand_efficiency_ln>  (163) 
-0.51668

>  <r_i_glide_gscore>  (163) 
-2.51685

>  <r_i_glide_lipo>  (163) 
-0.263398

>  <r_i_glide_hbond>  (163) 
-0.16

>  <r_i_glide_metal>  (163) 
-0

>  <r_i_glide_rewards>  (163) 
0

>  <r_i_glide_evdw>  (163) 
-20.4686

>  <r_i_glide_ecoul>  (163) 
-7.80883

>  <r_i_glide_erotb>  (163) 
0.142497

>  <r_i_glide_esite>  (163) 
-0.0411959

>  <r_i_glide_emodel>  (163) 
-31.0867

>  <r_i_glide_energy>  (163) 
-28.2774

>  <r_i_glide_einternal>  (163) 
3.4258

>  <r_i_glide_intrahb_reward>  (163) 
-0

>  <i_i_glide_confnum>  (163) 
3

>  <i_i_glide_posenum>  (163) 
38

>  <r_i_glide_eff_state_penalty>  (163) 
0

>  <ligand_id>  (163) 
54

>  <original_smiles>  (163) 
C=C1C(C)CN2CC34CCC(OC)C5C(C)(C)CCC6C(OCOC)CC(C65C3CCC3(CO)C4CCC4C(=O)C(C)(C)CC43O)C12O

>  <smiles>  (163) 
[H]OC([H])([H])C12C([H])([H])C([H])([H])C3([H])C45C6([H])C([H])([H])C([H])([H])C(C([H])([H])[H])(C([H])([H])[H])C4([H])C([H])(OC([H])([H])[H])C([H])([H])C([H])([H])C3(C1([H])C([H])([H])C([H])([H])C1([H])C(=O)C(C([H])([H])[H])(C([H])([H])[H])C([H])([H])C12O[H])C([H])([H])[N+]1([H])C([H])([H])C([H])(C([H])([H])[H])C(=C([H])[H])C1([O-])C5([H])C([H])([H])C6([H])OC([H])([H])OC([H])([H])[H]

$$$$
54:2:1
     RDKit          3D

111118  0  0  1  0  0  0  0  0999 V2000
    4.8946   -3.0734   11.0766 C   0  0  0  0  0  0  0  0  0  0  0  0
    5.3915   -3.8484   10.1203 C   0  0  0  0  0  0  0  0  0  0  0  0
    6.2167   -3.2964    8.9703 C   0  0  1  0  0  0  0  0  0  0  0  0
    7.7276   -3.3695    9.2664 C   0  0  0  0  0  0  0  0  0  0  0  0
    5.7641   -4.1655    7.8051 C   0  0  0  0  0  0  0  0  0  0  0  0
    5.3338   -5.4489    8.4060 N   0  0  2  0  0  0  0  0  0  0  0  0
    4.6852   -6.4920    7.5797 C   0  0  0  0  0  0  0  0  0  0  0  0
    3.1828   -6.3986    7.1405 C   0  0  2  0  0  0  0  0  0  0  0  0
    2.8736   -5.0316    6.4408 C   0  0  0  0  0  0  0  0  0  0  0  0
    2.1136   -3.8467    7.0935 C   0  0  0  0  0  0  0  0  0  0  0  0
    2.2741   -3.5298    8.5835 C   0  0  1  0  0  0  0  0  0  0  0  0
    1.8529   -2.1716    8.7268 O   0  0  0  0  0  0  0  0  0  0  0  0
    2.4392   -1.4382    9.7980 C   0  0  0  0  0  0  0  0  0  0  0  0
    1.5817   -4.4911    9.6036 C   0  0  1  0  0  0  0  0  0  0  0  0
   -0.0355   -4.5054    9.6545 C   0  0  0  0  0  0  0  0  0  0  0  0
   -0.6048   -3.0791    9.7959 C   0  0  0  0  0  0  0  0  0  0  0  0
   -0.8275   -5.1512    8.4849 C   0  0  0  0  0  0  0  0  0  0  0  0
   -0.4970   -5.2465   10.9313 C   0  0  0  0  0  0  0  0  0  0  0  0
    0.0846   -6.6593   11.0533 C   0  0  0  0  0  0  0  0  0  0  0  0
    1.6075   -6.5578   10.9819 C   0  0  1  0  0  0  0  0  0  0  0  0
    2.4608   -7.6899   11.5728 C   0  0  1  0  0  0  0  0  0  0  0  0
    1.9608   -8.9889   11.2686 O   0  0  0  0  0  0  0  0  0  0  0  0
    2.5584  -10.0514   11.9357 C   0  0  0  0  0  0  0  0  0  0  0  0
    1.8131  -11.2141   11.7990 O   0  0  0  0  0  0  0  0  0  0  0  0
    1.8036  -11.7466   10.4838 C   0  0  0  0  0  0  0  0  0  0  0  0
    3.8490   -7.3700   11.0071 C   0  0  0  0  0  0  0  0  0  0  0  0
    3.7409   -5.9336   10.4112 C   0  0  2  0  0  0  0  0  0  0  0  0
    2.3048   -5.8949    9.7286 C   0  0  2  0  0  0  0  0  0  0  0  0
    2.1989   -6.6992    8.3435 C   0  0  2  0  0  0  0  0  0  0  0  0
    1.8704   -8.2035    8.4473 C   0  0  0  0  0  0  0  0  0  0  0  0
    1.0784   -8.7014    7.2472 C   0  0  0  0  0  0  0  0  0  0  0  0
    1.8182   -8.5421    5.9015 C   0  0  2  0  0  0  0  0  0  0  0  0
    2.3273   -9.9779    5.4794 C   0  0  0  0  0  0  0  0  0  0  0  0
    3.0653  -10.6560    6.4759 O   0  0  0  0  0  0  0  0  0  0  0  0
    3.0692   -7.5554    5.9990 C   0  0  1  0  0  0  0  0  0  0  0  0
    3.6269   -7.1969    4.5616 C   0  0  0  0  0  0  0  0  0  0  0  0
    2.5933   -6.8084    3.4686 C   0  0  0  0  0  0  0  0  0  0  0  0
    1.4719   -7.8432    3.4577 C   0  0  2  0  0  0  0  0  0  0  0  0
    0.2889   -7.6300    2.5253 C   0  0  0  0  0  0  0  0  0  0  0  0
    0.3055   -6.9598    1.5006 O   0  0  0  0  0  0  0  0  0  0  0  0
   -0.9472   -8.3431    3.0907 C   0  0  0  0  0  0  0  0  0  0  0  0
   -2.1160   -7.3672    3.1944 C   0  0  0  0  0  0  0  0  0  0  0  0
   -1.3571   -9.5091    2.1883 C   0  0  0  0  0  0  0  0  0  0  0  0
   -0.4696   -8.8144    4.4840 C   0  0  0  0  0  0  0  0  0  0  0  0
    0.8075   -8.0004    4.8259 C   0  0  1  0  0  0  0  0  0  0  0  0
    0.3079   -6.7442    5.2583 O   0  0  0  0  0  0  0  0  0  0  0  0
    5.0489   -5.3117    9.8259 C   0  0  2  0  0  0  0  0  0  0  0  0
    6.0754   -6.0073   10.2995 O   0  0  0  0  0  0  0  0  0  0  0  0
    4.2277   -3.4419   11.8443 H   0  0  0  0  0  0  0  0  0  0  0  0
    5.1389   -2.0143   11.1058 H   0  0  0  0  0  0  0  0  0  0  0  0
    5.9440   -2.2508    8.7959 H   0  0  0  0  0  0  0  0  0  0  0  0
    7.9732   -2.8260   10.1812 H   0  0  0  0  0  0  0  0  0  0  0  0
    8.3152   -2.9309    8.4576 H   0  0  0  0  0  0  0  0  0  0  0  0
    8.0608   -4.4017    9.4063 H   0  0  0  0  0  0  0  0  0  0  0  0
    4.9306   -3.6635    7.3405 H   0  0  0  0  0  0  0  0  0  0  0  0
    6.5429   -4.2952    7.0494 H   0  0  0  0  0  0  0  0  0  0  0  0
    5.3254   -6.5990    6.7018 H   0  0  0  0  0  0  0  0  0  0  0  0
    4.8178   -7.4100    8.1390 H   0  0  0  0  0  0  0  0  0  0  0  0
    3.7641   -4.6700    5.9244 H   0  0  0  0  0  0  0  0  0  0  0  0
    2.2131   -5.2520    5.6168 H   0  0  0  0  0  0  0  0  0  0  0  0
    2.4618   -2.9615    6.5627 H   0  0  0  0  0  0  0  0  0  0  0  0
    1.0699   -3.8686    6.8039 H   0  0  0  0  0  0  0  0  0  0  0  0
    3.3345   -3.5320    8.7685 H   0  0  0  0  0  0  0  0  0  0  0  0
    1.9570   -0.4698    9.9395 H   0  0  0  0  0  0  0  0  0  0  0  0
    3.4862   -1.2474    9.5698 H   0  0  0  0  0  0  0  0  0  0  0  0
    2.3688   -1.9470   10.7598 H   0  0  0  0  0  0  0  0  0  0  0  0
    1.8213   -4.0274   10.5562 H   0  0  0  0  0  0  0  0  0  0  0  0
   -1.6525   -3.1018   10.1012 H   0  0  0  0  0  0  0  0  0  0  0  0
   -0.5433   -2.5343    8.8541 H   0  0  0  0  0  0  0  0  0  0  0  0
   -0.0784   -2.5099   10.5582 H   0  0  0  0  0  0  0  0  0  0  0  0
   -1.8996   -4.9718    8.5998 H   0  0  0  0  0  0  0  0  0  0  0  0
   -0.7271   -6.2312    8.4563 H   0  0  0  0  0  0  0  0  0  0  0  0
   -0.5760   -4.7793    7.4994 H   0  0  0  0  0  0  0  0  0  0  0  0
   -0.1953   -4.6672   11.8026 H   0  0  0  0  0  0  0  0  0  0  0  0
   -1.5853   -5.2906   10.9783 H   0  0  0  0  0  0  0  0  0  0  0  0
   -0.2129   -7.0927   12.0144 H   0  0  0  0  0  0  0  0  0  0  0  0
   -0.3018   -7.3182   10.2877 H   0  0  0  0  0  0  0  0  0  0  0  0
    1.7376   -5.8266   11.7786 H   0  0  0  0  0  0  0  0  0  0  0  0
    2.4575   -7.5698   12.6577 H   0  0  0  0  0  0  0  0  0  0  0  0
    3.5791  -10.2014   11.5802 H   0  0  0  0  0  0  0  0  0  0  0  0
    2.5914   -9.8517   13.0087 H   0  0  0  0  0  0  0  0  0  0  0  0
    1.2001  -12.6545   10.4675 H   0  0  0  0  0  0  0  0  0  0  0  0
    2.8062  -12.0118   10.1452 H   0  0  0  0  0  0  0  0  0  0  0  0
    1.3661  -11.0464    9.7708 H   0  0  0  0  0  0  0  0  0  0  0  0
    4.5975   -7.4317   11.8006 H   0  0  0  0  0  0  0  0  0  0  0  0
    4.1442   -8.0910   10.2469 H   0  0  0  0  0  0  0  0  0  0  0  0
    3.6587   -5.3527   11.3197 H   0  0  0  0  0  0  0  0  0  0  0  0
    1.2835   -6.3279    7.9220 H   0  0  0  0  0  0  0  0  0  0  0  0
    2.7573   -8.8174    8.6100 H   0  0  0  0  0  0  0  0  0  0  0  0
    1.1813   -8.4001    9.2530 H   0  0  0  0  0  0  0  0  0  0  0  0
    0.8437   -9.7468    7.4188 H   0  0  0  0  0  0  0  0  0  0  0  0
    0.0997   -8.2226    7.2420 H   0  0  0  0  0  0  0  0  0  0  0  0
    1.5164  -10.6569    5.2363 H   0  0  0  0  0  0  0  0  0  0  0  0
    2.9517   -9.9412    4.5895 H   0  0  0  0  0  0  0  0  0  0  0  0
    2.4689  -11.2532    6.9397 H   0  0  0  0  0  0  0  0  0  0  0  0
    3.8303   -8.2470    6.3497 H   0  0  0  0  0  0  0  0  0  0  0  0
    4.3847   -6.4209    4.6130 H   0  0  0  0  0  0  0  0  0  0  0  0
    4.1574   -8.0754    4.1822 H   0  0  0  0  0  0  0  0  0  0  0  0
    2.1971   -5.8012    3.5895 H   0  0  0  0  0  0  0  0  0  0  0  0
    3.0756   -6.7981    2.4919 H   0  0  0  0  0  0  0  0  0  0  0  0
    1.8960   -8.7924    3.1408 H   0  0  0  0  0  0  0  0  0  0  0  0
   -2.9857   -7.8225    3.6769 H   0  0  0  0  0  0  0  0  0  0  0  0
   -2.4321   -7.0714    2.2055 H   0  0  0  0  0  0  0  0  0  0  0  0
   -1.8352   -6.4761    3.7502 H   0  0  0  0  0  0  0  0  0  0  0  0
   -2.1811  -10.0603    2.6270 H   0  0  0  0  0  0  0  0  0  0  0  0
   -0.5344  -10.2037    2.0158 H   0  0  0  0  0  0  0  0  0  0  0  0
   -1.7099   -9.1353    1.2335 H   0  0  0  0  0  0  0  0  0  0  0  0
   -1.2563   -8.7188    5.2402 H   0  0  0  0  0  0  0  0  0  0  0  0
   -0.2435   -9.8750    4.4037 H   0  0  0  0  0  0  0  0  0  0  0  0
   -0.0805   -6.8849    6.1139 H   0  0  0  0  0  0  0  0  0  0  0  0
    6.2196   -5.8761    8.6271 H   0  0  0  0  0  0  0  0  0  0  0  0
  1  2  2  0
  1 49  1  0
  1 50  1  0
  2 47  1  0
  2  3  1  0
  3  4  1  0
  3  5  1  0
  3 51  1  6
  4 52  1  0
  4 53  1  0
  4 54  1  0
  5  6  1  0
  5 55  1  0
  5 56  1  0
  6 47  1  0
  6  7  1  0
  6111  1  1
  8  7  1  1
  7 57  1  0
  7 58  1  0
  8 29  1  0
  8 35  1  0
  8  9  1  0
  9 10  1  0
  9 59  1  0
  9 60  1  0
 10 11  1  0
 10 61  1  0
 10 62  1  0
 11 12  1  0
 11 14  1  0
 11 63  1  1
 12 13  1  0
 13 64  1  0
 13 65  1  0
 13 66  1  0
 28 14  1  6
 14 15  1  0
 14 67  1  1
 15 16  1  0
 15 17  1  0
 15 18  1  0
 16 68  1  0
 16 69  1  0
 16 70  1  0
 17 71  1  0
 17 72  1  0
 17 73  1  0
 18 19  1  0
 18 74  1  0
 18 75  1  0
 19 20  1  0
 19 76  1  0
 19 77  1  0
 20 28  1  0
 20 21  1  0
 20 78  1  1
 21 22  1  0
 21 26  1  0
 21 79  1  1
 22 23  1  0
 23 24  1  0
 23 80  1  0
 23 81  1  0
 24 25  1  0
 25 82  1  0
 25 83  1  0
 25 84  1  0
 26 27  1  0
 26 85  1  0
 26 86  1  0
 27 28  1  0
 27 47  1  0
 27 87  1  1
 28 29  1  0
 29 30  1  0
 29 88  1  6
 30 31  1  0
 30 89  1  0
 30 90  1  0
 31 32  1  0
 31 91  1  0
 31 92  1  0
 32 45  1  0
 32 33  1  6
 32 35  1  0
 33 34  1  0
 33 93  1  0
 33 94  1  0
 34 95  1  0
 35 36  1  0
 35 96  1  1
 36 37  1  0
 36 97  1  0
 36 98  1  0
 37 38  1  0
 37 99  1  0
 37100  1  0
 38 45  1  0
 38 39  1  0
 38101  1  6
 39 40  2  0
 39 41  1  0
 41 42  1  0
 41 43  1  0
 41 44  1  0
 42102  1  0
 42103  1  0
 42104  1  0
 43105  1  0
 43106  1  0
 43107  1  0
 44 45  1  0
 44108  1  0
 44109  1  0
 45 46  1  1
 46110  1  0
 47 48  1  1
M  CHG  2   6   1  48  -1
M  END
>  <i_m_ct_stereo_status>  (164) 
1

>  <s_m_source_file>  (164) 
/var/tmp/pbs.5076255.sched01/tmpdonsa7tf/408ubvndgu.sdf

>  <i_m_source_file_index>  (164) 
36

>  <i_lp_mmshare_version>  (164) 
48012

>  <i_f3d_flags>  (164) 
0

>  <s_epik_input>  (164) 
W0NIMl09QzFbQ0BASF0oW0NIM10pW0NIMl1OKFtDSDJdMilbQ0BdMShbT0hdKVtDQEBIXTNbQ0gyXVtDQEhdKE9bQ0gyXU9bQ0gzXSlbQ0BASF00W0NIMl1bQ0gyXUMoW0NIM10pKFtDSDNdKVtDQEhdKFtDQEBIXShbQ0gyXVtDSDJdNSlPW0NIM10pW0NAQF0zNFtDQEBIXShbQ0BdMjU2KVtDSDJdW0NIMl1bQ0BdNyhbQ0gyXVtPSF0pW0NASF02W0NIMl1bQ0gyXVtDQEhdOFtDQEBdNyhbT0hdKVtDSDJdQyhDOD1PKShbQ0gzXSlbQ0gzXQ==

>  <s_epik_cmdline>  (164) 
J2VwaWtfcHl0aG9uJywgJy1waHQnLCAnMi4wJywgJy1waCcsICc3LjAnLCAnLXRuJywgJzgnLCAnLW1hJywgJzIwMCcsICctaW1hZScsICc8aW5maWxlLm1hZT4nLCAnLW9tYWUnLCAnPG91dGZpbGUubWFlPic=

>  <r_epik_Ionization_Penalty>  (164) 
1.79958

>  <r_epik_Ionization_Penalty_Charging>  (164) 
1.79958

>  <r_epik_Ionization_Penalty_Neutral>  (164) 
8.85127e-07

>  <r_epik_State_Penalty>  (164) 
2.07251

>  <r_epik_Charging_Adjusted_Penalty>  (164) 
3.87208

>  <i_epik_Tot_Q>  (164) 
0

>  <i_epik_Tot_abs_Q>  (164) 
2

>  <s_epik_Chemistry_Notes>  (164) 
This compound contains an acetal/aminal-like group ( X-CH(R)-Y where X, Y are N, S, or O) that may be acid/base labile, releasing an aldehyde.

>  <s_lp_Force_Field>  (164) 
OPLS3e

>  <r_lp_Energy>  (164) 
167.341

>  <b_lp_Chiralities_Consistent>  (164) 
1

>  <s_lp_Variant>  (164) 
54:0-3

>  <s_i_glide_gridfile>  (164) 
pfpi4k_grid

>  <i_i_glide_lignum>  (164) 
36

>  <i_i_glide_rotatable_bonds>  (164) 
7

>  <r_i_docking_score>  (164) 
-2.32656

>  <r_i_glide_ligand_efficiency>  (164) 
-0.04847

>  <r_i_glide_ligand_efficiency_sa>  (164) 
-0.176152

>  <r_i_glide_ligand_efficiency_ln>  (164) 
-0.477615

>  <r_i_glide_gscore>  (164) 
-2.32656

>  <r_i_glide_lipo>  (164) 
-0.258951

>  <r_i_glide_hbond>  (164) 
-0.16

>  <r_i_glide_metal>  (164) 
-0

>  <r_i_glide_rewards>  (164) 
0

>  <r_i_glide_evdw>  (164) 
-21.4817

>  <r_i_glide_ecoul>  (164) 
-6.1755

>  <r_i_glide_erotb>  (164) 
0.142497

>  <r_i_glide_esite>  (164) 
-0.0496955

>  <r_i_glide_emodel>  (164) 
-29.8974

>  <r_i_glide_energy>  (164) 
-27.6572

>  <r_i_glide_einternal>  (164) 
3.53743

>  <r_i_glide_intrahb_reward>  (164) 
-0

>  <i_i_glide_confnum>  (164) 
3

>  <i_i_glide_posenum>  (164) 
2

>  <r_i_glide_eff_state_penalty>  (164) 
0

>  <ligand_id>  (164) 
54

>  <original_smiles>  (164) 
C=C1C(C)CN2CC34CCC(OC)C5C(C)(C)CCC6C(OCOC)CC(C65C3CCC3(CO)C4CCC4C(=O)C(C)(C)CC43O)C12O

>  <smiles>  (164) 
[H]OC([H])([H])C12C([H])([H])C([H])([H])C3([H])C45C6([H])C([H])([H])C([H])([H])C(C([H])([H])[H])(C([H])([H])[H])C4([H])C([H])(OC([H])([H])[H])C([H])([H])C([H])([H])C3(C1([H])C([H])([H])C([H])([H])C1([H])C(=O)C(C([H])([H])[H])(C([H])([H])[H])C([H])([H])C12O[H])C([H])([H])[N+]1([H])C([H])([H])C([H])(C([H])([H])[H])C(=C([H])[H])C1([O-])C5([H])C([H])([H])C6([H])OC([H])([H])OC([H])([H])[H]

$$$$
54:2:2
     RDKit          3D

111118  0  0  1  0  0  0  0  0999 V2000
    1.8006    1.0769    5.1549 C   0  0  0  0  0  0  0  0  0  0  0  0
    2.1700    0.3897    4.0787 C   0  0  0  0  0  0  0  0  0  0  0  0
    1.3218    0.3313    2.8223 C   0  0  1  0  0  0  0  0  0  0  0  0
    1.7591    1.3621    1.7706 C   0  0  0  0  0  0  0  0  0  0  0  0
    1.5052   -1.1137    2.3764 C   0  0  0  0  0  0  0  0  0  0  0  0
    2.8308   -1.5269    2.8889 N   0  0  2  0  0  0  0  0  0  0  0  0
    3.2920   -2.9281    2.7749 C   0  0  0  0  0  0  0  0  0  0  0  0
    2.7812   -4.0571    3.7400 C   0  0  2  0  0  0  0  0  0  0  0  0
    1.2235   -4.1116    3.7898 C   0  0  0  0  0  0  0  0  0  0  0  0
    0.3435   -3.5860    4.9455 C   0  0  0  0  0  0  0  0  0  0  0  0
    0.7265   -2.3237    5.7179 C   0  0  1  0  0  0  0  0  0  0  0  0
   -0.4328   -1.8241    6.3945 O   0  0  0  0  0  0  0  0  0  0  0  0
   -1.3362   -1.0177    5.6465 C   0  0  0  0  0  0  0  0  0  0  0  0
    1.9067   -2.4388    6.7261 C   0  0  1  0  0  0  0  0  0  0  0  0
    1.6842   -3.3423    8.0495 C   0  0  0  0  0  0  0  0  0  0  0  0
    0.3932   -2.9402    8.7984 C   0  0  0  0  0  0  0  0  0  0  0  0
    1.6238   -4.8899    7.9108 C   0  0  0  0  0  0  0  0  0  0  0  0
    2.8264   -3.0672    9.0538 C   0  0  0  0  0  0  0  0  0  0  0  0
    4.2184   -3.2850    8.4613 C   0  0  0  0  0  0  0  0  0  0  0  0
    4.3526   -2.4104    7.2184 C   0  0  1  0  0  0  0  0  0  0  0  0
    5.7520   -1.9990    6.7217 C   0  0  1  0  0  0  0  0  0  0  0  0
    6.7383   -3.0311    6.6529 O   0  0  0  0  0  0  0  0  0  0  0  0
    7.6340   -3.0918    7.7216 C   0  0  0  0  0  0  0  0  0  0  0  0
    8.5177   -2.0228    7.6818 O   0  0  0  0  0  0  0  0  0  0  0  0
    9.5598   -2.1070    8.6331 C   0  0  0  0  0  0  0  0  0  0  0  0
    5.4294   -1.4564    5.3296 C   0  0  0  0  0  0  0  0  0  0  0  0
    3.8845   -1.2870    5.2693 C   0  0  2  0  0  0  0  0  0  0  0  0
    3.3254   -2.5643    6.0256 C   0  0  2  0  0  0  0  0  0  0  0  0
    3.4162   -3.9303    5.1828 C   0  0  2  0  0  0  0  0  0  0  0  0
    4.7415   -4.7127    5.2871 C   0  0  0  0  0  0  0  0  0  0  0  0
    4.5249   -6.2133    5.1404 C   0  0  0  0  0  0  0  0  0  0  0  0
    3.9052   -6.6408    3.7914 C   0  0  2  0  0  0  0  0  0  0  0  0
    5.0664   -7.2784    2.9306 C   0  0  0  0  0  0  0  0  0  0  0  0
    6.1542   -6.4003    2.7150 O   0  0  0  0  0  0  0  0  0  0  0  0
    3.2713   -5.4149    2.9923 C   0  0  1  0  0  0  0  0  0  0  0  0
    2.4139   -5.9221    1.7614 C   0  0  0  0  0  0  0  0  0  0  0  0
    1.4266   -7.0974    2.0128 C   0  0  0  0  0  0  0  0  0  0  0  0
    2.1577   -8.2099    2.7632 C   0  0  2  0  0  0  0  0  0  0  0  0
    1.3836   -9.4431    3.1898 C   0  0  0  0  0  0  0  0  0  0  0  0
    0.3674   -9.8572    2.6388 O   0  0  0  0  0  0  0  0  0  0  0  0
    2.0432  -10.0909    4.4108 C   0  0  0  0  0  0  0  0  0  0  0  0
    1.0168  -10.2533    5.5478 C   0  0  0  0  0  0  0  0  0  0  0  0
    2.6252  -11.4707    4.0356 C   0  0  0  0  0  0  0  0  0  0  0  0
    3.1563   -9.0616    4.7718 C   0  0  0  0  0  0  0  0  0  0  0  0
    2.7936   -7.7218    4.0678 C   0  0  1  0  0  0  0  0  0  0  0  0
    1.8063   -7.1280    4.8998 O   0  0  0  0  0  0  0  0  0  0  0  0
    3.3079   -0.6442    3.9535 C   0  0  2  0  0  0  0  0  0  0  0  0
    4.2889   -0.0610    3.3202 O   0  0  0  0  0  0  0  0  0  0  0  0
    2.3555    1.0544    6.0795 H   0  0  0  0  0  0  0  0  0  0  0  0
    0.9094    1.6947    5.1289 H   0  0  0  0  0  0  0  0  0  0  0  0
    0.2783    0.5194    3.0740 H   0  0  0  0  0  0  0  0  0  0  0  0
    1.7104    2.3788    2.1650 H   0  0  0  0  0  0  0  0  0  0  0  0
    1.0956    1.3096    0.9061 H   0  0  0  0  0  0  0  0  0  0  0  0
    2.7840    1.1947    1.4318 H   0  0  0  0  0  0  0  0  0  0  0  0
    0.7260   -1.6916    2.8461 H   0  0  0  0  0  0  0  0  0  0  0  0
    1.4267   -1.2404    1.2956 H   0  0  0  0  0  0  0  0  0  0  0  0
    3.1020   -3.2017    1.7369 H   0  0  0  0  0  0  0  0  0  0  0  0
    4.3749   -2.8730    2.8593 H   0  0  0  0  0  0  0  0  0  0  0  0
    0.8203   -3.7657    2.8471 H   0  0  0  0  0  0  0  0  0  0  0  0
    0.9433   -5.1531    3.7885 H   0  0  0  0  0  0  0  0  0  0  0  0
   -0.5867   -3.3493    4.4669 H   0  0  0  0  0  0  0  0  0  0  0  0
    0.0552   -4.3961    5.6047 H   0  0  0  0  0  0  0  0  0  0  0  0
    0.9985   -1.5758    4.9963 H   0  0  0  0  0  0  0  0  0  0  0  0
   -2.0985   -0.6082    6.3095 H   0  0  0  0  0  0  0  0  0  0  0  0
   -1.8558   -1.5843    4.8758 H   0  0  0  0  0  0  0  0  0  0  0  0
   -0.8362   -0.1654    5.1915 H   0  0  0  0  0  0  0  0  0  0  0  0
    1.9068   -1.4262    7.1339 H   0  0  0  0  0  0  0  0  0  0  0  0
    0.3752   -3.3450    9.8109 H   0  0  0  0  0  0  0  0  0  0  0  0
   -0.4950   -3.3198    8.2956 H   0  0  0  0  0  0  0  0  0  0  0  0
    0.3136   -1.8580    8.8875 H   0  0  0  0  0  0  0  0  0  0  0  0
    1.3446   -5.3451    8.8616 H   0  0  0  0  0  0  0  0  0  0  0  0
    2.5840   -5.3335    7.6636 H   0  0  0  0  0  0  0  0  0  0  0  0
    0.9088   -5.2606    7.1899 H   0  0  0  0  0  0  0  0  0  0  0  0
    2.7530   -2.0371    9.4046 H   0  0  0  0  0  0  0  0  0  0  0  0
    2.7207   -3.6920    9.9411 H   0  0  0  0  0  0  0  0  0  0  0  0
    4.9558   -2.9839    9.2066 H   0  0  0  0  0  0  0  0  0  0  0  0
    4.3977   -4.3343    8.2520 H   0  0  0  0  0  0  0  0  0  0  0  0
    4.0670   -1.4639    7.6791 H   0  0  0  0  0  0  0  0  0  0  0  0
    6.1151   -1.1695    7.3332 H   0  0  0  0  0  0  0  0  0  0  0  0
    7.1192   -3.1138    8.6816 H   0  0  0  0  0  0  0  0  0  0  0  0
    8.1828   -4.0327    7.6368 H   0  0  0  0  0  0  0  0  0  0  0  0
   10.2246   -1.2526    8.5046 H   0  0  0  0  0  0  0  0  0  0  0  0
   10.1567   -3.0103    8.5010 H   0  0  0  0  0  0  0  0  0  0  0  0
    9.1748   -2.0834    9.6535 H   0  0  0  0  0  0  0  0  0  0  0  0
    5.9560   -0.5135    5.1766 H   0  0  0  0  0  0  0  0  0  0  0  0
    5.7825   -2.1345    4.5577 H   0  0  0  0  0  0  0  0  0  0  0  0
    3.7603   -0.4483    5.9422 H   0  0  0  0  0  0  0  0  0  0  0  0
    2.7594   -4.5885    5.7236 H   0  0  0  0  0  0  0  0  0  0  0  0
    5.4938   -4.3622    4.5800 H   0  0  0  0  0  0  0  0  0  0  0  0
    5.1648   -4.6364    6.2787 H   0  0  0  0  0  0  0  0  0  0  0  0
    5.4864   -6.6987    5.2771 H   0  0  0  0  0  0  0  0  0  0  0  0
    3.9341   -6.5690    5.9842 H   0  0  0  0  0  0  0  0  0  0  0  0
    5.4825   -8.1596    3.4115 H   0  0  0  0  0  0  0  0  0  0  0  0
    4.7299   -7.6059    1.9497 H   0  0  0  0  0  0  0  0  0  0  0  0
    6.8354   -6.8658    2.2434 H   0  0  0  0  0  0  0  0  0  0  0  0
    4.1507   -5.0349    2.4785 H   0  0  0  0  0  0  0  0  0  0  0  0
    1.8795   -5.1012    1.2951 H   0  0  0  0  0  0  0  0  0  0  0  0
    3.1140   -6.2696    0.9959 H   0  0  0  0  0  0  0  0  0  0  0  0
    0.5273   -6.7949    2.5466 H   0  0  0  0  0  0  0  0  0  0  0  0
    1.0640   -7.4870    1.0605 H   0  0  0  0  0  0  0  0  0  0  0  0
    2.9165   -8.6111    2.0959 H   0  0  0  0  0  0  0  0  0  0  0  0
    1.5153  -10.5857    6.4564 H   0  0  0  0  0  0  0  0  0  0  0  0
    0.2505  -10.9904    5.3011 H   0  0  0  0  0  0  0  0  0  0  0  0
    0.4981   -9.3238    5.7801 H   0  0  0  0  0  0  0  0  0  0  0  0
    3.1966  -11.9003    4.8589 H   0  0  0  0  0  0  0  0  0  0  0  0
    3.2808  -11.4150    3.1652 H   0  0  0  0  0  0  0  0  0  0  0  0
    1.8369  -12.1837    3.7892 H   0  0  0  0  0  0  0  0  0  0  0  0
    3.2790   -8.9485    5.8512 H   0  0  0  0  0  0  0  0  0  0  0  0
    4.0984   -9.4559    4.3966 H   0  0  0  0  0  0  0  0  0  0  0  0
    1.1920   -7.8065    5.1494 H   0  0  0  0  0  0  0  0  0  0  0  0
    3.4419   -1.0505    2.2330 H   0  0  0  0  0  0  0  0  0  0  0  0
  1  2  2  0
  1 49  1  0
  1 50  1  0
  2 47  1  0
  2  3  1  0
  3  4  1  0
  3  5  1  0
  3 51  1  1
  4 52  1  0
  4 53  1  0
  4 54  1  0
  5  6  1  0
  5 55  1  0
  5 56  1  0
  6 47  1  0
  6  7  1  0
  6111  1  6
  8  7  1  6
  7 57  1  0
  7 58  1  0
  8 29  1  0
  8 35  1  0
  8  9  1  0
  9 10  1  0
  9 59  1  0
  9 60  1  0
 10 11  1  0
 10 61  1  0
 10 62  1  0
 11 12  1  0
 11 14  1  0
 11 63  1  6
 12 13  1  0
 13 64  1  0
 13 65  1  0
 13 66  1  0
 28 14  1  1
 14 15  1  0
 14 67  1  1
 15 16  1  0
 15 17  1  0
 15 18  1  0
 16 68  1  0
 16 69  1  0
 16 70  1  0
 17 71  1  0
 17 72  1  0
 17 73  1  0
 18 19  1  0
 18 74  1  0
 18 75  1  0
 19 20  1  0
 19 76  1  0
 19 77  1  0
 20 28  1  0
 20 21  1  0
 20 78  1  1
 21 22  1  0
 21 26  1  0
 21 79  1  1
 22 23  1  0
 23 24  1  0
 23 80  1  0
 23 81  1  0
 24 25  1  0
 25 82  1  0
 25 83  1  0
 25 84  1  0
 26 27  1  0
 26 85  1  0
 26 86  1  0
 27 28  1  0
 27 47  1  0
 27 87  1  1
 28 29  1  0
 29 30  1  0
 29 88  1  1
 30 31  1  0
 30 89  1  0
 30 90  1  0
 31 32  1  0
 31 91  1  0
 31 92  1  0
 32 45  1  0
 32 33  1  6
 32 35  1  0
 33 34  1  0
 33 93  1  0
 33 94  1  0
 34 95  1  0
 35 36  1  0
 35 96  1  6
 36 37  1  0
 36 97  1  0
 36 98  1  0
 37 38  1  0
 37 99  1  0
 37100  1  0
 38 45  1  0
 38 39  1  0
 38101  1  6
 39 40  2  0
 39 41  1  0
 41 42  1  0
 41 43  1  0
 41 44  1  0
 42102  1  0
 42103  1  0
 42104  1  0
 43105  1  0
 43106  1  0
 43107  1  0
 44 45  1  0
 44108  1  0
 44109  1  0
 45 46  1  1
 46110  1  0
 47 48  1  6
M  CHG  2   6   1  48  -1
M  END
>  <i_m_ct_stereo_status>  (165) 
1

>  <s_m_source_file>  (165) 
/var/tmp/pbs.5076255.sched01/tmpdonsa7tf/408ubvndgu.sdf

>  <i_m_source_file_index>  (165) 
36

>  <i_lp_mmshare_version>  (165) 
48012

>  <i_f3d_flags>  (165) 
0

>  <s_epik_input>  (165) 
W0NIMl09QzFbQ0BASF0oW0NIM10pW0NIMl1OKFtDSDJdMilbQ0BdMShbT0hdKVtDQEBIXTNbQ0gyXVtDQEhdKE9bQ0gyXU9bQ0gzXSlbQ0BASF00W0NIMl1bQ0gyXUMoW0NIM10pKFtDSDNdKVtDQEhdKFtDQEBIXShbQ0gyXVtDSDJdNSlPW0NIM10pW0NAQF0zNFtDQEBIXShbQ0BdMjU2KVtDSDJdW0NIMl1bQ0BdNyhbQ0gyXVtPSF0pW0NASF02W0NIMl1bQ0gyXVtDQEhdOFtDQEBdNyhbT0hdKVtDSDJdQyhDOD1PKShbQ0gzXSlbQ0gzXQ==

>  <s_epik_cmdline>  (165) 
J2VwaWtfcHl0aG9uJywgJy1waHQnLCAnMi4wJywgJy1waCcsICc3LjAnLCAnLXRuJywgJzgnLCAnLW1hJywgJzIwMCcsICctaW1hZScsICc8aW5maWxlLm1hZT4nLCAnLW9tYWUnLCAnPG91dGZpbGUubWFlPic=

>  <r_epik_Ionization_Penalty>  (165) 
1.79958

>  <r_epik_Ionization_Penalty_Charging>  (165) 
1.79958

>  <r_epik_Ionization_Penalty_Neutral>  (165) 
8.85127e-07

>  <r_epik_State_Penalty>  (165) 
2.07251

>  <r_epik_Charging_Adjusted_Penalty>  (165) 
3.87208

>  <i_epik_Tot_Q>  (165) 
0

>  <i_epik_Tot_abs_Q>  (165) 
2

>  <s_epik_Chemistry_Notes>  (165) 
This compound contains an acetal/aminal-like group ( X-CH(R)-Y where X, Y are N, S, or O) that may be acid/base labile, releasing an aldehyde.

>  <s_lp_Force_Field>  (165) 
OPLS3e

>  <r_lp_Energy>  (165) 
167.341

>  <b_lp_Chiralities_Consistent>  (165) 
1

>  <s_lp_Variant>  (165) 
54:0-3

>  <s_i_glide_gridfile>  (165) 
pfpi4k_grid

>  <i_i_glide_lignum>  (165) 
36

>  <i_i_glide_rotatable_bonds>  (165) 
7

>  <r_i_docking_score>  (165) 
-1.86553

>  <r_i_glide_ligand_efficiency>  (165) 
-0.0388653

>  <r_i_glide_ligand_efficiency_sa>  (165) 
-0.141246

>  <r_i_glide_ligand_efficiency_ln>  (165) 
-0.382972

>  <r_i_glide_gscore>  (165) 
-1.86553

>  <r_i_glide_lipo>  (165) 
-0.118076

>  <r_i_glide_hbond>  (165) 
0

>  <r_i_glide_metal>  (165) 
-0

>  <r_i_glide_rewards>  (165) 
-0.0286933

>  <r_i_glide_evdw>  (165) 
-26.8708

>  <r_i_glide_ecoul>  (165) 
-3.41343

>  <r_i_glide_erotb>  (165) 
0.142497

>  <r_i_glide_esite>  (165) 
-0.0057041

>  <r_i_glide_emodel>  (165) 
-31.9725

>  <r_i_glide_energy>  (165) 
-30.2843

>  <r_i_glide_einternal>  (165) 
3.7232

>  <r_i_glide_intrahb_reward>  (165) 
-0

>  <i_i_glide_confnum>  (165) 
3

>  <i_i_glide_posenum>  (165) 
11

>  <r_i_glide_eff_state_penalty>  (165) 
0

>  <ligand_id>  (165) 
54

>  <original_smiles>  (165) 
C=C1C(C)CN2CC34CCC(OC)C5C(C)(C)CCC6C(OCOC)CC(C65C3CCC3(CO)C4CCC4C(=O)C(C)(C)CC43O)C12O

>  <smiles>  (165) 
[H]OC([H])([H])C12C([H])([H])C([H])([H])C3([H])C45C6([H])C([H])([H])C([H])([H])C(C([H])([H])[H])(C([H])([H])[H])C4([H])C([H])(OC([H])([H])[H])C([H])([H])C([H])([H])C3(C1([H])C([H])([H])C([H])([H])C1([H])C(=O)C(C([H])([H])[H])(C([H])([H])[H])C([H])([H])C12O[H])C([H])([H])[N+]1([H])C([H])([H])C([H])(C([H])([H])[H])C(=C([H])[H])C1([O-])C5([H])C([H])([H])C6([H])OC([H])([H])OC([H])([H])[H]

$$$$
55:0:0
     RDKit          3D

 35 37  0  0  1  0  0  0  0  0999 V2000
    8.6130   -6.5910    0.6457 C   0  0  0  0  0  0  0  0  0  0  0  0
    8.5959   -5.2862    0.0800 O   0  0  0  0  0  0  0  0  0  0  0  0
    7.7073   -4.3820    0.7204 C   0  0  2  0  0  0  0  0  0  0  0  0
    6.2378   -4.8595    0.5970 C   0  0  0  0  0  0  0  0  0  0  0  0
    5.2497   -3.8285    1.1560 C   0  0  0  0  0  0  0  0  0  0  0  0
    5.4322   -2.4413    0.4983 C   0  0  2  0  0  0  0  0  0  0  0  0
    6.8935   -1.9700    0.6183 C   0  0  0  0  0  0  0  0  0  0  0  0
    7.9057   -2.9960    0.0673 C   0  0  0  0  0  0  0  0  0  0  0  0
    4.5590   -1.4190    1.1506 N   0  0  0  0  0  0  0  0  0  0  0  0
    3.4725   -0.9674    0.2470 C   0  0  0  0  0  0  0  0  0  0  0  0
    3.8573   -1.5754   -1.0756 C   0  0  0  0  0  0  0  0  0  0  0  0
    3.2623   -1.4100   -2.3368 C   0  0  0  0  0  0  0  0  0  0  0  0
    3.8088   -2.1461   -3.4098 C   0  0  0  0  0  0  0  0  0  0  0  0
    4.9069   -3.0000   -3.1471 C   0  0  0  0  0  0  0  0  0  0  0  0
    5.4865   -3.1280   -1.9384 N   0  0  0  0  0  0  0  0  0  0  0  0
    4.9421   -2.4211   -0.9318 C   0  0  0  0  0  0  0  0  0  0  0  0
    9.2515   -7.2051    0.0091 H   0  0  0  0  0  0  0  0  0  0  0  0
    7.6630   -7.1050    0.6544 H   0  0  0  0  0  0  0  0  0  0  0  0
    9.0145   -6.5665    1.6638 H   0  0  0  0  0  0  0  0  0  0  0  0
    7.9756   -4.3055    1.7719 H   0  0  0  0  0  0  0  0  0  0  0  0
    6.0066   -5.0898   -0.4405 H   0  0  0  0  0  0  0  0  0  0  0  0
    6.0494   -5.7869    1.1339 H   0  0  0  0  0  0  0  0  0  0  0  0
    4.2287   -4.1903    1.0234 H   0  0  0  0  0  0  0  0  0  0  0  0
    5.4129   -3.7687    2.2331 H   0  0  0  0  0  0  0  0  0  0  0  0
    7.0242   -1.0074    0.1215 H   0  0  0  0  0  0  0  0  0  0  0  0
    7.0970   -1.7940    1.6728 H   0  0  0  0  0  0  0  0  0  0  0  0
    8.9254   -2.6381    0.2151 H   0  0  0  0  0  0  0  0  0  0  0  0
    7.8111   -3.0844   -1.0148 H   0  0  0  0  0  0  0  0  0  0  0  0
    4.1907   -1.7406    2.0356 H   0  0  0  0  0  0  0  0  0  0  0  0
    2.5155   -1.3614    0.5952 H   0  0  0  0  0  0  0  0  0  0  0  0
    3.4675    0.1210    0.2060 H   0  0  0  0  0  0  0  0  0  0  0  0
    2.4158   -0.7521   -2.4750 H   0  0  0  0  0  0  0  0  0  0  0  0
    3.3939   -2.0641   -4.4012 H   0  0  0  0  0  0  0  0  0  0  0  0
    5.3654   -3.5777   -3.9339 H   0  0  0  0  0  0  0  0  0  0  0  0
    5.1499   -0.6100    1.2963 H   0  0  0  0  0  0  0  0  0  0  0  0
  1  2  1  0
  1 17  1  0
  1 18  1  0
  1 19  1  0
  2  3  1  0
  3  8  1  0
  3  4  1  0
  3 20  1  1
  4  5  1  0
  4 21  1  0
  4 22  1  0
  6  5  1  1
  5 23  1  0
  5 24  1  0
  6 16  1  0
  6  7  1  0
  6  9  1  0
  7  8  1  0
  7 25  1  0
  7 26  1  0
  8 27  1  0
  8 28  1  0
  9 10  1  0
  9 29  1  0
  9 35  1  0
 10 11  1  0
 10 30  1  0
 10 31  1  0
 11 16  2  0
 11 12  1  0
 12 13  2  0
 12 32  1  0
 13 14  1  0
 13 33  1  0
 14 15  2  0
 14 34  1  0
 15 16  1  0
M  CHG  1   9   1
M  END
>  <i_m_ct_stereo_status>  (166) 
1

>  <s_m_source_file>  (166) 
/var/tmp/pbs.5076255.sched01/tmpdonsa7tf/408ubvndgu.sdf

>  <i_m_source_file_index>  (166) 
37

>  <i_lp_mmshare_version>  (166) 
48012

>  <i_f3d_flags>  (166) 
0

>  <s_epik_input>  (166) 
W0NIM11PW0NAQEhdKFtDSDJdW0NIMl0xKVtDSDJdW0NIMl1bQ0BdMTJjM2MoW0NIMl1bTkhdMilbY0hdW2NIXVtjSF1uMw==

>  <s_epik_cmdline>  (166) 
J2VwaWtfcHl0aG9uJywgJy1waHQnLCAnMi4wJywgJy1waCcsICc3LjAnLCAnLXRuJywgJzgnLCAnLW1hJywgJzIwMCcsICctaW1hZScsICc8aW5maWxlLm1hZT4nLCAnLW9tYWUnLCAnPG91dGZpbGUubWFlPic=

>  <r_epik_Ionization_Penalty>  (166) 
0.0319152

>  <r_epik_Ionization_Penalty_Charging>  (166) 
0.0317952

>  <r_epik_Ionization_Penalty_Neutral>  (166) 
0.000120004

>  <r_epik_State_Penalty>  (166) 
0.0263005

>  <r_epik_Charging_Adjusted_Penalty>  (166) 
0.0580957

>  <i_epik_Tot_Q>  (166) 
1

>  <i_epik_Tot_abs_Q>  (166) 
1

>  <s_lp_Force_Field>  (166) 
OPLS3e

>  <r_lp_Energy>  (166) 
25.2386

>  <b_lp_Chiralities_Consistent>  (166) 
1

>  <s_lp_Variant>  (166) 
55:0-1

>  <s_i_glide_gridfile>  (166) 
pfpi4k_grid

>  <i_i_glide_lignum>  (166) 
37

>  <i_i_glide_rotatable_bonds>  (166) 
1

>  <r_i_docking_score>  (166) 
-4.22497

>  <r_i_glide_ligand_efficiency>  (166) 
-0.264061

>  <r_i_glide_ligand_efficiency_sa>  (166) 
-0.665391

>  <r_i_glide_ligand_efficiency_ln>  (166) 
-1.11991

>  <r_i_glide_gscore>  (166) 
-4.22497

>  <r_i_glide_lipo>  (166) 
-0.896641

>  <r_i_glide_hbond>  (166) 
0

>  <r_i_glide_metal>  (166) 
-0

>  <r_i_glide_rewards>  (166) 
-1.91384

>  <r_i_glide_evdw>  (166) 
-18.0736

>  <r_i_glide_ecoul>  (166) 
-3.40535

>  <r_i_glide_erotb>  (166) 
0

>  <r_i_glide_esite>  (166) 
0

>  <r_i_glide_emodel>  (166) 
-30.8536

>  <r_i_glide_energy>  (166) 
-21.479

>  <r_i_glide_einternal>  (166) 
1.05126

>  <r_i_glide_intrahb_reward>  (166) 
-0

>  <i_i_glide_confnum>  (166) 
2

>  <i_i_glide_posenum>  (166) 
1

>  <r_i_glide_eff_state_penalty>  (166) 
0

>  <ligand_id>  (166) 
55

>  <original_smiles>  (166) 
COC1CCC2(CC1)NCc1cccnc12

>  <smiles>  (166) 
[H]c1nc2c(c([H])c1[H])C([H])([H])[N+]([H])([H])C21C([H])([H])C([H])([H])C([H])(OC([H])([H])[H])C([H])([H])C1([H])[H]

$$$$
55:0:1
     RDKit          3D

 35 37  0  0  1  0  0  0  0  0999 V2000
   -0.1025   -7.0683    1.6518 C   0  0  0  0  0  0  0  0  0  0  0  0
   -1.0298   -7.7084    2.5341 O   0  0  0  0  0  0  0  0  0  0  0  0
   -0.5002   -8.7174    3.4050 C   0  0  2  0  0  0  0  0  0  0  0  0
    0.5942   -8.1510    4.3452 C   0  0  0  0  0  0  0  0  0  0  0  0
    1.2356   -9.2291    5.2297 C   0  0  0  0  0  0  0  0  0  0  0  0
    1.7531  -10.4279    4.3927 C   0  0  2  0  0  0  0  0  0  0  0  0
    0.6164  -11.0221    3.5233 C   0  0  0  0  0  0  0  0  0  0  0  0
   -0.0377   -9.9703    2.6172 C   0  0  0  0  0  0  0  0  0  0  0  0
    2.2706  -11.5062    5.2793 N   0  0  0  0  0  0  0  0  0  0  0  0
    3.7408  -11.6814    5.1663 C   0  0  0  0  0  0  0  0  0  0  0  0
    4.1033  -10.8054    4.0021 C   0  0  0  0  0  0  0  0  0  0  0  0
    5.3386  -10.6285    3.3628 C   0  0  0  0  0  0  0  0  0  0  0  0
    5.3876   -9.6994    2.2978 C   0  0  0  0  0  0  0  0  0  0  0  0
    4.2113   -9.0097    1.9409 C   0  0  0  0  0  0  0  0  0  0  0  0
    3.0300   -9.1930    2.5784 N   0  0  0  0  0  0  0  0  0  0  0  0
    2.9912  -10.0835    3.5728 C   0  0  0  0  0  0  0  0  0  0  0  0
   -0.6328   -6.4113    0.9632 H   0  0  0  0  0  0  0  0  0  0  0  0
    0.4772   -7.7556    1.0330 H   0  0  0  0  0  0  0  0  0  0  0  0
    0.5992   -6.4401    2.1973 H   0  0  0  0  0  0  0  0  0  0  0  0
   -1.3201   -9.0469    4.0480 H   0  0  0  0  0  0  0  0  0  0  0  0
    1.4113   -7.7096    3.7923 H   0  0  0  0  0  0  0  0  0  0  0  0
    0.1947   -7.3285    4.9402 H   0  0  0  0  0  0  0  0  0  0  0  0
    2.0568   -8.7862    5.7954 H   0  0  0  0  0  0  0  0  0  0  0  0
    0.4912   -9.5610    5.9541 H   0  0  0  0  0  0  0  0  0  0  0  0
    0.9981  -11.8385    2.9006 H   0  0  0  0  0  0  0  0  0  0  0  0
   -0.1622  -11.4409    4.1602 H   0  0  0  0  0  0  0  0  0  0  0  0
   -0.8678  -10.3959    2.0498 H   0  0  0  0  0  0  0  0  0  0  0  0
    0.7017   -9.7308    1.8640 H   0  0  0  0  0  0  0  0  0  0  0  0
    1.9523  -11.4608    6.2572 H   0  0  0  0  0  0  0  0  0  0  0  0
    4.2191  -11.3276    6.0811 H   0  0  0  0  0  0  0  0  0  0  0  0
    3.9858  -12.7252    4.9592 H   0  0  0  0  0  0  0  0  0  0  0  0
    6.2074  -11.1868    3.6705 H   0  0  0  0  0  0  0  0  0  0  0  0
    6.3057   -9.5246    1.7526 H   0  0  0  0  0  0  0  0  0  0  0  0
    4.2006   -8.2950    1.1283 H   0  0  0  0  0  0  0  0  0  0  0  0
    1.8851  -12.3573    4.9121 H   0  0  0  0  0  0  0  0  0  0  0  0
  1  2  1  0
  1 17  1  0
  1 18  1  0
  1 19  1  0
  2  3  1  0
  3  8  1  0
  3  4  1  0
  3 20  1  1
  4  5  1  0
  4 21  1  0
  4 22  1  0
  6  5  1  1
  5 23  1  0
  5 24  1  0
  6 16  1  0
  6  7  1  0
  6  9  1  0
  7  8  1  0
  7 25  1  0
  7 26  1  0
  8 27  1  0
  8 28  1  0
  9 10  1  0
  9 29  1  0
  9 35  1  0
 10 11  1  0
 10 30  1  0
 10 31  1  0
 11 16  2  0
 11 12  1  0
 12 13  2  0
 12 32  1  0
 13 14  1  0
 13 33  1  0
 14 15  2  0
 14 34  1  0
 15 16  1  0
M  CHG  1   9   1
M  END
>  <i_m_ct_stereo_status>  (167) 
1

>  <s_m_source_file>  (167) 
/var/tmp/pbs.5076255.sched01/tmpdonsa7tf/408ubvndgu.sdf

>  <i_m_source_file_index>  (167) 
37

>  <i_lp_mmshare_version>  (167) 
48012

>  <i_f3d_flags>  (167) 
0

>  <s_epik_input>  (167) 
W0NIM11PW0NAQEhdKFtDSDJdW0NIMl0xKVtDSDJdW0NIMl1bQ0BdMTJjM2MoW0NIMl1bTkhdMilbY0hdW2NIXVtjSF1uMw==

>  <s_epik_cmdline>  (167) 
J2VwaWtfcHl0aG9uJywgJy1waHQnLCAnMi4wJywgJy1waCcsICc3LjAnLCAnLXRuJywgJzgnLCAnLW1hJywgJzIwMCcsICctaW1hZScsICc8aW5maWxlLm1hZT4nLCAnLW9tYWUnLCAnPG91dGZpbGUubWFlPic=

>  <r_epik_Ionization_Penalty>  (167) 
0.0319152

>  <r_epik_Ionization_Penalty_Charging>  (167) 
0.0317952

>  <r_epik_Ionization_Penalty_Neutral>  (167) 
0.000120004

>  <r_epik_State_Penalty>  (167) 
0.0263005

>  <r_epik_Charging_Adjusted_Penalty>  (167) 
0.0580957

>  <i_epik_Tot_Q>  (167) 
1

>  <i_epik_Tot_abs_Q>  (167) 
1

>  <s_lp_Force_Field>  (167) 
OPLS3e

>  <r_lp_Energy>  (167) 
25.2386

>  <b_lp_Chiralities_Consistent>  (167) 
1

>  <s_lp_Variant>  (167) 
55:0-1

>  <s_i_glide_gridfile>  (167) 
pfpi4k_grid

>  <i_i_glide_lignum>  (167) 
37

>  <i_i_glide_rotatable_bonds>  (167) 
1

>  <r_i_docking_score>  (167) 
-4.0416

>  <r_i_glide_ligand_efficiency>  (167) 
-0.2526

>  <r_i_glide_ligand_efficiency_sa>  (167) 
-0.636511

>  <r_i_glide_ligand_efficiency_ln>  (167) 
-1.07131

>  <r_i_glide_gscore>  (167) 
-4.0416

>  <r_i_glide_lipo>  (167) 
-0.107972

>  <r_i_glide_hbond>  (167) 
-0.184338

>  <r_i_glide_metal>  (167) 
-0

>  <r_i_glide_rewards>  (167) 
-1.91384

>  <r_i_glide_evdw>  (167) 
-16.4583

>  <r_i_glide_ecoul>  (167) 
-6.0835

>  <r_i_glide_erotb>  (167) 
0

>  <r_i_glide_esite>  (167) 
-0.1

>  <r_i_glide_emodel>  (167) 
-30.2075

>  <r_i_glide_energy>  (167) 
-22.5418

>  <r_i_glide_einternal>  (167) 
3.48907

>  <r_i_glide_intrahb_reward>  (167) 
-0

>  <i_i_glide_confnum>  (167) 
4

>  <i_i_glide_posenum>  (167) 
5

>  <r_i_glide_eff_state_penalty>  (167) 
0

>  <ligand_id>  (167) 
55

>  <original_smiles>  (167) 
COC1CCC2(CC1)NCc1cccnc12

>  <smiles>  (167) 
[H]c1nc2c(c([H])c1[H])C([H])([H])[N+]([H])([H])C21C([H])([H])C([H])([H])C([H])(OC([H])([H])[H])C([H])([H])C1([H])[H]

$$$$
55:0:2
     RDKit          3D

 35 37  0  0  1  0  0  0  0  0999 V2000
    8.3131   -6.6420    0.9579 C   0  0  0  0  0  0  0  0  0  0  0  0
    8.2919   -5.3692    0.3240 O   0  0  0  0  0  0  0  0  0  0  0  0
    7.8431   -4.2975    1.1482 C   0  0  2  0  0  0  0  0  0  0  0  0
    6.3266   -4.4069    1.4622 C   0  0  0  0  0  0  0  0  0  0  0  0
    5.4804   -4.2514    0.1885 C   0  0  0  0  0  0  0  0  0  0  0  0
    5.7930   -2.9326   -0.5571 C   0  0  2  0  0  0  0  0  0  0  0  0
    7.2989   -2.8277   -0.8729 C   0  0  0  0  0  0  0  0  0  0  0  0
    8.1481   -2.9793    0.3957 C   0  0  0  0  0  0  0  0  0  0  0  0
    5.3754   -1.7515    0.2512 N   0  0  0  0  0  0  0  0  0  0  0  0
    4.2163   -1.0468   -0.3406 C   0  0  0  0  0  0  0  0  0  0  0  0
    4.0848   -1.7035   -1.6784 C   0  0  0  0  0  0  0  0  0  0  0  0
    3.2182   -1.3840   -2.7307 C   0  0  0  0  0  0  0  0  0  0  0  0
    3.2781   -2.2124   -3.8724 C   0  0  0  0  0  0  0  0  0  0  0  0
    4.1813   -3.3024   -3.8786 C   0  0  0  0  0  0  0  0  0  0  0  0
    5.0347   -3.5768   -2.8710 N   0  0  0  0  0  0  0  0  0  0  0  0
    4.9505   -2.7701   -1.7952 C   0  0  0  0  0  0  0  0  0  0  0  0
    8.6118   -7.4006    0.2343 H   0  0  0  0  0  0  0  0  0  0  0  0
    7.3450   -6.9628    1.3386 H   0  0  0  0  0  0  0  0  0  0  0  0
    9.0120   -6.6404    1.7915 H   0  0  0  0  0  0  0  0  0  0  0  0
    8.4231   -4.3042    2.0691 H   0  0  0  0  0  0  0  0  0  0  0  0
    6.0647   -5.3381    1.9603 H   0  0  0  0  0  0  0  0  0  0  0  0
    6.0453   -3.6435    2.1835 H   0  0  0  0  0  0  0  0  0  0  0  0
    5.6967   -5.0906   -0.4780 H   0  0  0  0  0  0  0  0  0  0  0  0
    4.4175   -4.3378    0.4243 H   0  0  0  0  0  0  0  0  0  0  0  0
    7.5895   -3.5901   -1.5974 H   0  0  0  0  0  0  0  0  0  0  0  0
    7.5112   -1.8747   -1.3490 H   0  0  0  0  0  0  0  0  0  0  0  0
    7.9251   -2.1314    1.0397 H   0  0  0  0  0  0  0  0  0  0  0  0
    9.2111   -2.9028    0.1578 H   0  0  0  0  0  0  0  0  0  0  0  0
    5.2031   -2.0065    1.2091 H   0  0  0  0  0  0  0  0  0  0  0  0
    3.3231   -1.2103    0.2625 H   0  0  0  0  0  0  0  0  0  0  0  0
    4.4269    0.0155   -0.4406 H   0  0  0  0  0  0  0  0  0  0  0  0
    2.5389   -0.5555   -2.6633 H   0  0  0  0  0  0  0  0  0  0  0  0
    2.6281   -2.0155   -4.7121 H   0  0  0  0  0  0  0  0  0  0  0  0
    4.2434   -3.9500   -4.7392 H   0  0  0  0  0  0  0  0  0  0  0  0
    6.1476   -1.1110    0.2005 H   0  0  0  0  0  0  0  0  0  0  0  0
  1  2  1  0
  1 17  1  0
  1 18  1  0
  1 19  1  0
  2  3  1  0
  3  8  1  0
  3  4  1  0
  3 20  1  1
  4  5  1  0
  4 21  1  0
  4 22  1  0
  6  5  1  1
  5 23  1  0
  5 24  1  0
  6 16  1  0
  6  7  1  0
  6  9  1  0
  7  8  1  0
  7 25  1  0
  7 26  1  0
  8 27  1  0
  8 28  1  0
  9 10  1  0
  9 29  1  0
  9 35  1  0
 10 11  1  0
 10 30  1  0
 10 31  1  0
 11 16  2  0
 11 12  1  0
 12 13  2  0
 12 32  1  0
 13 14  1  0
 13 33  1  0
 14 15  2  0
 14 34  1  0
 15 16  1  0
M  CHG  1   9   1
M  END
>  <i_m_ct_stereo_status>  (168) 
1

>  <s_m_source_file>  (168) 
/var/tmp/pbs.5076255.sched01/tmpdonsa7tf/408ubvndgu.sdf

>  <i_m_source_file_index>  (168) 
37

>  <i_lp_mmshare_version>  (168) 
48012

>  <i_f3d_flags>  (168) 
0

>  <s_epik_input>  (168) 
W0NIM11PW0NAQEhdKFtDSDJdW0NIMl0xKVtDSDJdW0NIMl1bQ0BdMTJjM2MoW0NIMl1bTkhdMilbY0hdW2NIXVtjSF1uMw==

>  <s_epik_cmdline>  (168) 
J2VwaWtfcHl0aG9uJywgJy1waHQnLCAnMi4wJywgJy1waCcsICc3LjAnLCAnLXRuJywgJzgnLCAnLW1hJywgJzIwMCcsICctaW1hZScsICc8aW5maWxlLm1hZT4nLCAnLW9tYWUnLCAnPG91dGZpbGUubWFlPic=

>  <r_epik_Ionization_Penalty>  (168) 
0.0319152

>  <r_epik_Ionization_Penalty_Charging>  (168) 
0.0317952

>  <r_epik_Ionization_Penalty_Neutral>  (168) 
0.000120004

>  <r_epik_State_Penalty>  (168) 
0.0263005

>  <r_epik_Charging_Adjusted_Penalty>  (168) 
0.0580957

>  <i_epik_Tot_Q>  (168) 
1

>  <i_epik_Tot_abs_Q>  (168) 
1

>  <s_lp_Force_Field>  (168) 
OPLS3e

>  <r_lp_Energy>  (168) 
25.2386

>  <b_lp_Chiralities_Consistent>  (168) 
1

>  <s_lp_Variant>  (168) 
55:0-1

>  <s_i_glide_gridfile>  (168) 
pfpi4k_grid

>  <i_i_glide_lignum>  (168) 
37

>  <i_i_glide_rotatable_bonds>  (168) 
1

>  <r_i_docking_score>  (168) 
-4.00617

>  <r_i_glide_ligand_efficiency>  (168) 
-0.250385

>  <r_i_glide_ligand_efficiency_sa>  (168) 
-0.630932

>  <r_i_glide_ligand_efficiency_ln>  (168) 
-1.06191

>  <r_i_glide_gscore>  (168) 
-4.00617

>  <r_i_glide_lipo>  (168) 
-0.768711

>  <r_i_glide_hbond>  (168) 
0

>  <r_i_glide_metal>  (168) 
-0

>  <r_i_glide_rewards>  (168) 
-1.91384

>  <r_i_glide_evdw>  (168) 
-21.0013

>  <r_i_glide_ecoul>  (168) 
-1.82365

>  <r_i_glide_erotb>  (168) 
0

>  <r_i_glide_esite>  (168) 
0

>  <r_i_glide_emodel>  (168) 
-31.8977

>  <r_i_glide_energy>  (168) 
-22.8249

>  <r_i_glide_einternal>  (168) 
0.719012

>  <r_i_glide_intrahb_reward>  (168) 
-0

>  <i_i_glide_confnum>  (168) 
3

>  <i_i_glide_posenum>  (168) 
13

>  <r_i_glide_eff_state_penalty>  (168) 
0

>  <ligand_id>  (168) 
55

>  <original_smiles>  (168) 
COC1CCC2(CC1)NCc1cccnc12

>  <smiles>  (168) 
[H]c1nc2c(c([H])c1[H])C([H])([H])[N+]([H])([H])C21C([H])([H])C([H])([H])C([H])(OC([H])([H])[H])C([H])([H])C1([H])[H]

$$$$
55:1:0
     RDKit          3D

 34 36  0  0  1  0  0  0  0  0999 V2000
    2.7407   -7.1698    1.8181 C   0  0  0  0  0  0  0  0  0  0  0  0
    2.4950   -5.8063    1.5005 O   0  0  0  0  0  0  0  0  0  0  0  0
    3.4410   -4.9007    2.0643 C   0  0  2  0  0  0  0  0  0  0  0  0
    2.8073   -3.4954    2.0702 C   0  0  0  0  0  0  0  0  0  0  0  0
    2.6225   -2.9332    0.6470 C   0  0  0  0  0  0  0  0  0  0  0  0
    3.9417   -2.9199   -0.1510 C   0  0  2  0  0  0  0  0  0  0  0  0
    4.5785   -4.3298   -0.1513 C   0  0  0  0  0  0  0  0  0  0  0  0
    4.7637   -4.8996    1.2652 C   0  0  0  0  0  0  0  0  0  0  0  0
    4.8745   -1.9565    0.4599 N   0  0  0  0  0  0  0  0  0  0  0  0
    4.8593   -0.7289   -0.3363 C   0  0  0  0  0  0  0  0  0  0  0  0
    4.2938   -1.1362   -1.6561 C   0  0  0  0  0  0  0  0  0  0  0  0
    4.2173   -0.4305   -2.8629 C   0  0  0  0  0  0  0  0  0  0  0  0
    3.5932   -1.0943   -3.9448 C   0  0  0  0  0  0  0  0  0  0  0  0
    3.0664   -2.3943   -3.7301 C   0  0  0  0  0  0  0  0  0  0  0  0
    3.1285   -3.0495   -2.5497 N   0  0  0  0  0  0  0  0  0  0  0  0
    3.7565   -2.3954   -1.5529 C   0  0  0  0  0  0  0  0  0  0  0  0
    2.0285   -7.8019    1.2879 H   0  0  0  0  0  0  0  0  0  0  0  0
    2.6224   -7.3399    2.8884 H   0  0  0  0  0  0  0  0  0  0  0  0
    3.7381   -7.5022    1.5316 H   0  0  0  0  0  0  0  0  0  0  0  0
    3.6442   -5.1793    3.1012 H   0  0  0  0  0  0  0  0  0  0  0  0
    1.8553   -3.5059    2.6022 H   0  0  0  0  0  0  0  0  0  0  0  0
    3.4491   -2.8219    2.6359 H   0  0  0  0  0  0  0  0  0  0  0  0
    1.8943   -3.5470    0.1137 H   0  0  0  0  0  0  0  0  0  0  0  0
    2.2093   -1.9273    0.6940 H   0  0  0  0  0  0  0  0  0  0  0  0
    3.9217   -5.0081   -0.7013 H   0  0  0  0  0  0  0  0  0  0  0  0
    5.5224   -4.3364   -0.6989 H   0  0  0  0  0  0  0  0  0  0  0  0
    5.5056   -4.2992    1.7842 H   0  0  0  0  0  0  0  0  0  0  0  0
    5.1985   -5.8950    1.2046 H   0  0  0  0  0  0  0  0  0  0  0  0
    4.4824   -1.7168    1.3554 H   0  0  0  0  0  0  0  0  0  0  0  0
    4.2410    0.0518    0.1118 H   0  0  0  0  0  0  0  0  0  0  0  0
    5.8753   -0.3625   -0.4427 H   0  0  0  0  0  0  0  0  0  0  0  0
    4.6096    0.5673   -2.9551 H   0  0  0  0  0  0  0  0  0  0  0  0
    3.5003   -0.6082   -4.9037 H   0  0  0  0  0  0  0  0  0  0  0  0
    2.5990   -2.9269   -4.5422 H   0  0  0  0  0  0  0  0  0  0  0  0
  1  2  1  0
  1 17  1  0
  1 18  1  0
  1 19  1  0
  2  3  1  0
  3  8  1  0
  3  4  1  0
  3 20  1  1
  4  5  1  0
  4 21  1  0
  4 22  1  0
  5  6  1  0
  5 23  1  0
  5 24  1  0
  6 16  1  0
  6  7  1  0
  6  9  1  1
  7  8  1  0
  7 25  1  0
  7 26  1  0
  8 27  1  0
  8 28  1  0
  9 10  1  0
  9 29  1  0
 10 11  1  0
 10 30  1  0
 10 31  1  0
 11 16  2  0
 11 12  1  0
 12 13  2  0
 12 32  1  0
 13 14  1  0
 13 33  1  0
 14 15  2  0
 14 34  1  0
 15 16  1  0
M  END
>  <i_m_ct_stereo_status>  (169) 
1

>  <s_m_source_file>  (169) 
/var/tmp/pbs.5076255.sched01/tmpdonsa7tf/408ubvndgu.sdf

>  <i_m_source_file_index>  (169) 
38

>  <i_lp_mmshare_version>  (169) 
48012

>  <i_f3d_flags>  (169) 
0

>  <s_epik_input>  (169) 
W0NIM11PW0NAQEhdKFtDSDJdW0NIMl0xKVtDSDJdW0NIMl1bQ0BdMTJjM2MoW0NIMl1bTkhdMilbY0hdW2NIXVtjSF1uMw==

>  <s_epik_cmdline>  (169) 
J2VwaWtfcHl0aG9uJywgJy1waHQnLCAnMi4wJywgJy1waCcsICc3LjAnLCAnLXRuJywgJzgnLCAnLW1hJywgJzIwMCcsICctaW1hZScsICc8aW5maWxlLm1hZT4nLCAnLW9tYWUnLCAnPG91dGZpbGUubWFlPic=

>  <r_epik_Ionization_Penalty>  (169) 
1.75359

>  <r_epik_Ionization_Penalty_Charging>  (169) 
0

>  <r_epik_Ionization_Penalty_Neutral>  (169) 
1.75359

>  <r_epik_State_Penalty>  (169) 
1.85854

>  <r_epik_Charging_Adjusted_Penalty>  (169) 
1.85854

>  <i_epik_Tot_Q>  (169) 
0

>  <i_epik_Tot_abs_Q>  (169) 
0

>  <s_lp_Force_Field>  (169) 
OPLS3e

>  <r_lp_Energy>  (169) 
26.6089

>  <b_lp_Chiralities_Consistent>  (169) 
1

>  <s_lp_Variant>  (169) 
55:0-2

>  <s_i_glide_gridfile>  (169) 
pfpi4k_grid

>  <i_i_glide_lignum>  (169) 
38

>  <i_i_glide_rotatable_bonds>  (169) 
1

>  <r_i_docking_score>  (169) 
-3.46219

>  <r_i_glide_ligand_efficiency>  (169) 
-0.216387

>  <r_i_glide_ligand_efficiency_sa>  (169) 
-0.545261

>  <r_i_glide_ligand_efficiency_ln>  (169) 
-0.917723

>  <r_i_glide_gscore>  (169) 
-3.46219

>  <r_i_glide_lipo>  (169) 
-0.574022

>  <r_i_glide_hbond>  (169) 
0

>  <r_i_glide_metal>  (169) 
-0

>  <r_i_glide_rewards>  (169) 
-1.92072

>  <r_i_glide_evdw>  (169) 
-20.3366

>  <r_i_glide_ecoul>  (169) 
0.329168

>  <r_i_glide_erotb>  (169) 
0

>  <r_i_glide_esite>  (169) 
0

>  <r_i_glide_emodel>  (169) 
-24.0706

>  <r_i_glide_energy>  (169) 
-20.0074

>  <r_i_glide_einternal>  (169) 
0.093569

>  <r_i_glide_intrahb_reward>  (169) 
-0

>  <i_i_glide_confnum>  (169) 
1

>  <i_i_glide_posenum>  (169) 
1

>  <r_i_glide_eff_state_penalty>  (169) 
0

>  <ligand_id>  (169) 
55

>  <original_smiles>  (169) 
COC1CCC2(CC1)NCc1cccnc12

>  <smiles>  (169) 
[H]c1nc2c(c([H])c1[H])C([H])([H])N([H])C21C([H])([H])C([H])([H])C([H])(OC([H])([H])[H])C([H])([H])C1([H])[H]

$$$$
55:1:1
     RDKit          3D

 34 36  0  0  1  0  0  0  0  0999 V2000
    4.3466   -7.8992    1.0903 C   0  0  0  0  0  0  0  0  0  0  0  0
    3.8143   -6.5994    0.8802 O   0  0  0  0  0  0  0  0  0  0  0  0
    4.5193   -5.5644    1.5582 C   0  0  2  0  0  0  0  0  0  0  0  0
    3.5676   -4.3596    1.7110 C   0  0  0  0  0  0  0  0  0  0  0  0
    3.2287   -3.6979    0.3592 C   0  0  0  0  0  0  0  0  0  0  0  0
    4.5040   -3.2791   -0.4067 C   0  0  2  0  0  0  0  0  0  0  0  0
    5.4565   -4.4880   -0.5549 C   0  0  0  0  0  0  0  0  0  0  0  0
    5.7944   -5.1633    0.7850 C   0  0  0  0  0  0  0  0  0  0  0  0
    5.1954   -2.2029    0.3252 N   0  0  0  0  0  0  0  0  0  0  0  0
    4.8848   -0.9278   -0.3257 C   0  0  0  0  0  0  0  0  0  0  0  0
    4.4185   -1.3017   -1.6891 C   0  0  0  0  0  0  0  0  0  0  0  0
    4.1645   -0.4963   -2.8093 C   0  0  0  0  0  0  0  0  0  0  0  0
    3.6963   -1.1581   -3.9673 C   0  0  0  0  0  0  0  0  0  0  0  0
    3.4940   -2.5589   -3.9101 C   0  0  0  0  0  0  0  0  0  0  0  0
    3.7409   -3.3148   -2.8235 N   0  0  0  0  0  0  0  0  0  0  0  0
    4.2004   -2.6501   -1.7427 C   0  0  0  0  0  0  0  0  0  0  0  0
    3.8081   -8.6224    0.4808 H   0  0  0  0  0  0  0  0  0  0  0  0
    4.2394   -8.1906    2.1345 H   0  0  0  0  0  0  0  0  0  0  0  0
    5.3996   -7.9760    0.8231 H   0  0  0  0  0  0  0  0  0  0  0  0
    4.7972   -5.9000    2.5608 H   0  0  0  0  0  0  0  0  0  0  0  0
    2.6552   -4.6595    2.2254 H   0  0  0  0  0  0  0  0  0  0  0  0
    4.0396   -3.6237    2.3597 H   0  0  0  0  0  0  0  0  0  0  0  0
    2.6628   -4.4094   -0.2483 H   0  0  0  0  0  0  0  0  0  0  0  0
    2.5709   -2.8417    0.5045 H   0  0  0  0  0  0  0  0  0  0  0  0
    4.9801   -5.2382   -1.1943 H   0  0  0  0  0  0  0  0  0  0  0  0
    6.3657   -4.1974   -1.0818 H   0  0  0  0  0  0  0  0  0  0  0  0
    6.3821   -4.4691    1.3795 H   0  0  0  0  0  0  0  0  0  0  0  0
    6.4451   -6.0190    0.6143 H   0  0  0  0  0  0  0  0  0  0  0  0
    4.7696   -2.1627    1.2307 H   0  0  0  0  0  0  0  0  0  0  0  0
    4.1050   -0.3727    0.1936 H   0  0  0  0  0  0  0  0  0  0  0  0
    5.7817   -0.3226   -0.3752 H   0  0  0  0  0  0  0  0  0  0  0  0
    4.3029    0.5658   -2.7788 H   0  0  0  0  0  0  0  0  0  0  0  0
    3.4754   -0.6001   -4.8680 H   0  0  0  0  0  0  0  0  0  0  0  0
    3.1412   -3.0879   -4.7810 H   0  0  0  0  0  0  0  0  0  0  0  0
  1  2  1  0
  1 17  1  0
  1 18  1  0
  1 19  1  0
  2  3  1  0
  3  8  1  0
  3  4  1  0
  3 20  1  1
  4  5  1  0
  4 21  1  0
  4 22  1  0
  5  6  1  0
  5 23  1  0
  5 24  1  0
  6 16  1  0
  6  7  1  0
  6  9  1  1
  7  8  1  0
  7 25  1  0
  7 26  1  0
  8 27  1  0
  8 28  1  0
  9 10  1  0
  9 29  1  0
 10 11  1  0
 10 30  1  0
 10 31  1  0
 11 16  2  0
 11 12  1  0
 12 13  2  0
 12 32  1  0
 13 14  1  0
 13 33  1  0
 14 15  2  0
 14 34  1  0
 15 16  1  0
M  END
>  <i_m_ct_stereo_status>  (170) 
1

>  <s_m_source_file>  (170) 
/var/tmp/pbs.5076255.sched01/tmpdonsa7tf/408ubvndgu.sdf

>  <i_m_source_file_index>  (170) 
38

>  <i_lp_mmshare_version>  (170) 
48012

>  <i_f3d_flags>  (170) 
0

>  <s_epik_input>  (170) 
W0NIM11PW0NAQEhdKFtDSDJdW0NIMl0xKVtDSDJdW0NIMl1bQ0BdMTJjM2MoW0NIMl1bTkhdMilbY0hdW2NIXVtjSF1uMw==

>  <s_epik_cmdline>  (170) 
J2VwaWtfcHl0aG9uJywgJy1waHQnLCAnMi4wJywgJy1waCcsICc3LjAnLCAnLXRuJywgJzgnLCAnLW1hJywgJzIwMCcsICctaW1hZScsICc8aW5maWxlLm1hZT4nLCAnLW9tYWUnLCAnPG91dGZpbGUubWFlPic=

>  <r_epik_Ionization_Penalty>  (170) 
1.75359

>  <r_epik_Ionization_Penalty_Charging>  (170) 
0

>  <r_epik_Ionization_Penalty_Neutral>  (170) 
1.75359

>  <r_epik_State_Penalty>  (170) 
1.85854

>  <r_epik_Charging_Adjusted_Penalty>  (170) 
1.85854

>  <i_epik_Tot_Q>  (170) 
0

>  <i_epik_Tot_abs_Q>  (170) 
0

>  <s_lp_Force_Field>  (170) 
OPLS3e

>  <r_lp_Energy>  (170) 
26.6089

>  <b_lp_Chiralities_Consistent>  (170) 
1

>  <s_lp_Variant>  (170) 
55:0-2

>  <s_i_glide_gridfile>  (170) 
pfpi4k_grid

>  <i_i_glide_lignum>  (170) 
38

>  <i_i_glide_rotatable_bonds>  (170) 
1

>  <r_i_docking_score>  (170) 
-3.40474

>  <r_i_glide_ligand_efficiency>  (170) 
-0.212796

>  <r_i_glide_ligand_efficiency_sa>  (170) 
-0.536213

>  <r_i_glide_ligand_efficiency_ln>  (170) 
-0.902495

>  <r_i_glide_gscore>  (170) 
-3.40474

>  <r_i_glide_lipo>  (170) 
-0.615334

>  <r_i_glide_hbond>  (170) 
0

>  <r_i_glide_metal>  (170) 
-0

>  <r_i_glide_rewards>  (170) 
-1.92072

>  <r_i_glide_evdw>  (170) 
-21.1291

>  <r_i_glide_ecoul>  (170) 
1.25177

>  <r_i_glide_erotb>  (170) 
0

>  <r_i_glide_esite>  (170) 
0

>  <r_i_glide_emodel>  (170) 
-23.8616

>  <r_i_glide_energy>  (170) 
-19.8774

>  <r_i_glide_einternal>  (170) 
0.0949004

>  <r_i_glide_intrahb_reward>  (170) 
-0

>  <i_i_glide_confnum>  (170) 
3

>  <i_i_glide_posenum>  (170) 
24

>  <r_i_glide_eff_state_penalty>  (170) 
0

>  <ligand_id>  (170) 
55

>  <original_smiles>  (170) 
COC1CCC2(CC1)NCc1cccnc12

>  <smiles>  (170) 
[H]c1nc2c(c([H])c1[H])C([H])([H])N([H])C21C([H])([H])C([H])([H])C([H])(OC([H])([H])[H])C([H])([H])C1([H])[H]

$$$$
55:1:2
     RDKit          3D

 34 36  0  0  1  0  0  0  0  0999 V2000
    1.9373   -7.4724    2.1244 C   0  0  0  0  0  0  0  0  0  0  0  0
    1.7253   -6.1272    1.7031 O   0  0  0  0  0  0  0  0  0  0  0  0
    2.8902   -5.3113    1.8148 C   0  0  2  0  0  0  0  0  0  0  0  0
    2.4393   -3.8356    1.7920 C   0  0  0  0  0  0  0  0  0  0  0  0
    3.6238   -2.8483    1.7837 C   0  0  0  0  0  0  0  0  0  0  0  0
    4.5891   -3.1227    0.6062 C   0  0  2  0  0  0  0  0  0  0  0  0
    5.0563   -4.5986    0.6417 C   0  0  0  0  0  0  0  0  0  0  0  0
    3.8748   -5.6075    0.6637 C   0  0  0  0  0  0  0  0  0  0  0  0
    5.7723   -2.2522    0.7508 N   0  0  0  0  0  0  0  0  0  0  0  0
    5.6299   -1.1343   -0.1810 C   0  0  0  0  0  0  0  0  0  0  0  0
    4.6314   -1.5872   -1.1967 C   0  0  0  0  0  0  0  0  0  0  0  0
    4.2380   -1.0206   -2.4243 C   0  0  0  0  0  0  0  0  0  0  0  0
    3.2299   -1.7201   -3.1478 C   0  0  0  0  0  0  0  0  0  0  0  0
    2.6692   -2.8836   -2.5781 C   0  0  0  0  0  0  0  0  0  0  0  0
    3.0388   -3.3807   -1.3803 N   0  0  0  0  0  0  0  0  0  0  0  0
    4.0363   -2.7227   -0.7452 C   0  0  0  0  0  0  0  0  0  0  0  0
    1.0356   -8.0690    1.9784 H   0  0  0  0  0  0  0  0  0  0  0  0
    2.2030   -7.5031    3.1822 H   0  0  0  0  0  0  0  0  0  0  0  0
    2.7316   -7.9700    1.5671 H   0  0  0  0  0  0  0  0  0  0  0  0
    3.3918   -5.4718    2.7673 H   0  0  0  0  0  0  0  0  0  0  0  0
    1.8301   -3.6479    0.9015 H   0  0  0  0  0  0  0  0  0  0  0  0
    1.7803   -3.6218    2.6419 H   0  0  0  0  0  0  0  0  0  0  0  0
    3.2536   -1.8271    1.7441 H   0  0  0  0  0  0  0  0  0  0  0  0
    4.1373   -2.9631    2.7324 H   0  0  0  0  0  0  0  0  0  0  0  0
    5.7140   -4.8234   -0.2056 H   0  0  0  0  0  0  0  0  0  0  0  0
    5.6588   -4.7950    1.5364 H   0  0  0  0  0  0  0  0  0  0  0  0
    4.2809   -6.6148    0.7127 H   0  0  0  0  0  0  0  0  0  0  0  0
    3.3329   -5.6143   -0.2786 H   0  0  0  0  0  0  0  0  0  0  0  0
    5.7244   -1.8425    1.6577 H   0  0  0  0  0  0  0  0  0  0  0  0
    5.2708   -0.2409    0.3128 H   0  0  0  0  0  0  0  0  0  0  0  0
    6.5830   -0.9734   -0.6433 H   0  0  0  0  0  0  0  0  0  0  0  0
    4.6587   -0.1039   -2.7791 H   0  0  0  0  0  0  0  0  0  0  0  0
    2.8636   -1.3501   -4.1041 H   0  0  0  0  0  0  0  0  0  0  0  0
    1.8998   -3.4469   -3.0949 H   0  0  0  0  0  0  0  0  0  0  0  0
  1  2  1  0
  1 17  1  0
  1 18  1  0
  1 19  1  0
  2  3  1  0
  3  8  1  0
  3  4  1  0
  3 20  1  1
  4  5  1  0
  4 21  1  0
  4 22  1  0
  5  6  1  0
  5 23  1  0
  5 24  1  0
  6 16  1  0
  6  7  1  0
  6  9  1  1
  7  8  1  0
  7 25  1  0
  7 26  1  0
  8 27  1  0
  8 28  1  0
  9 10  1  0
  9 29  1  0
 10 11  1  0
 10 30  1  0
 10 31  1  0
 11 16  2  0
 11 12  1  0
 12 13  2  0
 12 32  1  0
 13 14  1  0
 13 33  1  0
 14 15  2  0
 14 34  1  0
 15 16  1  0
M  END
>  <i_m_ct_stereo_status>  (171) 
1

>  <s_m_source_file>  (171) 
/var/tmp/pbs.5076255.sched01/tmpdonsa7tf/408ubvndgu.sdf

>  <i_m_source_file_index>  (171) 
38

>  <i_lp_mmshare_version>  (171) 
48012

>  <i_f3d_flags>  (171) 
0

>  <s_epik_input>  (171) 
W0NIM11PW0NAQEhdKFtDSDJdW0NIMl0xKVtDSDJdW0NIMl1bQ0BdMTJjM2MoW0NIMl1bTkhdMilbY0hdW2NIXVtjSF1uMw==

>  <s_epik_cmdline>  (171) 
J2VwaWtfcHl0aG9uJywgJy1waHQnLCAnMi4wJywgJy1waCcsICc3LjAnLCAnLXRuJywgJzgnLCAnLW1hJywgJzIwMCcsICctaW1hZScsICc8aW5maWxlLm1hZT4nLCAnLW9tYWUnLCAnPG91dGZpbGUubWFlPic=

>  <r_epik_Ionization_Penalty>  (171) 
1.75359

>  <r_epik_Ionization_Penalty_Charging>  (171) 
0

>  <r_epik_Ionization_Penalty_Neutral>  (171) 
1.75359

>  <r_epik_State_Penalty>  (171) 
1.85854

>  <r_epik_Charging_Adjusted_Penalty>  (171) 
1.85854

>  <i_epik_Tot_Q>  (171) 
0

>  <i_epik_Tot_abs_Q>  (171) 
0

>  <s_lp_Force_Field>  (171) 
OPLS3e

>  <r_lp_Energy>  (171) 
26.6089

>  <b_lp_Chiralities_Consistent>  (171) 
1

>  <s_lp_Variant>  (171) 
55:0-2

>  <s_i_glide_gridfile>  (171) 
pfpi4k_grid

>  <i_i_glide_lignum>  (171) 
38

>  <i_i_glide_rotatable_bonds>  (171) 
1

>  <r_i_docking_score>  (171) 
-3.02582

>  <r_i_glide_ligand_efficiency>  (171) 
-0.189114

>  <r_i_glide_ligand_efficiency_sa>  (171) 
-0.476538

>  <r_i_glide_ligand_efficiency_ln>  (171) 
-0.802055

>  <r_i_glide_gscore>  (171) 
-3.02582

>  <r_i_glide_lipo>  (171) 
-0.150311

>  <r_i_glide_hbond>  (171) 
0

>  <r_i_glide_metal>  (171) 
-0

>  <r_i_glide_rewards>  (171) 
-1.92072

>  <r_i_glide_evdw>  (171) 
-18.8178

>  <r_i_glide_ecoul>  (171) 
-0.0927047

>  <r_i_glide_erotb>  (171) 
0

>  <r_i_glide_esite>  (171) 
0

>  <r_i_glide_emodel>  (171) 
-22.2158

>  <r_i_glide_energy>  (171) 
-18.9105

>  <r_i_glide_einternal>  (171) 
0.177365

>  <r_i_glide_intrahb_reward>  (171) 
-0

>  <i_i_glide_confnum>  (171) 
4

>  <i_i_glide_posenum>  (171) 
16

>  <r_i_glide_eff_state_penalty>  (171) 
0

>  <ligand_id>  (171) 
55

>  <original_smiles>  (171) 
COC1CCC2(CC1)NCc1cccnc12

>  <smiles>  (171) 
[H]c1nc2c(c([H])c1[H])C([H])([H])N([H])C21C([H])([H])C([H])([H])C([H])(OC([H])([H])[H])C([H])([H])C1([H])[H]

$$$$
56:0:0
     RDKit          3D

 45 49  0  0  1  0  0  0  0  0999 V2000
    4.8930   -7.7196    1.0889 C   0  0  0  0  0  0  0  0  0  0  0  0
    5.0047   -6.3798    1.1344 C   0  0  0  0  0  0  0  0  0  0  0  0
    4.2758   -5.5266    0.0908 C   0  0  0  0  0  0  0  0  0  0  0  0
    4.4381   -3.9699    0.0938 C   0  0  1  0  0  0  0  0  0  0  0  0
    4.3172   -3.5235   -1.3923 C   0  0  0  0  0  0  0  0  0  0  0  0
    4.4371   -2.0238   -1.6272 C   0  0  0  0  0  0  0  0  0  0  0  0
    4.9713   -1.3539   -0.3768 C   0  0  2  0  0  0  0  0  0  0  0  0
    6.4766   -1.7239   -0.0017 C   0  0  2  0  0  0  0  0  0  0  0  0
    7.4593   -2.7228   -0.7931 C   0  0  0  0  0  0  0  0  0  0  0  0
    8.2843   -3.7548    0.0846 C   0  0  0  0  0  0  0  0  0  0  0  0
    9.3939   -3.4549    0.5211 O   0  0  0  0  0  0  0  0  0  0  0  0
    7.6256   -4.9510    0.3957 O   0  0  0  0  0  0  0  0  0  0  0  0
    7.3469   -5.3809    1.7653 C   0  0  0  0  0  0  0  0  0  0  0  0
    5.8278   -5.6993    2.2191 C   0  0  1  0  0  0  0  0  0  0  0  0
    4.9532   -4.6277    3.0253 C   0  0  0  0  0  0  0  0  0  0  0  0
    3.6014   -3.9819    2.4299 C   0  0  0  0  0  0  0  0  0  0  0  0
    3.5453   -3.2095    1.0262 C   0  0  1  0  0  0  0  0  0  0  0  0
    4.0357   -1.6894    0.8934 C   0  0  1  0  0  0  0  0  0  0  0  0
    5.0613   -1.4908    1.9557 C   0  0  0  0  0  0  0  0  0  0  0  0
    6.1144   -2.3534    1.2806 C   0  0  1  0  0  0  0  0  0  0  0  0
    5.6519   -3.6191    0.7407 O   0  0  0  0  0  0  0  0  0  0  0  0
    5.3901   -8.3574    1.8051 H   0  0  0  0  0  0  0  0  0  0  0  0
    4.3090   -8.2053    0.3218 H   0  0  0  0  0  0  0  0  0  0  0  0
    4.6332   -5.9192   -0.8607 H   0  0  0  0  0  0  0  0  0  0  0  0
    3.2139   -5.7769    0.1137 H   0  0  0  0  0  0  0  0  0  0  0  0
    5.0600   -4.0447   -1.9967 H   0  0  0  0  0  0  0  0  0  0  0  0
    3.3565   -3.8555   -1.7903 H   0  0  0  0  0  0  0  0  0  0  0  0
    5.0696   -1.8136   -2.4903 H   0  0  0  0  0  0  0  0  0  0  0  0
    3.4510   -1.6160   -1.8534 H   0  0  0  0  0  0  0  0  0  0  0  0
    4.9363   -0.2743   -0.5425 H   0  0  0  0  0  0  0  0  0  0  0  0
    7.0170   -0.8012    0.2203 H   0  0  0  0  0  0  0  0  0  0  0  0
    6.9202   -3.2967   -1.5399 H   0  0  0  0  0  0  0  0  0  0  0  0
    8.1832   -2.1400   -1.3609 H   0  0  0  0  0  0  0  0  0  0  0  0
    7.9317   -6.2908    1.9019 H   0  0  0  0  0  0  0  0  0  0  0  0
    7.7770   -4.6612    2.4566 H   0  0  0  0  0  0  0  0  0  0  0  0
    5.9927   -6.4728    2.9715 H   0  0  0  0  0  0  0  0  0  0  0  0
    4.6335   -5.1342    3.9362 H   0  0  0  0  0  0  0  0  0  0  0  0
    5.6165   -3.8533    3.4063 H   0  0  0  0  0  0  0  0  0  0  0  0
    2.8806   -4.7968    2.3652 H   0  0  0  0  0  0  0  0  0  0  0  0
    3.1694   -3.3314    3.1919 H   0  0  0  0  0  0  0  0  0  0  0  0
    2.5220   -3.2574    0.6518 H   0  0  0  0  0  0  0  0  0  0  0  0
    3.2009   -0.9949    0.9984 H   0  0  0  0  0  0  0  0  0  0  0  0
    5.3843   -0.4504    2.0320 H   0  0  0  0  0  0  0  0  0  0  0  0
    4.7690   -1.8038    2.9558 H   0  0  0  0  0  0  0  0  0  0  0  0
    6.9665   -2.4744    1.9399 H   0  0  0  0  0  0  0  0  0  0  0  0
  1  2  2  0
  1 22  1  0
  1 23  1  0
  2 14  1  0
  2  3  1  0
  3  4  1  0
  3 24  1  0
  3 25  1  0
  4 17  1  0
  4 21  1  0
  4  5  1  6
  5  6  1  0
  5 26  1  0
  5 27  1  0
  6  7  1  0
  6 28  1  0
  6 29  1  0
  7 18  1  0
  7  8  1  0
  7 30  1  6
  8 20  1  0
  8  9  1  0
  8 31  1  1
  9 10  1  0
  9 32  1  0
  9 33  1  0
 10 11  2  0
 10 12  1  0
 12 13  1  0
 13 14  1  0
 13 34  1  0
 13 35  1  0
 14 15  1  0
 14 36  1  1
 15 16  1  0
 15 37  1  0
 15 38  1  0
 16 17  1  0
 16 39  1  0
 16 40  1  0
 17 18  1  0
 17 41  1  6
 18 19  1  0
 18 42  1  1
 19 20  1  0
 19 43  1  0
 19 44  1  0
 20 21  1  0
 20 45  1  1
M  END
>  <i_m_ct_stereo_status>  (172) 
1

>  <s_m_source_file>  (172) 
/var/tmp/pbs.5076255.sched01/tmpdonsa7tf/408ubvndgu.sdf

>  <i_m_source_file_index>  (172) 
39

>  <i_lp_mmshare_version>  (172) 
48012

>  <i_f3d_flags>  (172) 
0

>  <s_epik_input>  (172) 
W0NIMl09QyhbQ0gyXTEpW0NASF0oW0NIMl1bQ0gyXTIpW0NIMl1PQyg9TylbQ0gyXVtDQEhdKFtDQEhdKE8zKVtDSDJdNClbQ0BASF0oW0NIMl1bQ0gyXTUpW0NASF00W0NASF0yW0NAXTEzNQ==

>  <s_epik_cmdline>  (172) 
J2VwaWtfcHl0aG9uJywgJy1waHQnLCAnMi4wJywgJy1waCcsICc3LjAnLCAnLXRuJywgJzgnLCAnLW1hJywgJzIwMCcsICctaW1hZScsICc8aW5maWxlLm1hZT4nLCAnLW9tYWUnLCAnPG91dGZpbGUubWFlPic=

>  <r_lp_tautomer_probability>  (172) 
1

>  <r_epik_Ionization_Penalty>  (172) 
5.42816e-11

>  <r_epik_Ionization_Penalty_Charging>  (172) 
0

>  <r_epik_Ionization_Penalty_Neutral>  (172) 
5.42816e-11

>  <r_epik_State_Penalty>  (172) 
-0

>  <r_epik_Charging_Adjusted_Penalty>  (172) 
0

>  <i_epik_Tot_Q>  (172) 
0

>  <i_epik_Tot_abs_Q>  (172) 
0

>  <s_epik_Chemistry_Notes>  (172) 
This compound has an ester and may undergo hydrolysis at high or low pH.

>  <s_lp_Force_Field>  (172) 
OPLS3e

>  <r_lp_Energy>  (172) 
142.315

>  <b_lp_Chiralities_Consistent>  (172) 
1

>  <s_lp_Variant>  (172) 
56:0-1

>  <s_i_glide_gridfile>  (172) 
pfpi4k_grid

>  <i_i_glide_lignum>  (172) 
39

>  <i_i_glide_rotatable_bonds>  (172) 
0

>  <r_i_docking_score>  (172) 
-3.79098

>  <r_i_glide_ligand_efficiency>  (172) 
-0.180523

>  <r_i_glide_ligand_efficiency_sa>  (172) 
-0.498049

>  <r_i_glide_ligand_efficiency_ln>  (172) 
-0.937312

>  <r_i_glide_gscore>  (172) 
-3.79098

>  <r_i_glide_lipo>  (172) 
-0.495262

>  <r_i_glide_hbond>  (172) 
-0.108076

>  <r_i_glide_metal>  (172) 
-0

>  <r_i_glide_rewards>  (172) 
-1.65789

>  <r_i_glide_evdw>  (172) 
-24.4475

>  <r_i_glide_ecoul>  (172) 
-2.04919

>  <r_i_glide_erotb>  (172) 
0

>  <r_i_glide_esite>  (172) 
0

>  <r_i_glide_emodel>  (172) 
-32.7534

>  <r_i_glide_energy>  (172) 
-26.4967

>  <r_i_glide_einternal>  (172) 
0

>  <r_i_glide_intrahb_reward>  (172) 
-0

>  <i_i_glide_confnum>  (172) 
2

>  <i_i_glide_posenum>  (172) 
1

>  <r_i_glide_eff_state_penalty>  (172) 
0

>  <ligand_id>  (172) 
56

>  <original_smiles>  (172) 
C=C1CC23CCC4C5CC(=O)OCC1CCC2C4CC5O3

>  <smiles>  (172) 
[H]C([H])=C1C([H])([H])C23OC4([H])C([H])([H])C5([H])C([H])(C([H])([H])C2([H])[H])C4([H])C([H])([H])C(=O)OC([H])([H])C1([H])C([H])([H])C([H])([H])C53[H]

$$$$
56:0:1
     RDKit          3D

 45 49  0  0  1  0  0  0  0  0999 V2000
    4.3316   -0.8256   -2.3019 C   0  0  0  0  0  0  0  0  0  0  0  0
    4.5310   -1.6278   -1.2415 C   0  0  0  0  0  0  0  0  0  0  0  0
    3.8204   -2.9830   -1.1859 C   0  0  0  0  0  0  0  0  0  0  0  0
    3.9949   -3.9031    0.0671 C   0  0  1  0  0  0  0  0  0  0  0  0
    2.6548   -4.6781    0.2059 C   0  0  0  0  0  0  0  0  0  0  0  0
    2.6021   -5.6669    1.3636 C   0  0  0  0  0  0  0  0  0  0  0  0
    3.7625   -5.4104    2.3053 C   0  0  2  0  0  0  0  0  0  0  0  0
    3.7084   -4.0200    3.0851 C   0  0  2  0  0  0  0  0  0  0  0  0
    2.5734   -2.8857    2.9679 C   0  0  0  0  0  0  0  0  0  0  0  0
    3.0751   -1.3860    2.8300 C   0  0  0  0  0  0  0  0  0  0  0  0
    3.2905   -0.7085    3.8330 O   0  0  0  0  0  0  0  0  0  0  0  0
    3.3656   -0.9627    1.5263 O   0  0  0  0  0  0  0  0  0  0  0  0
    4.7019   -0.5076    1.1294 C   0  0  0  0  0  0  0  0  0  0  0  0
    5.4623   -1.2174   -0.1073 C   0  0  1  0  0  0  0  0  0  0  0  0
    6.5978   -2.3178    0.1423 C   0  0  0  0  0  0  0  0  0  0  0  0
    6.4399   -3.8467   -0.3402 C   0  0  0  0  0  0  0  0  0  0  0  0
    5.2078   -4.7806    0.0804 C   0  0  1  0  0  0  0  0  0  0  0  0
    5.1628   -5.4948    1.5124 C   0  0  1  0  0  0  0  0  0  0  0  0
    5.9606   -4.6360    2.4283 C   0  0  0  0  0  0  0  0  0  0  0  0
    4.9510   -3.5020    2.4754 C   0  0  1  0  0  0  0  0  0  0  0  0
    4.3724   -3.1227    1.1954 O   0  0  0  0  0  0  0  0  0  0  0  0
    4.8059    0.1422   -2.3769 H   0  0  0  0  0  0  0  0  0  0  0  0
    3.6644   -1.1124   -3.1015 H   0  0  0  0  0  0  0  0  0  0  0  0
    2.7654   -2.7274   -1.2991 H   0  0  0  0  0  0  0  0  0  0  0  0
    4.0733   -3.5499   -2.0836 H   0  0  0  0  0  0  0  0  0  0  0  0
    1.8343   -3.9699    0.2938 H   0  0  0  0  0  0  0  0  0  0  0  0
    2.4487   -5.2142   -0.7194 H   0  0  0  0  0  0  0  0  0  0  0  0
    1.6521   -5.6028    1.8932 H   0  0  0  0  0  0  0  0  0  0  0  0
    2.6795   -6.6838    0.9783 H   0  0  0  0  0  0  0  0  0  0  0  0
    3.7560   -6.1979    3.0609 H   0  0  0  0  0  0  0  0  0  0  0  0
    3.9013   -4.2051    4.1431 H   0  0  0  0  0  0  0  0  0  0  0  0
    1.9100   -3.0750    2.1316 H   0  0  0  0  0  0  0  0  0  0  0  0
    1.9400   -2.9442    3.8529 H   0  0  0  0  0  0  0  0  0  0  0  0
    4.5722    0.5429    0.8701 H   0  0  0  0  0  0  0  0  0  0  0  0
    5.3636   -0.5038    1.9962 H   0  0  0  0  0  0  0  0  0  0  0  0
    6.0325   -0.3762   -0.4978 H   0  0  0  0  0  0  0  0  0  0  0  0
    7.4848   -1.9593   -0.3810 H   0  0  0  0  0  0  0  0  0  0  0  0
    6.9058   -2.2723    1.1856 H   0  0  0  0  0  0  0  0  0  0  0  0
    6.4384   -3.8169   -1.4297 H   0  0  0  0  0  0  0  0  0  0  0  0
    7.3648   -4.3739   -0.1066 H   0  0  0  0  0  0  0  0  0  0  0  0
    5.0898   -5.5534   -0.6797 H   0  0  0  0  0  0  0  0  0  0  0  0
    5.5634   -6.5077    1.4624 H   0  0  0  0  0  0  0  0  0  0  0  0
    6.0961   -5.0881    3.4122 H   0  0  0  0  0  0  0  0  0  0  0  0
    6.9498   -4.3630    2.0693 H   0  0  0  0  0  0  0  0  0  0  0  0
    5.3685   -2.6554    3.0202 H   0  0  0  0  0  0  0  0  0  0  0  0
  1  2  2  0
  1 22  1  0
  1 23  1  0
  2 14  1  0
  2  3  1  0
  3  4  1  0
  3 24  1  0
  3 25  1  0
  4 17  1  0
  4 21  1  0
  4  5  1  1
  5  6  1  0
  5 26  1  0
  5 27  1  0
  6  7  1  0
  6 28  1  0
  6 29  1  0
  7 18  1  0
  7  8  1  0
  7 30  1  1
  8 20  1  0
  8  9  1  0
  8 31  1  1
  9 10  1  0
  9 32  1  0
  9 33  1  0
 10 11  2  0
 10 12  1  0
 12 13  1  0
 13 14  1  0
 13 34  1  0
 13 35  1  0
 14 15  1  0
 14 36  1  6
 15 16  1  0
 15 37  1  0
 15 38  1  0
 16 17  1  0
 16 39  1  0
 16 40  1  0
 17 18  1  0
 17 41  1  6
 18 19  1  0
 18 42  1  6
 19 20  1  0
 19 43  1  0
 19 44  1  0
 20 21  1  0
 20 45  1  1
M  END
>  <i_m_ct_stereo_status>  (173) 
1

>  <s_m_source_file>  (173) 
/var/tmp/pbs.5076255.sched01/tmpdonsa7tf/408ubvndgu.sdf

>  <i_m_source_file_index>  (173) 
39

>  <i_lp_mmshare_version>  (173) 
48012

>  <i_f3d_flags>  (173) 
0

>  <s_epik_input>  (173) 
W0NIMl09QyhbQ0gyXTEpW0NASF0oW0NIMl1bQ0gyXTIpW0NIMl1PQyg9TylbQ0gyXVtDQEhdKFtDQEhdKE8zKVtDSDJdNClbQ0BASF0oW0NIMl1bQ0gyXTUpW0NASF00W0NASF0yW0NAXTEzNQ==

>  <s_epik_cmdline>  (173) 
J2VwaWtfcHl0aG9uJywgJy1waHQnLCAnMi4wJywgJy1waCcsICc3LjAnLCAnLXRuJywgJzgnLCAnLW1hJywgJzIwMCcsICctaW1hZScsICc8aW5maWxlLm1hZT4nLCAnLW9tYWUnLCAnPG91dGZpbGUubWFlPic=

>  <r_lp_tautomer_probability>  (173) 
1

>  <r_epik_Ionization_Penalty>  (173) 
5.42816e-11

>  <r_epik_Ionization_Penalty_Charging>  (173) 
0

>  <r_epik_Ionization_Penalty_Neutral>  (173) 
5.42816e-11

>  <r_epik_State_Penalty>  (173) 
-0

>  <r_epik_Charging_Adjusted_Penalty>  (173) 
0

>  <i_epik_Tot_Q>  (173) 
0

>  <i_epik_Tot_abs_Q>  (173) 
0

>  <s_epik_Chemistry_Notes>  (173) 
This compound has an ester and may undergo hydrolysis at high or low pH.

>  <s_lp_Force_Field>  (173) 
OPLS3e

>  <r_lp_Energy>  (173) 
142.315

>  <b_lp_Chiralities_Consistent>  (173) 
1

>  <s_lp_Variant>  (173) 
56:0-1

>  <s_i_glide_gridfile>  (173) 
pfpi4k_grid

>  <i_i_glide_lignum>  (173) 
39

>  <i_i_glide_rotatable_bonds>  (173) 
0

>  <r_i_docking_score>  (173) 
-3.01437

>  <r_i_glide_ligand_efficiency>  (173) 
-0.143541

>  <r_i_glide_ligand_efficiency_sa>  (173) 
-0.39602

>  <r_i_glide_ligand_efficiency_ln>  (173) 
-0.745296

>  <r_i_glide_gscore>  (173) 
-3.01437

>  <r_i_glide_lipo>  (173) 
-0.411648

>  <r_i_glide_hbond>  (173) 
0

>  <r_i_glide_metal>  (173) 
-0

>  <r_i_glide_rewards>  (173) 
-1.44285

>  <r_i_glide_evdw>  (173) 
-22.4449

>  <r_i_glide_ecoul>  (173) 
-0.234024

>  <r_i_glide_erotb>  (173) 
0

>  <r_i_glide_esite>  (173) 
-0.00251724

>  <r_i_glide_emodel>  (173) 
-27.6442

>  <r_i_glide_energy>  (173) 
-22.6789

>  <r_i_glide_einternal>  (173) 
0

>  <r_i_glide_intrahb_reward>  (173) 
-0

>  <i_i_glide_confnum>  (173) 
2

>  <i_i_glide_posenum>  (173) 
26

>  <r_i_glide_eff_state_penalty>  (173) 
0

>  <ligand_id>  (173) 
56

>  <original_smiles>  (173) 
C=C1CC23CCC4C5CC(=O)OCC1CCC2C4CC5O3

>  <smiles>  (173) 
[H]C([H])=C1C([H])([H])C23OC4([H])C([H])([H])C5([H])C([H])(C([H])([H])C2([H])[H])C4([H])C([H])([H])C(=O)OC([H])([H])C1([H])C([H])([H])C([H])([H])C53[H]

$$$$
56:0:2
     RDKit          3D

 45 49  0  0  1  0  0  0  0  0999 V2000
    3.4255   -2.1960   -2.0585 C   0  0  0  0  0  0  0  0  0  0  0  0
    3.8737   -2.7325   -0.9103 C   0  0  0  0  0  0  0  0  0  0  0  0
    2.9787   -3.7031   -0.1315 C   0  0  0  0  0  0  0  0  0  0  0  0
    3.4649   -4.2927    1.2342 C   0  0  1  0  0  0  0  0  0  0  0  0
    2.1884   -4.5065    2.0868 C   0  0  0  0  0  0  0  0  0  0  0  0
    2.4080   -5.0895    3.4732 C   0  0  0  0  0  0  0  0  0  0  0  0
    3.8804   -5.0239    3.8128 C   0  0  2  0  0  0  0  0  0  0  0  0
    4.4657   -3.5520    4.0001 C   0  0  2  0  0  0  0  0  0  0  0  0
    3.6680   -2.1612    3.8615 C   0  0  0  0  0  0  0  0  0  0  0  0
    4.3805   -1.0105    3.0299 C   0  0  0  0  0  0  0  0  0  0  0  0
    5.1530   -0.2302    3.5830 O   0  0  0  0  0  0  0  0  0  0  0  0
    4.1707   -1.0461    1.6443 O   0  0  0  0  0  0  0  0  0  0  0  0
    5.2744   -1.1922    0.6883 C   0  0  0  0  0  0  0  0  0  0  0  0
    5.2624   -2.4062   -0.3817 C   0  0  1  0  0  0  0  0  0  0  0  0
    6.1165   -3.7374   -0.1365 C   0  0  0  0  0  0  0  0  0  0  0  0
    5.4343   -5.1874    0.0492 C   0  0  0  0  0  0  0  0  0  0  0  0
    4.3361   -5.5050    1.1648 C   0  0  1  0  0  0  0  0  0  0  0  0
    4.7504   -5.7815    2.6863 C   0  0  1  0  0  0  0  0  0  0  0  0
    6.0292   -5.0540    2.9004 C   0  0  0  0  0  0  0  0  0  0  0  0
    5.4066   -3.6649    2.8657 C   0  0  1  0  0  0  0  0  0  0  0  0
    4.4384   -3.4346    1.8092 O   0  0  0  0  0  0  0  0  0  0  0  0
    4.0213   -1.5069   -2.6379 H   0  0  0  0  0  0  0  0  0  0  0  0
    2.4364   -2.4242   -2.4283 H   0  0  0  0  0  0  0  0  0  0  0  0
    2.0656   -3.1301    0.0285 H   0  0  0  0  0  0  0  0  0  0  0  0
    2.6915   -4.5245   -0.7896 H   0  0  0  0  0  0  0  0  0  0  0  0
    1.6568   -3.5605    2.1847 H   0  0  0  0  0  0  0  0  0  0  0  0
    1.5070   -5.1673    1.5497 H   0  0  0  0  0  0  0  0  0  0  0  0
    1.8055   -4.5658    4.2161 H   0  0  0  0  0  0  0  0  0  0  0  0
    2.0845   -6.1305    3.4843 H   0  0  0  0  0  0  0  0  0  0  0  0
    4.0217   -5.5466    4.7607 H   0  0  0  0  0  0  0  0  0  0  0  0
    5.0453   -3.5240    4.9240 H   0  0  0  0  0  0  0  0  0  0  0  0
    2.6869   -2.3087    3.4227 H   0  0  0  0  0  0  0  0  0  0  0  0
    3.4728   -1.7766    4.8632 H   0  0  0  0  0  0  0  0  0  0  0  0
    5.2814   -0.2592    0.1256 H   0  0  0  0  0  0  0  0  0  0  0  0
    6.2237   -1.2052    1.2264 H   0  0  0  0  0  0  0  0  0  0  0  0
    5.7816   -1.9506   -1.2262 H   0  0  0  0  0  0  0  0  0  0  0  0
    6.7447   -3.8465   -1.0206 H   0  0  0  0  0  0  0  0  0  0  0  0
    6.8431   -3.5465    0.6523 H   0  0  0  0  0  0  0  0  0  0  0  0
    4.9783   -5.4320   -0.9103 H   0  0  0  0  0  0  0  0  0  0  0  0
    6.2304   -5.9259    0.1395 H   0  0  0  0  0  0  0  0  0  0  0  0
    3.7401   -6.3518    0.8228 H   0  0  0  0  0  0  0  0  0  0  0  0
    4.8563   -6.8486    2.8795 H   0  0  0  0  0  0  0  0  0  0  0  0
    6.4652   -5.2669    3.8784 H   0  0  0  0  0  0  0  0  0  0  0  0
    6.8064   -5.2351    2.1613 H   0  0  0  0  0  0  0  0  0  0  0  0
    6.1837   -2.9025    2.8824 H   0  0  0  0  0  0  0  0  0  0  0  0
  1  2  2  0
  1 22  1  0
  1 23  1  0
  2 14  1  0
  2  3  1  0
  3  4  1  0
  3 24  1  0
  3 25  1  0
  4 17  1  0
  4 21  1  0
  4  5  1  1
  5  6  1  0
  5 26  1  0
  5 27  1  0
  6  7  1  0
  6 28  1  0
  6 29  1  0
  7 18  1  0
  7  8  1  0
  7 30  1  1
  8 20  1  0
  8  9  1  0
  8 31  1  1
  9 10  1  0
  9 32  1  0
  9 33  1  0
 10 11  2  0
 10 12  1  0
 12 13  1  0
 13 14  1  0
 13 34  1  0
 13 35  1  0
 14 15  1  0
 14 36  1  6
 15 16  1  0
 15 37  1  0
 15 38  1  0
 16 17  1  0
 16 39  1  0
 16 40  1  0
 17 18  1  0
 17 41  1  6
 18 19  1  0
 18 42  1  1
 19 20  1  0
 19 43  1  0
 19 44  1  0
 20 21  1  0
 20 45  1  1
M  END
>  <i_m_ct_stereo_status>  (174) 
1

>  <s_m_source_file>  (174) 
/var/tmp/pbs.5076255.sched01/tmpdonsa7tf/408ubvndgu.sdf

>  <i_m_source_file_index>  (174) 
39

>  <i_lp_mmshare_version>  (174) 
48012

>  <i_f3d_flags>  (174) 
0

>  <s_epik_input>  (174) 
W0NIMl09QyhbQ0gyXTEpW0NASF0oW0NIMl1bQ0gyXTIpW0NIMl1PQyg9TylbQ0gyXVtDQEhdKFtDQEhdKE8zKVtDSDJdNClbQ0BASF0oW0NIMl1bQ0gyXTUpW0NASF00W0NASF0yW0NAXTEzNQ==

>  <s_epik_cmdline>  (174) 
J2VwaWtfcHl0aG9uJywgJy1waHQnLCAnMi4wJywgJy1waCcsICc3LjAnLCAnLXRuJywgJzgnLCAnLW1hJywgJzIwMCcsICctaW1hZScsICc8aW5maWxlLm1hZT4nLCAnLW9tYWUnLCAnPG91dGZpbGUubWFlPic=

>  <r_lp_tautomer_probability>  (174) 
1

>  <r_epik_Ionization_Penalty>  (174) 
5.42816e-11

>  <r_epik_Ionization_Penalty_Charging>  (174) 
0

>  <r_epik_Ionization_Penalty_Neutral>  (174) 
5.42816e-11

>  <r_epik_State_Penalty>  (174) 
-0

>  <r_epik_Charging_Adjusted_Penalty>  (174) 
0

>  <i_epik_Tot_Q>  (174) 
0

>  <i_epik_Tot_abs_Q>  (174) 
0

>  <s_epik_Chemistry_Notes>  (174) 
This compound has an ester and may undergo hydrolysis at high or low pH.

>  <s_lp_Force_Field>  (174) 
OPLS3e

>  <r_lp_Energy>  (174) 
142.315

>  <b_lp_Chiralities_Consistent>  (174) 
1

>  <s_lp_Variant>  (174) 
56:0-1

>  <s_i_glide_gridfile>  (174) 
pfpi4k_grid

>  <i_i_glide_lignum>  (174) 
39

>  <i_i_glide_rotatable_bonds>  (174) 
0

>  <r_i_docking_score>  (174) 
-2.77793

>  <r_i_glide_ligand_efficiency>  (174) 
-0.132283

>  <r_i_glide_ligand_efficiency_sa>  (174) 
-0.364958

>  <r_i_glide_ligand_efficiency_ln>  (174) 
-0.686839

>  <r_i_glide_gscore>  (174) 
-2.77793

>  <r_i_glide_lipo>  (174) 
-0.325839

>  <r_i_glide_hbond>  (174) 
0

>  <r_i_glide_metal>  (174) 
-0

>  <r_i_glide_rewards>  (174) 
-1.49903

>  <r_i_glide_evdw>  (174) 
-19.0491

>  <r_i_glide_ecoul>  (174) 
-0.00404116

>  <r_i_glide_erotb>  (174) 
0

>  <r_i_glide_esite>  (174) 
0

>  <r_i_glide_emodel>  (174) 
-23.6305

>  <r_i_glide_energy>  (174) 
-19.0532

>  <r_i_glide_einternal>  (174) 
0

>  <r_i_glide_intrahb_reward>  (174) 
-0

>  <i_i_glide_confnum>  (174) 
2

>  <i_i_glide_posenum>  (174) 
35

>  <r_i_glide_eff_state_penalty>  (174) 
0

>  <ligand_id>  (174) 
56

>  <original_smiles>  (174) 
C=C1CC23CCC4C5CC(=O)OCC1CCC2C4CC5O3

>  <smiles>  (174) 
[H]C([H])=C1C([H])([H])C23OC4([H])C([H])([H])C5([H])C([H])(C([H])([H])C2([H])[H])C4([H])C([H])([H])C(=O)OC([H])([H])C1([H])C([H])([H])C([H])([H])C53[H]

$$$$
57:0:0
     RDKit          3D

 62 67  0  0  1  0  0  0  0  0999 V2000
    4.9779   -1.1329   -1.4878 C   0  0  0  0  0  0  0  0  0  0  0  0
    4.8171   -2.3004   -0.8459 C   0  0  0  0  0  0  0  0  0  0  0  0
    4.0522   -3.5554   -1.1731 C   0  0  2  0  0  0  0  0  0  0  0  0
    2.7155   -3.4410   -0.4567 C   0  0  0  0  0  0  0  0  0  0  0  0
    2.8788   -3.2574    1.0827 C   0  0  1  0  0  0  0  0  0  0  0  0
    2.4308   -4.4823    1.9190 C   0  0  0  0  0  0  0  0  0  0  0  0
    3.2791   -5.7898    1.9668 C   0  0  1  0  0  0  0  0  0  0  0  0
    3.8116   -6.2122    0.5687 C   0  0  0  0  0  0  0  0  0  0  0  0
    5.1695   -5.6360    0.1432 C   0  0  2  0  0  0  0  0  0  0  0  0
    6.2089   -6.0190    1.2007 C   0  0  0  0  0  0  0  0  0  0  0  0
    5.8442   -5.5195    2.6041 C   0  0  0  0  0  0  0  0  0  0  0  0
    4.3864   -5.7937    3.0869 C   0  0  2  0  0  0  0  0  0  0  0  0
    4.1292   -7.0341    4.0196 C   0  0  1  0  0  0  0  0  0  0  0  0
    5.3992   -7.8085    4.4348 C   0  0  0  0  0  0  0  0  0  0  0  0
    3.3861   -6.5499    5.3072 C   0  0  0  0  0  0  0  0  0  0  0  0
    2.7445   -7.6767    6.1354 C   0  0  0  0  0  0  0  0  0  0  0  0
    1.8161   -8.5013    5.2544 C   0  0  0  0  0  0  0  0  0  0  0  0
    0.6430   -8.7003    5.5677 O   0  0  0  0  0  0  0  0  0  0  0  0
    2.4509   -9.0462    3.9719 C   0  0  1  0  0  0  0  0  0  0  0  0
    1.4654   -9.8716    3.1190 C   0  0  0  0  0  0  0  0  0  0  0  0
    3.1974   -7.9364    3.1788 C   0  0  1  0  0  0  0  0  0  0  0  0
    2.3242   -6.9235    2.4286 C   0  0  0  0  0  0  0  0  0  0  0  0
    5.2479   -4.1964   -0.4235 C   0  0  2  0  0  0  0  0  0  0  0  0
    5.3418   -2.9025    0.4457 C   0  0  1  0  0  0  0  0  0  0  0  0
    6.7192   -2.3705    0.8438 C   0  0  0  0  0  0  0  0  0  0  0  0
    4.2457   -2.6477    1.4912 C   0  0  0  0  0  0  0  0  0  0  0  0
    5.5723   -0.3403   -1.0579 H   0  0  0  0  0  0  0  0  0  0  0  0
    4.4635   -0.9567   -2.4262 H   0  0  0  0  0  0  0  0  0  0  0  0
    3.9821   -3.8467   -2.2252 H   0  0  0  0  0  0  0  0  0  0  0  0
    2.2209   -2.5692   -0.8676 H   0  0  0  0  0  0  0  0  0  0  0  0
    2.0545   -4.2681   -0.7029 H   0  0  0  0  0  0  0  0  0  0  0  0
    2.1462   -2.4923    1.3429 H   0  0  0  0  0  0  0  0  0  0  0  0
    2.2342   -4.1422    2.9350 H   0  0  0  0  0  0  0  0  0  0  0  0
    1.4436   -4.7536    1.5567 H   0  0  0  0  0  0  0  0  0  0  0  0
    3.9470   -7.2950    0.5697 H   0  0  0  0  0  0  0  0  0  0  0  0
    3.0665   -6.0611   -0.2041 H   0  0  0  0  0  0  0  0  0  0  0  0
    5.4140   -6.2546   -0.7183 H   0  0  0  0  0  0  0  0  0  0  0  0
    6.2893   -7.1087    1.2388 H   0  0  0  0  0  0  0  0  0  0  0  0
    7.1970   -5.6589    0.9122 H   0  0  0  0  0  0  0  0  0  0  0  0
    6.5843   -5.8864    3.3065 H   0  0  0  0  0  0  0  0  0  0  0  0
    6.0228   -4.4558    2.6391 H   0  0  0  0  0  0  0  0  0  0  0  0
    4.1941   -4.9287    3.7228 H   0  0  0  0  0  0  0  0  0  0  0  0
    5.1544   -8.7023    5.0097 H   0  0  0  0  0  0  0  0  0  0  0  0
    6.0493   -7.1980    5.0625 H   0  0  0  0  0  0  0  0  0  0  0  0
    5.9720   -8.1380    3.5667 H   0  0  0  0  0  0  0  0  0  0  0  0
    4.0694   -5.9870    5.9424 H   0  0  0  0  0  0  0  0  0  0  0  0
    2.5950   -5.8453    5.0455 H   0  0  0  0  0  0  0  0  0  0  0  0
    3.5063   -8.3350    6.5510 H   0  0  0  0  0  0  0  0  0  0  0  0
    2.1821   -7.2708    6.9734 H   0  0  0  0  0  0  0  0  0  0  0  0
    3.2138   -9.7466    4.3114 H   0  0  0  0  0  0  0  0  0  0  0  0
    1.1179  -10.7427    3.6767 H   0  0  0  0  0  0  0  0  0  0  0  0
    1.9382  -10.2411    2.2092 H   0  0  0  0  0  0  0  0  0  0  0  0
    0.5851   -9.2966    2.8314 H   0  0  0  0  0  0  0  0  0  0  0  0
    3.8148   -8.4476    2.4395 H   0  0  0  0  0  0  0  0  0  0  0  0
    1.5531   -6.5346    3.0966 H   0  0  0  0  0  0  0  0  0  0  0  0
    1.7970   -7.3835    1.5900 H   0  0  0  0  0  0  0  0  0  0  0  0
    6.1059   -4.1972   -1.1043 H   0  0  0  0  0  0  0  0  0  0  0  0
    7.1882   -3.0150    1.5858 H   0  0  0  0  0  0  0  0  0  0  0  0
    6.6673   -1.3657    1.2665 H   0  0  0  0  0  0  0  0  0  0  0  0
    7.4043   -2.3449   -0.0046 H   0  0  0  0  0  0  0  0  0  0  0  0
    4.1211   -1.5707    1.6123 H   0  0  0  0  0  0  0  0  0  0  0  0
    4.5355   -2.9909    2.4757 H   0  0  0  0  0  0  0  0  0  0  0  0
  1  2  2  0
  1 27  1  0
  1 28  1  0
  2 24  1  0
  2  3  1  0
  3 23  1  0
  3  4  1  0
  3 29  1  6
  4  5  1  0
  4 30  1  0
  4 31  1  0
  5 26  1  0
  5  6  1  0
  5 32  1  1
  6  7  1  0
  6 33  1  0
  6 34  1  0
  7 12  1  0
  7 22  1  1
  7  8  1  0
  8  9  1  0
  8 35  1  0
  8 36  1  0
  9 10  1  0
  9 23  1  0
  9 37  1  6
 10 11  1  0
 10 38  1  0
 10 39  1  0
 11 12  1  0
 11 40  1  0
 11 41  1  0
 12 13  1  0
 12 42  1  1
 13 21  1  0
 13 14  1  1
 13 15  1  0
 14 43  1  0
 14 44  1  0
 14 45  1  0
 15 16  1  0
 15 46  1  0
 15 47  1  0
 16 17  1  0
 16 48  1  0
 16 49  1  0
 17 18  2  0
 17 19  1  0
 19 20  1  0
 19 21  1  0
 19 50  1  1
 20 51  1  0
 20 52  1  0
 20 53  1  0
 21 22  1  0
 21 54  1  6
 22 55  1  0
 22 56  1  0
 23 24  1  0
 23 57  1  6
 24 25  1  1
 24 26  1  0
 25 58  1  0
 25 59  1  0
 25 60  1  0
 26 61  1  0
 26 62  1  0
M  END
>  <i_m_ct_stereo_status>  (175) 
1

>  <s_m_source_file>  (175) 
/var/tmp/pbs.5076255.sched01/tmpdonsa7tf/408ubvndgu.sdf

>  <i_m_source_file_index>  (175) 
40

>  <i_lp_mmshare_version>  (175) 
48012

>  <i_f3d_flags>  (175) 
0

>  <s_epik_input>  (175) 
W0NIMl0xW0NAQEhdKFtDSDJdMilbQ0gyXVtDQF0zKFtDSDNdKUMoPVtDSDJdKVtDQEhdMVtDQEBIXTNbQ0BIXShbQ0gyXTQpW0NIMl1bQ0gyXVtDQEBIXShbQ0BAXTI0NSlbQ0BdNihbQ0gzXSlbQ0BIXShbQ0gyXTUpW0NASF0oW0NIM10pQyg9TylbQ0gyXVtDSDJdNg==

>  <s_epik_cmdline>  (175) 
J2VwaWtfcHl0aG9uJywgJy1waHQnLCAnMi4wJywgJy1waCcsICc3LjAnLCAnLXRuJywgJzgnLCAnLW1hJywgJzIwMCcsICctaW1hZScsICc8aW5maWxlLm1hZT4nLCAnLW9tYWUnLCAnPG91dGZpbGUubWFlPic=

>  <r_lp_tautomer_probability>  (175) 
1

>  <r_epik_Ionization_Penalty>  (175) 
8.20924e-14

>  <r_epik_Ionization_Penalty_Charging>  (175) 
0

>  <r_epik_Ionization_Penalty_Neutral>  (175) 
8.20924e-14

>  <r_epik_State_Penalty>  (175) 
-0

>  <r_epik_Charging_Adjusted_Penalty>  (175) 
0

>  <i_epik_Tot_Q>  (175) 
0

>  <i_epik_Tot_abs_Q>  (175) 
0

>  <s_lp_Force_Field>  (175) 
OPLS3e

>  <r_lp_Energy>  (175) 
71.173

>  <b_lp_Chiralities_Consistent>  (175) 
1

>  <s_lp_Variant>  (175) 
57:0-1

>  <s_i_glide_gridfile>  (175) 
pfpi4k_grid

>  <i_i_glide_lignum>  (175) 
40

>  <i_i_glide_rotatable_bonds>  (175) 
0

>  <r_i_docking_score>  (175) 
-2.46513

>  <r_i_glide_ligand_efficiency>  (175) 
-0.0948128

>  <r_i_glide_ligand_efficiency_sa>  (175) 
-0.280883

>  <r_i_glide_ligand_efficiency_ln>  (175) 
-0.578928

>  <r_i_glide_gscore>  (175) 
-2.46513

>  <r_i_glide_lipo>  (175) 
-0.50428

>  <r_i_glide_hbond>  (175) 
0

>  <r_i_glide_metal>  (175) 
-0

>  <r_i_glide_rewards>  (175) 
-1.00532

>  <r_i_glide_evdw>  (175) 
-18.1126

>  <r_i_glide_ecoul>  (175) 
-0.241429

>  <r_i_glide_erotb>  (175) 
0

>  <r_i_glide_esite>  (175) 
-0.0136853

>  <r_i_glide_emodel>  (175) 
-20.6335

>  <r_i_glide_energy>  (175) 
-18.354

>  <r_i_glide_einternal>  (175) 
0

>  <r_i_glide_intrahb_reward>  (175) 
-0

>  <i_i_glide_confnum>  (175) 
1

>  <i_i_glide_posenum>  (175) 
4

>  <r_i_glide_eff_state_penalty>  (175) 
0

>  <ligand_id>  (175) 
57

>  <original_smiles>  (175) 
C=C1C2CC3CC45CC(CCC4C4(C)CCC(=O)C(C)C4C5)C2C1(C)C3

>  <smiles>  (175) 
[H]C([H])=C1C2([H])C([H])([H])C3([H])C([H])([H])C1(C([H])([H])[H])C2([H])C1([H])C([H])([H])C([H])([H])C2([H])C(C3([H])[H])(C1([H])[H])C([H])([H])C1([H])C([H])(C([H])([H])[H])C(=O)C([H])([H])C([H])([H])C12C([H])([H])[H]

$$$$
57:0:1
     RDKit          3D

 62 67  0  0  1  0  0  0  0  0999 V2000
    3.9582   -0.6146   -4.9039 C   0  0  0  0  0  0  0  0  0  0  0  0
    4.2321   -1.4575   -3.9373 C   0  0  0  0  0  0  0  0  0  0  0  0
    4.3953   -2.9597   -3.8555 C   0  0  2  0  0  0  0  0  0  0  0  0
    3.0074   -3.5042   -3.6511 C   0  0  0  0  0  0  0  0  0  0  0  0
    2.3854   -2.9757   -2.3111 C   0  0  1  0  0  0  0  0  0  0  0  0
    2.2899   -3.9537   -1.1174 C   0  0  0  0  0  0  0  0  0  0  0  0
    3.5406   -4.3921   -0.2910 C   0  0  1  0  0  0  0  0  0  0  0  0
    4.8100   -4.6681   -1.1376 C   0  0  0  0  0  0  0  0  0  0  0  0
    5.6959   -3.5022   -1.4956 C   0  0  2  0  0  0  0  0  0  0  0  0
    6.1796   -2.8736   -0.1771 C   0  0  0  0  0  0  0  0  0  0  0  0
    5.0306   -2.4287    0.7357 C   0  0  0  0  0  0  0  0  0  0  0  0
    3.8625   -3.4439    0.9330 C   0  0  2  0  0  0  0  0  0  0  0  0
    3.8623   -4.3188    2.2352 C   0  0  1  0  0  0  0  0  0  0  0  0
    5.0034   -4.0063    3.2283 C   0  0  0  0  0  0  0  0  0  0  0  0
    2.4903   -4.1462    2.9641 C   0  0  0  0  0  0  0  0  0  0  0  0
    2.2000   -5.2024    4.0391 C   0  0  0  0  0  0  0  0  0  0  0  0
    2.3016   -6.6102    3.4402 C   0  0  0  0  0  0  0  0  0  0  0  0
    1.4140   -7.4130    3.5430 O   0  0  0  0  0  0  0  0  0  0  0  0
    3.6355   -6.8862    2.7153 C   0  0  1  0  0  0  0  0  0  0  0  0
    3.6882   -8.3150    2.1282 C   0  0  0  0  0  0  0  0  0  0  0  0
    3.9956   -5.7656    1.7055 C   0  0  1  0  0  0  0  0  0  0  0  0
    3.1919   -5.7276    0.4051 C   0  0  0  0  0  0  0  0  0  0  0  0
    5.2834   -2.5642   -2.6416 C   0  0  2  0  0  0  0  0  0  0  0  0
    4.3353   -1.3657   -2.4360 C   0  0  1  0  0  0  0  0  0  0  0  0
    4.8757   -0.0785   -2.0282 C   0  0  0  0  0  0  0  0  0  0  0  0
    2.9417   -1.5886   -1.9183 C   0  0  0  0  0  0  0  0  0  0  0  0
    3.8441    0.4631   -4.7689 H   0  0  0  0  0  0  0  0  0  0  0  0
    3.8666   -0.9766   -5.9244 H   0  0  0  0  0  0  0  0  0  0  0  0
    4.9669   -3.4638   -4.6291 H   0  0  0  0  0  0  0  0  0  0  0  0
    2.3468   -3.2190   -4.4771 H   0  0  0  0  0  0  0  0  0  0  0  0
    3.1296   -4.5634   -3.7934 H   0  0  0  0  0  0  0  0  0  0  0  0
    1.3441   -2.7856   -2.5598 H   0  0  0  0  0  0  0  0  0  0  0  0
    1.5615   -3.5477   -0.4316 H   0  0  0  0  0  0  0  0  0  0  0  0
    1.7708   -4.8162   -1.4998 H   0  0  0  0  0  0  0  0  0  0  0  0
    5.4511   -5.3849   -0.6311 H   0  0  0  0  0  0  0  0  0  0  0  0
    4.6164   -5.1456   -2.1032 H   0  0  0  0  0  0  0  0  0  0  0  0
    6.6220   -3.8998   -1.8859 H   0  0  0  0  0  0  0  0  0  0  0  0
    6.7627   -3.6218    0.3652 H   0  0  0  0  0  0  0  0  0  0  0  0
    6.8652   -2.0480   -0.3606 H   0  0  0  0  0  0  0  0  0  0  0  0
    5.4383   -2.0686    1.6807 H   0  0  0  0  0  0  0  0  0  0  0  0
    4.6089   -1.5213    0.3369 H   0  0  0  0  0  0  0  0  0  0  0  0
    3.0068   -2.7820    1.0451 H   0  0  0  0  0  0  0  0  0  0  0  0
    5.0074   -4.6983    4.0702 H   0  0  0  0  0  0  0  0  0  0  0  0
    4.9053   -3.0033    3.6442 H   0  0  0  0  0  0  0  0  0  0  0  0
    5.9793   -4.0846    2.7499 H   0  0  0  0  0  0  0  0  0  0  0  0
    2.4283   -3.1534    3.4133 H   0  0  0  0  0  0  0  0  0  0  0  0
    1.6734   -4.1812    2.2411 H   0  0  0  0  0  0  0  0  0  0  0  0
    2.9031   -5.1263    4.8635 H   0  0  0  0  0  0  0  0  0  0  0  0
    1.2001   -5.0730    4.4565 H   0  0  0  0  0  0  0  0  0  0  0  0
    4.3896   -6.8555    3.4961 H   0  0  0  0  0  0  0  0  0  0  0  0
    3.6152   -9.0583    2.9225 H   0  0  0  0  0  0  0  0  0  0  0  0
    4.6322   -8.4946    1.6097 H   0  0  0  0  0  0  0  0  0  0  0  0
    2.8759   -8.5066    1.4272 H   0  0  0  0  0  0  0  0  0  0  0  0
    5.0418   -5.9220    1.4392 H   0  0  0  0  0  0  0  0  0  0  0  0
    2.1294   -5.7826    0.6202 H   0  0  0  0  0  0  0  0  0  0  0  0
    3.4187   -6.5822   -0.2320 H   0  0  0  0  0  0  0  0  0  0  0  0
    6.2467   -2.3071   -3.0700 H   0  0  0  0  0  0  0  0  0  0  0  0
    5.0726   -0.0483   -0.9623 H   0  0  0  0  0  0  0  0  0  0  0  0
    4.2251    0.7304   -2.3644 H   0  0  0  0  0  0  0  0  0  0  0  0
    5.8365    0.0757   -2.4524 H   0  0  0  0  0  0  0  0  0  0  0  0
    2.2818   -0.8126   -2.3305 H   0  0  0  0  0  0  0  0  0  0  0  0
    2.8980   -1.4170   -0.8436 H   0  0  0  0  0  0  0  0  0  0  0  0
  1  2  2  0
  1 27  1  0
  1 28  1  0
  2 24  1  0
  2  3  1  0
  3 23  1  0
  3  4  1  0
  3 29  1  6
  4  5  1  0
  4 30  1  0
  4 31  1  0
  5 26  1  0
  5  6  1  0
  5 32  1  6
  6  7  1  0
  6 33  1  0
  6 34  1  0
  7 12  1  0
  7 22  1  1
  7  8  1  0
  8  9  1  0
  8 35  1  0
  8 36  1  0
  9 10  1  0
  9 23  1  0
  9 37  1  6
 10 11  1  0
 10 38  1  0
 10 39  1  0
 11 12  1  0
 11 40  1  0
 11 41  1  0
 12 13  1  0
 12 42  1  1
 13 21  1  0
 13 14  1  1
 13 15  1  0
 14 43  1  0
 14 44  1  0
 14 45  1  0
 15 16  1  0
 15 46  1  0
 15 47  1  0
 16 17  1  0
 16 48  1  0
 16 49  1  0
 17 18  2  0
 17 19  1  0
 19 20  1  0
 19 21  1  0
 19 50  1  1
 20 51  1  0
 20 52  1  0
 20 53  1  0
 21 22  1  0
 21 54  1  6
 22 55  1  0
 22 56  1  0
 23 24  1  0
 23 57  1  6
 24 25  1  6
 24 26  1  0
 25 58  1  0
 25 59  1  0
 25 60  1  0
 26 61  1  0
 26 62  1  0
M  END
>  <i_m_ct_stereo_status>  (176) 
1

>  <s_m_source_file>  (176) 
/var/tmp/pbs.5076255.sched01/tmpdonsa7tf/408ubvndgu.sdf

>  <i_m_source_file_index>  (176) 
40

>  <i_lp_mmshare_version>  (176) 
48012

>  <i_f3d_flags>  (176) 
0

>  <s_epik_input>  (176) 
W0NIMl0xW0NAQEhdKFtDSDJdMilbQ0gyXVtDQF0zKFtDSDNdKUMoPVtDSDJdKVtDQEhdMVtDQEBIXTNbQ0BIXShbQ0gyXTQpW0NIMl1bQ0gyXVtDQEBIXShbQ0BAXTI0NSlbQ0BdNihbQ0gzXSlbQ0BIXShbQ0gyXTUpW0NASF0oW0NIM10pQyg9TylbQ0gyXVtDSDJdNg==

>  <s_epik_cmdline>  (176) 
J2VwaWtfcHl0aG9uJywgJy1waHQnLCAnMi4wJywgJy1waCcsICc3LjAnLCAnLXRuJywgJzgnLCAnLW1hJywgJzIwMCcsICctaW1hZScsICc8aW5maWxlLm1hZT4nLCAnLW9tYWUnLCAnPG91dGZpbGUubWFlPic=

>  <r_lp_tautomer_probability>  (176) 
1

>  <r_epik_Ionization_Penalty>  (176) 
8.20924e-14

>  <r_epik_Ionization_Penalty_Charging>  (176) 
0

>  <r_epik_Ionization_Penalty_Neutral>  (176) 
8.20924e-14

>  <r_epik_State_Penalty>  (176) 
-0

>  <r_epik_Charging_Adjusted_Penalty>  (176) 
0

>  <i_epik_Tot_Q>  (176) 
0

>  <i_epik_Tot_abs_Q>  (176) 
0

>  <s_lp_Force_Field>  (176) 
OPLS3e

>  <r_lp_Energy>  (176) 
71.173

>  <b_lp_Chiralities_Consistent>  (176) 
1

>  <s_lp_Variant>  (176) 
57:0-1

>  <s_i_glide_gridfile>  (176) 
pfpi4k_grid

>  <i_i_glide_lignum>  (176) 
40

>  <i_i_glide_rotatable_bonds>  (176) 
0

>  <r_i_docking_score>  (176) 
-1.95353

>  <r_i_glide_ligand_efficiency>  (176) 
-0.0751356

>  <r_i_glide_ligand_efficiency_sa>  (176) 
-0.222589

>  <r_i_glide_ligand_efficiency_ln>  (176) 
-0.458779

>  <r_i_glide_gscore>  (176) 
-1.95353

>  <r_i_glide_lipo>  (176) 
-0.850137

>  <r_i_glide_hbond>  (176) 
0

>  <r_i_glide_metal>  (176) 
-0

>  <r_i_glide_rewards>  (176) 
-1.00532

>  <r_i_glide_evdw>  (176) 
0.0551124

>  <r_i_glide_ecoul>  (176) 
-0.662218

>  <r_i_glide_erotb>  (176) 
0

>  <r_i_glide_esite>  (176) 
-0.00149062

>  <r_i_glide_emodel>  (176) 
-0.854289

>  <r_i_glide_energy>  (176) 
-0.607106

>  <r_i_glide_einternal>  (176) 
0

>  <r_i_glide_intrahb_reward>  (176) 
-0

>  <i_i_glide_confnum>  (176) 
2

>  <i_i_glide_posenum>  (176) 
1

>  <r_i_glide_eff_state_penalty>  (176) 
0

>  <ligand_id>  (176) 
57

>  <original_smiles>  (176) 
C=C1C2CC3CC45CC(CCC4C4(C)CCC(=O)C(C)C4C5)C2C1(C)C3

>  <smiles>  (176) 
[H]C([H])=C1C2([H])C([H])([H])C3([H])C([H])([H])C1(C([H])([H])[H])C2([H])C1([H])C([H])([H])C([H])([H])C2([H])C(C3([H])[H])(C1([H])[H])C([H])([H])C1([H])C([H])(C([H])([H])[H])C(=O)C([H])([H])C([H])([H])C12C([H])([H])[H]

$$$$
58:0:0
     RDKit          3D

 85 91  0  0  1  0  0  0  0  0999 V2000
   -0.0636   -3.4813    6.4173 C   0  0  0  0  0  0  0  0  0  0  0  0
    0.6357   -2.2241    5.8555 C   0  0  2  0  0  0  0  0  0  0  0  0
   -0.4340   -1.1579    5.4738 C   0  0  0  0  0  0  0  0  0  0  0  0
   -1.5392   -1.1954    6.0905 O   0  0  0  0  0  0  0  0  0  0  0  0
   -0.1450   -0.1964    4.5816 N   0  0  0  0  0  0  0  0  0  0  0  0
   -0.9615    1.0553    4.4971 C   0  0  2  0  0  0  0  0  0  0  0  0
   -0.4698    2.0936    3.4578 C   0  0  1  0  0  0  0  0  0  0  0  0
   -1.5100    3.2118    3.2970 C   0  0  0  0  0  0  0  0  0  0  0  0
   -1.6712    3.9603    4.6298 C   0  0  2  0  0  0  0  0  0  0  0  0
   -0.3274    4.5606    5.0880 C   0  0  0  0  0  0  0  0  0  0  0  0
    0.6973    3.4316    5.2669 C   0  0  2  0  0  0  0  0  0  0  0  0
    0.8858    2.7242    3.9115 C   0  0  0  0  0  0  0  0  0  0  0  0
    0.1944    2.4182    6.3217 C   0  0  0  0  0  0  0  0  0  0  0  0
   -1.1492    1.8218    5.8591 C   0  0  1  0  0  0  0  0  0  0  0  0
   -2.1764    2.9637    5.6837 C   0  0  0  0  0  0  0  0  0  0  0  0
    0.8181   -0.5223    3.5010 C   0  0  0  0  0  0  0  0  0  0  0  0
    2.0866   -1.2338    4.0150 C   0  0  1  0  0  0  0  0  0  0  0  0
    1.5776   -2.5268    4.6665 C   0  0  1  0  0  0  0  0  0  0  0  0
    2.7713   -3.3947    5.0354 C   0  0  0  0  0  0  0  0  0  0  0  0
    3.5059   -3.8625    3.7712 C   0  0  0  0  0  0  0  0  0  0  0  0
    3.3971   -2.9179    2.5373 C   0  0  1  0  0  0  0  0  0  0  0  0
    3.2773   -1.4063    2.9632 C   0  0  2  0  0  0  0  0  0  0  0  0
    4.5690   -0.8312    3.6295 C   0  0  0  0  0  0  0  0  0  0  0  0
    3.0405   -0.6089    1.6592 C   0  0  0  0  0  0  0  0  0  0  0  0
    4.0377   -0.8878    0.5460 C   0  0  0  0  0  0  0  0  0  0  0  0
    4.0623   -2.3583    0.0859 C   0  0  1  0  0  0  0  0  0  0  0  0
    5.0095   -2.5463   -1.1690 C   0  0  0  0  0  0  0  0  0  0  0  0
    4.6865   -3.8261   -1.9707 C   0  0  0  0  0  0  0  0  0  0  0  0
    4.8394   -1.4035   -2.1981 C   0  0  0  0  0  0  0  0  0  0  0  0
    6.4916   -2.5542   -0.7166 C   0  0  0  0  0  0  0  0  0  0  0  0
    6.7722   -3.5303    0.4350 C   0  0  0  0  0  0  0  0  0  0  0  0
    5.8612   -3.2680    1.6456 C   0  0  0  0  0  0  0  0  0  0  0  0
    4.3387   -3.3110    1.3175 C   0  0  1  0  0  0  0  0  0  0  0  0
    3.9721   -4.7779    0.9688 C   0  0  0  0  0  0  0  0  0  0  0  0
   -0.7305   -3.2421    7.2517 H   0  0  0  0  0  0  0  0  0  0  0  0
    0.6430   -4.2103    6.7933 H   0  0  0  0  0  0  0  0  0  0  0  0
   -0.6671   -3.9554    5.6447 H   0  0  0  0  0  0  0  0  0  0  0  0
    1.2150   -1.7698    6.6682 H   0  0  0  0  0  0  0  0  0  0  0  0
   -1.9468    0.7253    4.1743 H   0  0  0  0  0  0  0  0  0  0  0  0
   -0.4022    1.6526    2.4607 H   0  0  0  0  0  0  0  0  0  0  0  0
   -1.1910    3.9074    2.5163 H   0  0  0  0  0  0  0  0  0  0  0  0
   -2.4700    2.8094    2.9498 H   0  0  0  0  0  0  0  0  0  0  0  0
   -2.4015    4.7421    4.4814 H   0  0  0  0  0  0  0  0  0  0  0  0
    0.0459    5.2647    4.3459 H   0  0  0  0  0  0  0  0  0  0  0  0
   -0.4447    5.1041    6.0256 H   0  0  0  0  0  0  0  0  0  0  0  0
    1.6541    3.8437    5.6020 H   0  0  0  0  0  0  0  0  0  0  0  0
    1.6738    1.9859    4.0468 H   0  0  0  0  0  0  0  0  0  0  0  0
    1.2442    3.4315    3.1524 H   0  0  0  0  0  0  0  0  0  0  0  0
    0.9168    1.6191    6.4593 H   0  0  0  0  0  0  0  0  0  0  0  0
    0.0815    2.9035    7.2943 H   0  0  0  0  0  0  0  0  0  0  0  0
   -1.5521    1.2024    6.6616 H   0  0  0  0  0  0  0  0  0  0  0  0
   -2.3530    3.4743    6.6321 H   0  0  0  0  0  0  0  0  0  0  0  0
   -3.1378    2.5601    5.3698 H   0  0  0  0  0  0  0  0  0  0  0  0
    0.2890   -1.1323    2.7653 H   0  0  0  0  0  0  0  0  0  0  0  0
    1.1652    0.3781    3.0415 H   0  0  0  0  0  0  0  0  0  0  0  0
    2.4832   -0.6255    4.8284 H   0  0  0  0  0  0  0  0  0  0  0  0
    0.9827   -3.0531    3.9290 H   0  0  0  0  0  0  0  0  0  0  0  0
    3.4547   -2.8161    5.6586 H   0  0  0  0  0  0  0  0  0  0  0  0
    2.4717   -4.2723    5.6134 H   0  0  0  0  0  0  0  0  0  0  0  0
    4.5446   -4.1058    4.0157 H   0  0  0  0  0  0  0  0  0  0  0  0
    3.0169   -4.7955    3.4989 H   0  0  0  0  0  0  0  0  0  0  0  0
    2.3966   -3.1195    2.1373 H   0  0  0  0  0  0  0  0  0  0  0  0
    5.3817   -0.6343    2.9381 H   0  0  0  0  0  0  0  0  0  0  0  0
    4.9581   -1.4716    4.4196 H   0  0  0  0  0  0  0  0  0  0  0  0
    4.3759    0.1486    4.0678 H   0  0  0  0  0  0  0  0  0  0  0  0
    2.0578   -0.8590    1.2673 H   0  0  0  0  0  0  0  0  0  0  0  0
    3.0525    0.4616    1.8505 H   0  0  0  0  0  0  0  0  0  0  0  0
    3.7068   -0.2762   -0.2817 H   0  0  0  0  0  0  0  0  0  0  0  0
    5.0307   -0.5385    0.8120 H   0  0  0  0  0  0  0  0  0  0  0  0
    3.0467   -2.5631   -0.2623 H   0  0  0  0  0  0  0  0  0  0  0  0
    4.8083   -3.7036   -3.0451 H   0  0  0  0  0  0  0  0  0  0  0  0
    3.6578   -4.1314   -1.7991 H   0  0  0  0  0  0  0  0  0  0  0  0
    5.3390   -4.6484   -1.7036 H   0  0  0  0  0  0  0  0  0  0  0  0
    5.3944   -1.6335   -3.1038 H   0  0  0  0  0  0  0  0  0  0  0  0
    5.2312   -0.4554   -1.8373 H   0  0  0  0  0  0  0  0  0  0  0  0
    3.7941   -1.2633   -2.4734 H   0  0  0  0  0  0  0  0  0  0  0  0
    7.1318   -2.7944   -1.5669 H   0  0  0  0  0  0  0  0  0  0  0  0
    6.7778   -1.5547   -0.3887 H   0  0  0  0  0  0  0  0  0  0  0  0
    6.6854   -4.5582    0.0953 H   0  0  0  0  0  0  0  0  0  0  0  0
    7.8120   -3.4121    0.7359 H   0  0  0  0  0  0  0  0  0  0  0  0
    6.1061   -3.9807    2.4315 H   0  0  0  0  0  0  0  0  0  0  0  0
    6.1513   -2.2972    2.0253 H   0  0  0  0  0  0  0  0  0  0  0  0
    4.5743   -5.1992    0.1791 H   0  0  0  0  0  0  0  0  0  0  0  0
    2.9300   -4.8699    0.6661 H   0  0  0  0  0  0  0  0  0  0  0  0
    4.1445   -5.4495    1.8067 H   0  0  0  0  0  0  0  0  0  0  0  0
  1  2  1  0
  1 35  1  0
  1 36  1  0
  1 37  1  0
  2 18  1  0
  2  3  1  0
  2 38  1  1
  3  4  2  0
  3  5  1  0
  5  6  1  0
  5 16  1  0
  6 14  1  0
  6  7  1  0
  6 39  1  6
  7 12  1  0
  7  8  1  0
  7 40  1  6
  8  9  1  0
  8 41  1  0
  8 42  1  0
  9 15  1  0
  9 10  1  0
  9 43  1  6
 10 11  1  0
 10 44  1  0
 10 45  1  0
 11 12  1  0
 11 13  1  0
 11 46  1  1
 12 47  1  0
 12 48  1  0
 13 14  1  0
 13 49  1  0
 13 50  1  0
 14 15  1  0
 14 51  1  1
 15 52  1  0
 15 53  1  0
 16 17  1  0
 16 54  1  0
 16 55  1  0
 17 22  1  0
 17 18  1  0
 17 56  1  1
 18 19  1  0
 18 57  1  6
 19 20  1  0
 19 58  1  0
 19 59  1  0
 20 21  1  0
 20 60  1  0
 20 61  1  0
 21 33  1  0
 21 22  1  0
 21 62  1  6
 22 23  1  1
 22 24  1  0
 23 63  1  0
 23 64  1  0
 23 65  1  0
 24 25  1  0
 24 66  1  0
 24 67  1  0
 25 26  1  0
 25 68  1  0
 25 69  1  0
 26 33  1  0
 26 27  1  0
 26 70  1  6
 27 28  1  0
 27 29  1  0
 27 30  1  0
 28 71  1  0
 28 72  1  0
 28 73  1  0
 29 74  1  0
 29 75  1  0
 29 76  1  0
 30 31  1  0
 30 77  1  0
 30 78  1  0
 31 32  1  0
 31 79  1  0
 31 80  1  0
 32 33  1  0
 32 81  1  0
 32 82  1  0
 33 34  1  6
 34 83  1  0
 34 84  1  0
 34 85  1  0
M  END
>  <i_m_ct_stereo_status>  (177) 
1

>  <s_m_source_file>  (177) 
/var/tmp/pbs.5076255.sched01/tmpbhhv4xqx/80i1gy0gug.sdf

>  <i_m_source_file_index>  (177) 
1

>  <i_lp_mmshare_version>  (177) 
48012

>  <i_f3d_flags>  (177) 
0

>  <s_epik_input>  (177) 
W0NIMl0xW0NASF0oW0NIMl0yKVtDSDJdW0NAQEhdKFtDSDJdMylbQ0gyXVtDQEhdMltDQEBIXShbQ0BIXTEzKU4oW0NIMl00KUMoPU8pW0NAQEhdKFtDSDNdKVtDQEBIXShbQ0BIXTRbQ0BAXTU2W0NIM10pW0NIMl1bQ0gyXVtDQEBIXTVbQ0BAXTcoW0NIM10pW0NAQEhdKFtDSDJdW0NIMl02KUMoW0NIM10pKFtDSDNdKVtDSDJdW0NIMl1bQ0gyXTc=

>  <s_epik_cmdline>  (177) 
J2VwaWtfcHl0aG9uJywgJy1waHQnLCAnMi4wJywgJy1waCcsICc3LjAnLCAnLXRuJywgJzgnLCAnLW1hJywgJzIwMCcsICctaW1hZScsICc8aW5maWxlLm1hZT4nLCAnLW9tYWUnLCAnPG91dGZpbGUubWFlPic=

>  <r_lp_tautomer_probability>  (177) 
1

>  <r_epik_Ionization_Penalty>  (177) 
8.65745e-07

>  <r_epik_Ionization_Penalty_Charging>  (177) 
0

>  <r_epik_Ionization_Penalty_Neutral>  (177) 
8.65745e-07

>  <r_epik_State_Penalty>  (177) 
-0

>  <r_epik_Charging_Adjusted_Penalty>  (177) 
0

>  <i_epik_Tot_Q>  (177) 
0

>  <i_epik_Tot_abs_Q>  (177) 
0

>  <s_lp_Force_Field>  (177) 
OPLS3e

>  <r_lp_Energy>  (177) 
102.652

>  <b_lp_Chiralities_Consistent>  (177) 
1

>  <s_lp_Variant>  (177) 
58:0-1

>  <s_i_glide_gridfile>  (177) 
pfpi4k_grid

>  <i_i_glide_lignum>  (177) 
1

>  <i_i_glide_rotatable_bonds>  (177) 
1

>  <r_i_docking_score>  (177) 
-2.77204

>  <r_i_glide_ligand_efficiency>  (177) 
-0.0815306

>  <r_i_glide_ligand_efficiency_sa>  (177) 
-0.264127

>  <r_i_glide_ligand_efficiency_ln>  (177) 
-0.612421

>  <r_i_glide_gscore>  (177) 
-2.77204

>  <r_i_glide_lipo>  (177) 
-0.30502

>  <r_i_glide_hbond>  (177) 
-0.050829

>  <r_i_glide_metal>  (177) 
-0

>  <r_i_glide_rewards>  (177) 
-0.233499

>  <r_i_glide_evdw>  (177) 
-34.1845

>  <r_i_glide_ecoul>  (177) 
-3.49274

>  <r_i_glide_erotb>  (177) 
0.0929786

>  <r_i_glide_esite>  (177) 
-0.042532

>  <r_i_glide_emodel>  (177) 
-43.4673

>  <r_i_glide_energy>  (177) 
-37.6773

>  <r_i_glide_einternal>  (177) 
0.335599

>  <r_i_glide_intrahb_reward>  (177) 
-0

>  <i_i_glide_confnum>  (177) 
1

>  <i_i_glide_posenum>  (177) 
11

>  <r_i_glide_eff_state_penalty>  (177) 
0

>  <ligand_id>  (177) 
58

>  <original_smiles>  (177) 
CC1C(=O)N(C2C3CC4CC(C3)CC2C4)CC2C1CCC1C2(C)CCC2C(C)(C)CCCC21C

>  <smiles>  (177) 
[H]C([H])([H])C1([H])C(=O)N(C2([H])C3([H])C([H])([H])C4([H])C([H])([H])C([H])(C3([H])[H])C([H])([H])C2([H])C4([H])[H])C([H])([H])C2([H])C1([H])C([H])([H])C([H])([H])C1([H])C2(C([H])([H])[H])C([H])([H])C([H])([H])C2([H])C(C([H])([H])[H])(C([H])([H])[H])C([H])([H])C([H])([H])C([H])([H])C21C([H])([H])[H]

$$$$
58:0:1
     RDKit          3D

 85 91  0  0  1  0  0  0  0  0999 V2000
    0.3541   -2.9528    6.3470 C   0  0  0  0  0  0  0  0  0  0  0  0
    0.9186   -4.0642    5.4365 C   0  0  2  0  0  0  0  0  0  0  0  0
    1.5363   -5.1814    6.3334 C   0  0  0  0  0  0  0  0  0  0  0  0
    1.0827   -5.3379    7.4783 O   0  0  0  0  0  0  0  0  0  0  0  0
    2.4701   -6.0161    5.8113 N   0  0  0  0  0  0  0  0  0  0  0  0
    2.8030   -7.3114    6.4723 C   0  0  2  0  0  0  0  0  0  0  0  0
    3.8619   -8.1671    5.7257 C   0  0  1  0  0  0  0  0  0  0  0  0
    4.2924   -9.3666    6.5963 C   0  0  0  0  0  0  0  0  0  0  0  0
    3.0770  -10.2590    6.8490 C   0  0  2  0  0  0  0  0  0  0  0  0
    2.4941  -10.7657    5.5031 C   0  0  0  0  0  0  0  0  0  0  0  0
    2.0481   -9.5653    4.6523 C   0  0  2  0  0  0  0  0  0  0  0  0
    3.2854   -8.6894    4.3694 C   0  0  0  0  0  0  0  0  0  0  0  0
    0.9767   -8.7507    5.4141 C   0  0  0  0  0  0  0  0  0  0  0  0
    1.5697   -8.2376    6.7471 C   0  0  1  0  0  0  0  0  0  0  0  0
    2.0179   -9.4447    7.6086 C   0  0  0  0  0  0  0  0  0  0  0  0
    3.3646   -5.4883    4.7562 C   0  0  0  0  0  0  0  0  0  0  0  0
    2.6202   -4.7000    3.6616 C   0  0  1  0  0  0  0  0  0  0  0  0
    1.9360   -3.5401    4.4038 C   0  0  1  0  0  0  0  0  0  0  0  0
    1.3237   -2.5932    3.3809 C   0  0  0  0  0  0  0  0  0  0  0  0
    2.4069   -1.9222    2.5227 C   0  0  0  0  0  0  0  0  0  0  0  0
    3.7241   -2.7368    2.3518 C   0  0  1  0  0  0  0  0  0  0  0  0
    3.4780   -4.2955    2.3676 C   0  0  2  0  0  0  0  0  0  0  0  0
    2.6937   -4.8155    1.1178 C   0  0  0  0  0  0  0  0  0  0  0  0
    4.8742   -4.9651    2.3470 C   0  0  0  0  0  0  0  0  0  0  0  0
    5.7996   -4.4825    1.2417 C   0  0  0  0  0  0  0  0  0  0  0  0
    6.1008   -2.9650    1.2964 C   0  0  1  0  0  0  0  0  0  0  0  0
    7.1808   -2.5587    0.2088 C   0  0  0  0  0  0  0  0  0  0  0  0
    7.8705   -1.2288    0.5536 C   0  0  0  0  0  0  0  0  0  0  0  0
    8.3377   -3.5790    0.1158 C   0  0  0  0  0  0  0  0  0  0  0  0
    6.5130   -2.4563   -1.1771 C   0  0  0  0  0  0  0  0  0  0  0  0
    5.2495   -1.5774   -1.1831 C   0  0  0  0  0  0  0  0  0  0  0  0
    4.2117   -2.0566   -0.1524 C   0  0  0  0  0  0  0  0  0  0  0  0
    4.7568   -2.1252    1.3008 C   0  0  1  0  0  0  0  0  0  0  0  0
    5.0045   -0.6698    1.7865 C   0  0  0  0  0  0  0  0  0  0  0  0
   -0.3541   -3.3476    7.0880 H   0  0  0  0  0  0  0  0  0  0  0  0
   -0.1893   -2.1944    5.7893 H   0  0  0  0  0  0  0  0  0  0  0  0
    1.1568   -2.4643    6.9037 H   0  0  0  0  0  0  0  0  0  0  0  0
    0.0768   -4.5406    4.9263 H   0  0  0  0  0  0  0  0  0  0  0  0
    3.2259   -7.0417    7.4281 H   0  0  0  0  0  0  0  0  0  0  0  0
    4.7796   -7.5943    5.5686 H   0  0  0  0  0  0  0  0  0  0  0  0
    5.0733   -9.9320    6.0909 H   0  0  0  0  0  0  0  0  0  0  0  0
    4.7290   -9.0293    7.5402 H   0  0  0  0  0  0  0  0  0  0  0  0
    3.3921  -11.1207    7.4554 H   0  0  0  0  0  0  0  0  0  0  0  0
    3.2327  -11.3490    4.9658 H   0  0  0  0  0  0  0  0  0  0  0  0
    1.6382  -11.4160    5.6679 H   0  0  0  0  0  0  0  0  0  0  0  0
    1.6183   -9.9266    3.7194 H   0  0  0  0  0  0  0  0  0  0  0  0
    2.9864   -7.8805    3.7204 H   0  0  0  0  0  0  0  0  0  0  0  0
    4.0379   -9.2816    3.8399 H   0  0  0  0  0  0  0  0  0  0  0  0
    0.6561   -7.9048    4.8167 H   0  0  0  0  0  0  0  0  0  0  0  0
    0.0886   -9.3561    5.5987 H   0  0  0  0  0  0  0  0  0  0  0  0
    0.7737   -7.7575    7.3193 H   0  0  0  0  0  0  0  0  0  0  0  0
    1.1584  -10.0675    7.8502 H   0  0  0  0  0  0  0  0  0  0  0  0
    2.4176   -9.1017    8.5683 H   0  0  0  0  0  0  0  0  0  0  0  0
    4.1196   -4.8424    5.2497 H   0  0  0  0  0  0  0  0  0  0  0  0
    3.8391   -6.3048    4.2591 H   0  0  0  0  0  0  0  0  0  0  0  0
    1.8180   -5.3446    3.3045 H   0  0  0  0  0  0  0  0  0  0  0  0
    2.7021   -3.0010    4.9506 H   0  0  0  0  0  0  0  0  0  0  0  0
    0.6530   -3.1839    2.7575 H   0  0  0  0  0  0  0  0  0  0  0  0
    0.7105   -1.8145    3.8529 H   0  0  0  0  0  0  0  0  0  0  0  0
    1.9843   -1.6186    1.5649 H   0  0  0  0  0  0  0  0  0  0  0  0
    2.6617   -1.0224    3.0656 H   0  0  0  0  0  0  0  0  0  0  0  0
    4.2465   -2.5905    3.3074 H   0  0  0  0  0  0  0  0  0  0  0  0
    3.2779   -4.8532    0.2031 H   0  0  0  0  0  0  0  0  0  0  0  0
    1.8216   -4.2246    0.9142 H   0  0  0  0  0  0  0  0  0  0  0  0
    2.3788   -5.8520    1.2554 H   0  0  0  0  0  0  0  0  0  0  0  0
    5.3808   -4.7628    3.2809 H   0  0  0  0  0  0  0  0  0  0  0  0
    4.7800   -6.0386    2.2369 H   0  0  0  0  0  0  0  0  0  0  0  0
    6.7175   -5.0476    1.3880 H   0  0  0  0  0  0  0  0  0  0  0  0
    5.4243   -4.7585    0.2612 H   0  0  0  0  0  0  0  0  0  0  0  0
    6.5623   -2.8044    2.2738 H   0  0  0  0  0  0  0  0  0  0  0  0
    8.9365   -1.2040    0.3044 H   0  0  0  0  0  0  0  0  0  0  0  0
    7.7791   -1.0563    1.6145 H   0  0  0  0  0  0  0  0  0  0  0  0
    7.4110   -0.3795    0.0852 H   0  0  0  0  0  0  0  0  0  0  0  0
    9.1305   -3.2079   -0.5364 H   0  0  0  0  0  0  0  0  0  0  0  0
    8.0122   -4.5195   -0.3153 H   0  0  0  0  0  0  0  0  0  0  0  0
    8.7770   -3.7685    1.1002 H   0  0  0  0  0  0  0  0  0  0  0  0
    7.2348   -2.0798   -1.8991 H   0  0  0  0  0  0  0  0  0  0  0  0
    6.2451   -3.4528   -1.5214 H   0  0  0  0  0  0  0  0  0  0  0  0
    5.4882   -0.5237   -1.0202 H   0  0  0  0  0  0  0  0  0  0  0  0
    4.8112   -1.6170   -2.1784 H   0  0  0  0  0  0  0  0  0  0  0  0
    3.3300   -1.4139   -0.2104 H   0  0  0  0  0  0  0  0  0  0  0  0
    3.8876   -3.0296   -0.4954 H   0  0  0  0  0  0  0  0  0  0  0  0
    5.6495   -0.0992    1.1374 H   0  0  0  0  0  0  0  0  0  0  0  0
    5.4437   -0.6448    2.7849 H   0  0  0  0  0  0  0  0  0  0  0  0
    4.0911   -0.0817    1.8057 H   0  0  0  0  0  0  0  0  0  0  0  0
  1  2  1  0
  1 35  1  0
  1 36  1  0
  1 37  1  0
  2 18  1  0
  2  3  1  0
  2 38  1  6
  3  4  2  0
  3  5  1  0
  5  6  1  0
  5 16  1  0
  6 14  1  0
  6  7  1  0
  6 39  1  1
  7 12  1  0
  7  8  1  0
  7 40  1  6
  8  9  1  0
  8 41  1  0
  8 42  1  0
  9 15  1  0
  9 10  1  0
  9 43  1  1
 10 11  1  0
 10 44  1  0
 10 45  1  0
 11 12  1  0
 11 13  1  0
 11 46  1  6
 12 47  1  0
 12 48  1  0
 13 14  1  0
 13 49  1  0
 13 50  1  0
 14 15  1  0
 14 51  1  1
 15 52  1  0
 15 53  1  0
 16 17  1  0
 16 54  1  0
 16 55  1  0
 17 22  1  0
 17 18  1  0
 17 56  1  6
 18 19  1  0
 18 57  1  1
 19 20  1  0
 19 58  1  0
 19 59  1  0
 20 21  1  0
 20 60  1  0
 20 61  1  0
 21 33  1  0
 21 22  1  0
 21 62  1  1
 22 23  1  6
 22 24  1  0
 23 63  1  0
 23 64  1  0
 23 65  1  0
 24 25  1  0
 24 66  1  0
 24 67  1  0
 25 26  1  0
 25 68  1  0
 25 69  1  0
 26 33  1  0
 26 27  1  0
 26 70  1  1
 27 28  1  0
 27 29  1  0
 27 30  1  0
 28 71  1  0
 28 72  1  0
 28 73  1  0
 29 74  1  0
 29 75  1  0
 29 76  1  0
 30 31  1  0
 30 77  1  0
 30 78  1  0
 31 32  1  0
 31 79  1  0
 31 80  1  0
 32 33  1  0
 32 81  1  0
 32 82  1  0
 33 34  1  1
 34 83  1  0
 34 84  1  0
 34 85  1  0
M  END
>  <i_m_ct_stereo_status>  (178) 
1

>  <s_m_source_file>  (178) 
/var/tmp/pbs.5076255.sched01/tmpbhhv4xqx/80i1gy0gug.sdf

>  <i_m_source_file_index>  (178) 
1

>  <i_lp_mmshare_version>  (178) 
48012

>  <i_f3d_flags>  (178) 
0

>  <s_epik_input>  (178) 
W0NIMl0xW0NASF0oW0NIMl0yKVtDSDJdW0NAQEhdKFtDSDJdMylbQ0gyXVtDQEhdMltDQEBIXShbQ0BIXTEzKU4oW0NIMl00KUMoPU8pW0NAQEhdKFtDSDNdKVtDQEBIXShbQ0BIXTRbQ0BAXTU2W0NIM10pW0NIMl1bQ0gyXVtDQEBIXTVbQ0BAXTcoW0NIM10pW0NAQEhdKFtDSDJdW0NIMl02KUMoW0NIM10pKFtDSDNdKVtDSDJdW0NIMl1bQ0gyXTc=

>  <s_epik_cmdline>  (178) 
J2VwaWtfcHl0aG9uJywgJy1waHQnLCAnMi4wJywgJy1waCcsICc3LjAnLCAnLXRuJywgJzgnLCAnLW1hJywgJzIwMCcsICctaW1hZScsICc8aW5maWxlLm1hZT4nLCAnLW9tYWUnLCAnPG91dGZpbGUubWFlPic=

>  <r_lp_tautomer_probability>  (178) 
1

>  <r_epik_Ionization_Penalty>  (178) 
8.65745e-07

>  <r_epik_Ionization_Penalty_Charging>  (178) 
0

>  <r_epik_Ionization_Penalty_Neutral>  (178) 
8.65745e-07

>  <r_epik_State_Penalty>  (178) 
-0

>  <r_epik_Charging_Adjusted_Penalty>  (178) 
0

>  <i_epik_Tot_Q>  (178) 
0

>  <i_epik_Tot_abs_Q>  (178) 
0

>  <s_lp_Force_Field>  (178) 
OPLS3e

>  <r_lp_Energy>  (178) 
102.652

>  <b_lp_Chiralities_Consistent>  (178) 
1

>  <s_lp_Variant>  (178) 
58:0-1

>  <s_i_glide_gridfile>  (178) 
pfpi4k_grid

>  <i_i_glide_lignum>  (178) 
1

>  <i_i_glide_rotatable_bonds>  (178) 
1

>  <r_i_docking_score>  (178) 
-2.18564

>  <r_i_glide_ligand_efficiency>  (178) 
-0.0642835

>  <r_i_glide_ligand_efficiency_sa>  (178) 
-0.208254

>  <r_i_glide_ligand_efficiency_ln>  (178) 
-0.482869

>  <r_i_glide_gscore>  (178) 
-2.18564

>  <r_i_glide_lipo>  (178) 
-0.679474

>  <r_i_glide_hbond>  (178) 
0

>  <r_i_glide_metal>  (178) 
-0

>  <r_i_glide_rewards>  (178) 
-0.233499

>  <r_i_glide_evdw>  (178) 
-23.2138

>  <r_i_glide_ecoul>  (178) 
-1.36636

>  <r_i_glide_erotb>  (178) 
0.0929786

>  <r_i_glide_esite>  (178) 
0

>  <r_i_glide_emodel>  (178) 
-28.7493

>  <r_i_glide_energy>  (178) 
-24.5802

>  <r_i_glide_einternal>  (178) 
0.373746

>  <r_i_glide_intrahb_reward>  (178) 
-0

>  <i_i_glide_confnum>  (178) 
3

>  <i_i_glide_posenum>  (178) 
7

>  <r_i_glide_eff_state_penalty>  (178) 
0

>  <ligand_id>  (178) 
58

>  <original_smiles>  (178) 
CC1C(=O)N(C2C3CC4CC(C3)CC2C4)CC2C1CCC1C2(C)CCC2C(C)(C)CCCC21C

>  <smiles>  (178) 
[H]C([H])([H])C1([H])C(=O)N(C2([H])C3([H])C([H])([H])C4([H])C([H])([H])C([H])(C3([H])[H])C([H])([H])C2([H])C4([H])[H])C([H])([H])C2([H])C1([H])C([H])([H])C([H])([H])C1([H])C2(C([H])([H])[H])C([H])([H])C([H])([H])C2([H])C(C([H])([H])[H])(C([H])([H])[H])C([H])([H])C([H])([H])C([H])([H])C21C([H])([H])[H]

$$$$
58:0:2
     RDKit          3D

 85 91  0  0  1  0  0  0  0  0999 V2000
    0.2361   -6.2033    9.7406 C   0  0  0  0  0  0  0  0  0  0  0  0
    0.3260   -6.0359    8.2058 C   0  0  2  0  0  0  0  0  0  0  0  0
    1.0925   -7.2445    7.6010 C   0  0  0  0  0  0  0  0  0  0  0  0
    1.0658   -8.3136    8.2115 O   0  0  0  0  0  0  0  0  0  0  0  0
    1.6930   -7.1077    6.3995 N   0  0  0  0  0  0  0  0  0  0  0  0
    2.0973   -8.3248    5.6046 C   0  0  2  0  0  0  0  0  0  0  0  0
    2.6989   -8.0140    4.1951 C   0  0  1  0  0  0  0  0  0  0  0  0
    3.2687   -9.3083    3.5697 C   0  0  0  0  0  0  0  0  0  0  0  0
    2.1408  -10.3359    3.3753 C   0  0  2  0  0  0  0  0  0  0  0  0
    1.0433   -9.7450    2.4694 C   0  0  0  0  0  0  0  0  0  0  0  0
    0.4693   -8.4602    3.0945 C   0  0  2  0  0  0  0  0  0  0  0  0
    1.6019   -7.4345    3.2486 C   0  0  0  0  0  0  0  0  0  0  0  0
   -0.1349   -8.7770    4.4772 C   0  0  0  0  0  0  0  0  0  0  0  0
    0.9545   -9.3795    5.3926 C   0  0  1  0  0  0  0  0  0  0  0  0
    1.5377  -10.6615    4.7530 C   0  0  0  0  0  0  0  0  0  0  0  0
    2.2314   -5.7886    6.0215 C   0  0  0  0  0  0  0  0  0  0  0  0
    1.2383   -4.6305    6.2771 C   0  0  1  0  0  0  0  0  0  0  0  0
    0.9543   -4.6783    7.7921 C   0  0  1  0  0  0  0  0  0  0  0  0
    0.1083   -3.4582    8.1738 C   0  0  0  0  0  0  0  0  0  0  0  0
    0.9219   -2.1706    7.9759 C   0  0  0  0  0  0  0  0  0  0  0  0
    2.0123   -2.2216    6.8598 C   0  0  1  0  0  0  0  0  0  0  0  0
    1.6188   -3.1942    5.6926 C   0  0  2  0  0  0  0  0  0  0  0  0
    0.4033   -2.7030    4.8481 C   0  0  0  0  0  0  0  0  0  0  0  0
    2.8443   -3.2607    4.7499 C   0  0  0  0  0  0  0  0  0  0  0  0
    3.3896   -1.9085    4.2980 C   0  0  0  0  0  0  0  0  0  0  0  0
    3.8556   -1.0100    5.4725 C   0  0  1  0  0  0  0  0  0  0  0  0
    4.5314    0.3200    4.9480 C   0  0  0  0  0  0  0  0  0  0  0  0
    5.4537    0.9778    6.0100 C   0  0  0  0  0  0  0  0  0  0  0  0
    5.4532    0.0589    3.7330 C   0  0  0  0  0  0  0  0  0  0  0  0
    3.4432    1.3164    4.4821 C   0  0  0  0  0  0  0  0  0  0  0  0
    2.3381    1.5538    5.5190 C   0  0  0  0  0  0  0  0  0  0  0  0
    1.6760    0.2367    5.9597 C   0  0  0  0  0  0  0  0  0  0  0  0
    2.6779   -0.8199    6.5132 C   0  0  1  0  0  0  0  0  0  0  0  0
    3.2264   -0.2863    7.8649 C   0  0  0  0  0  0  0  0  0  0  0  0
   -0.1782   -7.1716   10.0180 H   0  0  0  0  0  0  0  0  0  0  0  0
   -0.3998   -5.4541   10.2154 H   0  0  0  0  0  0  0  0  0  0  0  0
    1.2274   -6.1493   10.1904 H   0  0  0  0  0  0  0  0  0  0  0  0
   -0.6887   -6.0912    7.7964 H   0  0  0  0  0  0  0  0  0  0  0  0
    2.8765   -8.7963    6.1994 H   0  0  0  0  0  0  0  0  0  0  0  0
    3.5521   -7.3422    4.2862 H   0  0  0  0  0  0  0  0  0  0  0  0
    3.7346   -9.0766    2.6149 H   0  0  0  0  0  0  0  0  0  0  0  0
    4.0586   -9.7230    4.1945 H   0  0  0  0  0  0  0  0  0  0  0  0
    2.5462  -11.2416    2.9145 H   0  0  0  0  0  0  0  0  0  0  0  0
    1.4631   -9.5051    1.4955 H   0  0  0  0  0  0  0  0  0  0  0  0
    0.2440  -10.4719    2.3002 H   0  0  0  0  0  0  0  0  0  0  0  0
   -0.3146   -8.0592    2.4504 H   0  0  0  0  0  0  0  0  0  0  0  0
    1.1453   -6.5188    3.6305 H   0  0  0  0  0  0  0  0  0  0  0  0
    2.0369   -7.1955    2.2742 H   0  0  0  0  0  0  0  0  0  0  0  0
   -0.5503   -7.8845    4.9374 H   0  0  0  0  0  0  0  0  0  0  0  0
   -0.9711   -9.4586    4.3585 H   0  0  0  0  0  0  0  0  0  0  0  0
    0.4936   -9.7119    6.3231 H   0  0  0  0  0  0  0  0  0  0  0  0
    0.7636  -11.4196    4.6535 H   0  0  0  0  0  0  0  0  0  0  0  0
    2.3011  -11.0946    5.4040 H   0  0  0  0  0  0  0  0  0  0  0  0
    3.1581   -5.6170    6.5734 H   0  0  0  0  0  0  0  0  0  0  0  0
    2.4410   -5.7610    4.9676 H   0  0  0  0  0  0  0  0  0  0  0  0
    0.2951   -4.9225    5.8009 H   0  0  0  0  0  0  0  0  0  0  0  0
    1.9124   -4.6082    8.3074 H   0  0  0  0  0  0  0  0  0  0  0  0
   -0.7890   -3.4455    7.5590 H   0  0  0  0  0  0  0  0  0  0  0  0
   -0.2066   -3.5143    9.2156 H   0  0  0  0  0  0  0  0  0  0  0  0
    0.2370   -1.3282    7.8343 H   0  0  0  0  0  0  0  0  0  0  0  0
    1.4361   -2.0120    8.9225 H   0  0  0  0  0  0  0  0  0  0  0  0
    2.8331   -2.7629    7.3340 H   0  0  0  0  0  0  0  0  0  0  0  0
    0.6252   -1.8846    4.1719 H   0  0  0  0  0  0  0  0  0  0  0  0
   -0.4459   -2.4037    5.4578 H   0  0  0  0  0  0  0  0  0  0  0  0
    0.0565   -3.4866    4.1742 H   0  0  0  0  0  0  0  0  0  0  0  0
    3.6698   -3.7630    5.2529 H   0  0  0  0  0  0  0  0  0  0  0  0
    2.6117   -3.8315    3.8494 H   0  0  0  0  0  0  0  0  0  0  0  0
    4.2320   -2.1547    3.6530 H   0  0  0  0  0  0  0  0  0  0  0  0
    2.6719   -1.3891    3.6682 H   0  0  0  0  0  0  0  0  0  0  0  0
    4.6395   -1.5792    5.9722 H   0  0  0  0  0  0  0  0  0  0  0  0
    6.3415    1.4351    5.5694 H   0  0  0  0  0  0  0  0  0  0  0  0
    5.8119    0.2508    6.7398 H   0  0  0  0  0  0  0  0  0  0  0  0
    4.9602    1.7887    6.5416 H   0  0  0  0  0  0  0  0  0  0  0  0
    6.0243    0.9474    3.4746 H   0  0  0  0  0  0  0  0  0  0  0  0
    4.8915   -0.2166    2.8353 H   0  0  0  0  0  0  0  0  0  0  0  0
    6.1815   -0.7273    3.9442 H   0  0  0  0  0  0  0  0  0  0  0  0
    3.9003    2.2697    4.2133 H   0  0  0  0  0  0  0  0  0  0  0  0
    2.9761    0.9530    3.5649 H   0  0  0  0  0  0  0  0  0  0  0  0
    2.7274    2.1014    6.3758 H   0  0  0  0  0  0  0  0  0  0  0  0
    1.5833    2.2042    5.0787 H   0  0  0  0  0  0  0  0  0  0  0  0
    0.9028    0.4606    6.6940 H   0  0  0  0  0  0  0  0  0  0  0  0
    1.1541   -0.1365    5.0891 H   0  0  0  0  0  0  0  0  0  0  0  0
    3.6637    0.6981    7.7945 H   0  0  0  0  0  0  0  0  0  0  0  0
    3.9811   -0.9525    8.2847 H   0  0  0  0  0  0  0  0  0  0  0  0
    2.4371   -0.1596    8.6066 H   0  0  0  0  0  0  0  0  0  0  0  0
  1  2  1  0
  1 35  1  0
  1 36  1  0
  1 37  1  0
  2 18  1  0
  2  3  1  0
  2 38  1  6
  3  4  2  0
  3  5  1  0
  5  6  1  0
  5 16  1  0
  6 14  1  0
  6  7  1  0
  6 39  1  1
  7 12  1  0
  7  8  1  0
  7 40  1  1
  8  9  1  0
  8 41  1  0
  8 42  1  0
  9 15  1  0
  9 10  1  0
  9 43  1  6
 10 11  1  0
 10 44  1  0
 10 45  1  0
 11 12  1  0
 11 13  1  0
 11 46  1  6
 12 47  1  0
 12 48  1  0
 13 14  1  0
 13 49  1  0
 13 50  1  0
 14 15  1  0
 14 51  1  1
 15 52  1  0
 15 53  1  0
 16 17  1  0
 16 54  1  0
 16 55  1  0
 17 22  1  0
 17 18  1  0
 17 56  1  6
 18 19  1  0
 18 57  1  1
 19 20  1  0
 19 58  1  0
 19 59  1  0
 20 21  1  0
 20 60  1  0
 20 61  1  0
 21 33  1  0
 21 22  1  0
 21 62  1  1
 22 23  1  6
 22 24  1  0
 23 63  1  0
 23 64  1  0
 23 65  1  0
 24 25  1  0
 24 66  1  0
 24 67  1  0
 25 26  1  0
 25 68  1  0
 25 69  1  0
 26 33  1  0
 26 27  1  0
 26 70  1  1
 27 28  1  0
 27 29  1  0
 27 30  1  0
 28 71  1  0
 28 72  1  0
 28 73  1  0
 29 74  1  0
 29 75  1  0
 29 76  1  0
 30 31  1  0
 30 77  1  0
 30 78  1  0
 31 32  1  0
 31 79  1  0
 31 80  1  0
 32 33  1  0
 32 81  1  0
 32 82  1  0
 33 34  1  1
 34 83  1  0
 34 84  1  0
 34 85  1  0
M  END
>  <i_m_ct_stereo_status>  (179) 
1

>  <s_m_source_file>  (179) 
/var/tmp/pbs.5076255.sched01/tmpbhhv4xqx/80i1gy0gug.sdf

>  <i_m_source_file_index>  (179) 
1

>  <i_lp_mmshare_version>  (179) 
48012

>  <i_f3d_flags>  (179) 
0

>  <s_epik_input>  (179) 
W0NIMl0xW0NASF0oW0NIMl0yKVtDSDJdW0NAQEhdKFtDSDJdMylbQ0gyXVtDQEhdMltDQEBIXShbQ0BIXTEzKU4oW0NIMl00KUMoPU8pW0NAQEhdKFtDSDNdKVtDQEBIXShbQ0BIXTRbQ0BAXTU2W0NIM10pW0NIMl1bQ0gyXVtDQEBIXTVbQ0BAXTcoW0NIM10pW0NAQEhdKFtDSDJdW0NIMl02KUMoW0NIM10pKFtDSDNdKVtDSDJdW0NIMl1bQ0gyXTc=

>  <s_epik_cmdline>  (179) 
J2VwaWtfcHl0aG9uJywgJy1waHQnLCAnMi4wJywgJy1waCcsICc3LjAnLCAnLXRuJywgJzgnLCAnLW1hJywgJzIwMCcsICctaW1hZScsICc8aW5maWxlLm1hZT4nLCAnLW9tYWUnLCAnPG91dGZpbGUubWFlPic=

>  <r_lp_tautomer_probability>  (179) 
1

>  <r_epik_Ionization_Penalty>  (179) 
8.65745e-07

>  <r_epik_Ionization_Penalty_Charging>  (179) 
0

>  <r_epik_Ionization_Penalty_Neutral>  (179) 
8.65745e-07

>  <r_epik_State_Penalty>  (179) 
-0

>  <r_epik_Charging_Adjusted_Penalty>  (179) 
0

>  <i_epik_Tot_Q>  (179) 
0

>  <i_epik_Tot_abs_Q>  (179) 
0

>  <s_lp_Force_Field>  (179) 
OPLS3e

>  <r_lp_Energy>  (179) 
102.652

>  <b_lp_Chiralities_Consistent>  (179) 
1

>  <s_lp_Variant>  (179) 
58:0-1

>  <s_i_glide_gridfile>  (179) 
pfpi4k_grid

>  <i_i_glide_lignum>  (179) 
1

>  <i_i_glide_rotatable_bonds>  (179) 
1

>  <r_i_docking_score>  (179) 
-1.72945

>  <r_i_glide_ligand_efficiency>  (179) 
-0.0508663

>  <r_i_glide_ligand_efficiency_sa>  (179) 
-0.164787

>  <r_i_glide_ligand_efficiency_ln>  (179) 
-0.382085

>  <r_i_glide_gscore>  (179) 
-1.72945

>  <r_i_glide_lipo>  (179) 
-0.331394

>  <r_i_glide_hbond>  (179) 
0

>  <r_i_glide_metal>  (179) 
-0

>  <r_i_glide_rewards>  (179) 
-0.233499

>  <r_i_glide_evdw>  (179) 
-24.9178

>  <r_i_glide_ecoul>  (179) 
-0.0179972

>  <r_i_glide_erotb>  (179) 
0.0929786

>  <r_i_glide_esite>  (179) 
-0.00894958

>  <r_i_glide_emodel>  (179) 
-28.5184

>  <r_i_glide_energy>  (179) 
-24.9358

>  <r_i_glide_einternal>  (179) 
0.0415551

>  <r_i_glide_intrahb_reward>  (179) 
-0

>  <i_i_glide_confnum>  (179) 
1

>  <i_i_glide_posenum>  (179) 
4

>  <r_i_glide_eff_state_penalty>  (179) 
0

>  <ligand_id>  (179) 
58

>  <original_smiles>  (179) 
CC1C(=O)N(C2C3CC4CC(C3)CC2C4)CC2C1CCC1C2(C)CCC2C(C)(C)CCCC21C

>  <smiles>  (179) 
[H]C([H])([H])C1([H])C(=O)N(C2([H])C3([H])C([H])([H])C4([H])C([H])([H])C([H])(C3([H])[H])C([H])([H])C2([H])C4([H])[H])C([H])([H])C2([H])C1([H])C([H])([H])C([H])([H])C1([H])C2(C([H])([H])[H])C([H])([H])C([H])([H])C2([H])C(C([H])([H])[H])(C([H])([H])[H])C([H])([H])C([H])([H])C([H])([H])C21C([H])([H])[H]

$$$$
59:0:0
     RDKit          3D

 60 64  0  0  1  0  0  0  0  0999 V2000
   -0.2063   -6.2190    5.1480 C   0  0  0  0  0  0  0  0  0  0  0  0
    0.6077   -7.1570    4.2321 C   0  0  0  0  0  0  0  0  0  0  0  0
    0.0692   -8.5939    4.4286 C   0  0  0  0  0  0  0  0  0  0  0  0
    0.4584   -6.7024    2.7832 C   0  0  0  0  0  0  0  0  0  0  0  0
   -0.5929   -6.7302    2.1429 O   0  0  0  0  0  0  0  0  0  0  0  0
    1.7359   -6.1190    2.2282 C   0  0  0  0  0  0  0  0  0  0  0  0
    2.6685   -5.9352    3.4509 C   0  0  2  0  0  0  0  0  0  0  0  0
    2.7108   -4.4675    3.9223 C   0  0  0  0  0  0  0  0  0  0  0  0
    3.3515   -3.5521    2.8530 C   0  0  0  0  0  0  0  0  0  0  0  0
    4.7418   -4.0363    2.3421 C   0  0  1  0  0  0  0  0  0  0  0  0
    4.7440   -5.5609    2.0115 C   0  0  1  0  0  0  0  0  0  0  0  0
    6.1740   -6.0241    1.7098 C   0  0  0  0  0  0  0  0  0  0  0  0
    6.7664   -5.2192    0.5593 C   0  0  0  0  0  0  0  0  0  0  0  0
    6.7835   -3.7027    0.8332 C   0  0  1  0  0  0  0  0  0  0  0  0
    7.4430   -2.9381   -0.3376 C   0  0  0  0  0  0  0  0  0  0  0  0
    6.5393   -2.8569   -1.5789 C   0  0  0  0  0  0  0  0  0  0  0  0
    5.1346   -2.3350   -1.2437 C   0  0  0  0  0  0  0  0  0  0  0  0
    4.4901   -3.1215   -0.0851 C   0  0  0  0  0  0  0  0  0  0  0  0
    5.3682   -3.1470    1.2040 C   0  0  1  0  0  0  0  0  0  0  0  0
    5.5053   -1.7009    1.7472 C   0  0  0  0  0  0  0  0  0  0  0  0
    4.1230   -6.3433    3.1924 C   0  0  2  0  0  0  0  0  0  0  0  0
    4.0726   -7.8656    3.1413 C   0  0  0  0  0  0  0  0  0  0  0  0
    3.0502   -8.2257    4.2347 C   0  0  0  0  0  0  0  0  0  0  0  0
    2.1444   -6.9794    4.4746 C   0  0  2  0  0  0  0  0  0  0  0  0
   -0.0067   -6.4179    6.2023 H   0  0  0  0  0  0  0  0  0  0  0  0
   -1.2772   -6.3513    4.9953 H   0  0  0  0  0  0  0  0  0  0  0  0
    0.0072   -5.1695    4.9654 H   0  0  0  0  0  0  0  0  0  0  0  0
    0.3899   -9.0233    5.3791 H   0  0  0  0  0  0  0  0  0  0  0  0
    0.3803   -9.2700    3.6341 H   0  0  0  0  0  0  0  0  0  0  0  0
   -1.0203   -8.6191    4.4277 H   0  0  0  0  0  0  0  0  0  0  0  0
    2.1450   -6.8094    1.4903 H   0  0  0  0  0  0  0  0  0  0  0  0
    1.5099   -5.1842    1.7196 H   0  0  0  0  0  0  0  0  0  0  0  0
    1.7197   -4.0917    4.1672 H   0  0  0  0  0  0  0  0  0  0  0  0
    3.2939   -4.4025    4.8410 H   0  0  0  0  0  0  0  0  0  0  0  0
    2.6627   -3.4381    2.0169 H   0  0  0  0  0  0  0  0  0  0  0  0
    3.4501   -2.5645    3.3014 H   0  0  0  0  0  0  0  0  0  0  0  0
    5.4094   -3.9242    3.1997 H   0  0  0  0  0  0  0  0  0  0  0  0
    4.1410   -5.7437    1.1214 H   0  0  0  0  0  0  0  0  0  0  0  0
    6.8020   -5.9309    2.5968 H   0  0  0  0  0  0  0  0  0  0  0  0
    6.1693   -7.0772    1.4289 H   0  0  0  0  0  0  0  0  0  0  0  0
    7.7766   -5.5735    0.3589 H   0  0  0  0  0  0  0  0  0  0  0  0
    6.1727   -5.4413   -0.3242 H   0  0  0  0  0  0  0  0  0  0  0  0
    7.4471   -3.5619    1.6833 H   0  0  0  0  0  0  0  0  0  0  0  0
    7.7113   -1.9333   -0.0134 H   0  0  0  0  0  0  0  0  0  0  0  0
    8.3905   -3.4068   -0.6072 H   0  0  0  0  0  0  0  0  0  0  0  0
    7.0089   -2.2173   -2.3230 H   0  0  0  0  0  0  0  0  0  0  0  0
    6.4607   -3.8387   -2.0437 H   0  0  0  0  0  0  0  0  0  0  0  0
    5.1718   -1.2717   -1.0000 H   0  0  0  0  0  0  0  0  0  0  0  0
    4.5006   -2.4204   -2.1276 H   0  0  0  0  0  0  0  0  0  0  0  0
    3.5085   -2.6920    0.1198 H   0  0  0  0  0  0  0  0  0  0  0  0
    4.2962   -4.1345   -0.4341 H   0  0  0  0  0  0  0  0  0  0  0  0
    6.0577   -1.0440    1.0789 H   0  0  0  0  0  0  0  0  0  0  0  0
    6.0262   -1.6845    2.7052 H   0  0  0  0  0  0  0  0  0  0  0  0
    4.5324   -1.2308    1.8860 H   0  0  0  0  0  0  0  0  0  0  0  0
    4.7048   -6.0973    4.0826 H   0  0  0  0  0  0  0  0  0  0  0  0
    3.7293   -8.2226    2.1660 H   0  0  0  0  0  0  0  0  0  0  0  0
    5.0470   -8.3147    3.3394 H   0  0  0  0  0  0  0  0  0  0  0  0
    2.5263   -9.1390    3.9611 H   0  0  0  0  0  0  0  0  0  0  0  0
    3.5790   -8.4470    5.1642 H   0  0  0  0  0  0  0  0  0  0  0  0
    2.3293   -6.6284    5.4934 H   0  0  0  0  0  0  0  0  0  0  0  0
  1  2  1  0
  1 25  1  0
  1 26  1  0
  1 27  1  0
  2 24  1  0
  2  3  1  0
  2  4  1  0
  3 28  1  0
  3 29  1  0
  3 30  1  0
  4  5  2  0
  4  6  1  0
  7  6  1  6
  6 31  1  0
  6 32  1  0
  7 21  1  0
  7 24  1  0
  7  8  1  0
  8  9  1  0
  8 33  1  0
  8 34  1  0
  9 10  1  0
  9 35  1  0
  9 36  1  0
 10 19  1  0
 10 11  1  0
 10 37  1  1
 11 12  1  0
 11 21  1  0
 11 38  1  6
 12 13  1  0
 12 39  1  0
 12 40  1  0
 13 14  1  0
 13 41  1  0
 13 42  1  0
 14 19  1  0
 14 15  1  0
 14 43  1  1
 15 16  1  0
 15 44  1  0
 15 45  1  0
 16 17  1  0
 16 46  1  0
 16 47  1  0
 17 18  1  0
 17 48  1  0
 17 49  1  0
 18 19  1  0
 18 50  1  0
 18 51  1  0
 19 20  1  1
 20 52  1  0
 20 53  1  0
 20 54  1  0
 21 22  1  0
 21 55  1  1
 22 23  1  0
 22 56  1  0
 22 57  1  0
 23 24  1  0
 23 58  1  0
 23 59  1  0
 24 60  1  1
M  END
>  <i_m_ct_stereo_status>  (180) 
1

>  <s_m_source_file>  (180) 
/var/tmp/pbs.5076255.sched01/tmpbhhv4xqx/80i1gy0gug.sdf

>  <i_m_source_file_index>  (180) 
2

>  <i_lp_mmshare_version>  (180) 
48012

>  <i_f3d_flags>  (180) 
0

>  <s_epik_input>  (180) 
Tz1DKFtDSDJdMSlDKFtDSDNdKShbQ0gzXSlbQ0BIXTJbQ0gyXVtDSDJdW0NASF0oW0NAQF0xMjMpW0NASF00W0NASF0oW0NIMl1bQ0gyXTMpW0NAQF01KFtDSDNdKVtDQEBIXShbQ0gyXVtDSDJdNClbQ0gyXVtDSDJdW0NIMl1bQ0gyXTU=

>  <s_epik_cmdline>  (180) 
J2VwaWtfcHl0aG9uJywgJy1waHQnLCAnMi4wJywgJy1waCcsICc3LjAnLCAnLXRuJywgJzgnLCAnLW1hJywgJzIwMCcsICctaW1hZScsICc8aW5maWxlLm1hZT4nLCAnLW9tYWUnLCAnPG91dGZpbGUubWFlPic=

>  <r_lp_tautomer_probability>  (180) 
1

>  <r_epik_Ionization_Penalty>  (180) 
2.32858e-14

>  <r_epik_Ionization_Penalty_Charging>  (180) 
0

>  <r_epik_Ionization_Penalty_Neutral>  (180) 
2.32858e-14

>  <r_epik_State_Penalty>  (180) 
-0

>  <r_epik_Charging_Adjusted_Penalty>  (180) 
0

>  <i_epik_Tot_Q>  (180) 
0

>  <i_epik_Tot_abs_Q>  (180) 
0

>  <s_lp_Force_Field>  (180) 
OPLS3e

>  <r_lp_Energy>  (180) 
44.923

>  <b_lp_Chiralities_Consistent>  (180) 
1

>  <s_lp_Variant>  (180) 
59:0-1

>  <s_i_glide_gridfile>  (180) 
pfpi4k_grid

>  <i_i_glide_lignum>  (180) 
2

>  <i_i_glide_rotatable_bonds>  (180) 
0

>  <r_i_docking_score>  (180) 
-3.63379

>  <r_i_glide_ligand_efficiency>  (180) 
-0.151408

>  <r_i_glide_ligand_efficiency_sa>  (180) 
-0.436736

>  <r_i_glide_ligand_efficiency_ln>  (180) 
-0.869732

>  <r_i_glide_gscore>  (180) 
-3.63379

>  <r_i_glide_lipo>  (180) 
-0.571832

>  <r_i_glide_hbond>  (180) 
-0.16

>  <r_i_glide_metal>  (180) 
-0

>  <r_i_glide_rewards>  (180) 
-1.1691

>  <r_i_glide_evdw>  (180) 
-24.3724

>  <r_i_glide_ecoul>  (180) 
-2.99685

>  <r_i_glide_erotb>  (180) 
0

>  <r_i_glide_esite>  (180) 
-0.0647001

>  <r_i_glide_emodel>  (180) 
-34.0923

>  <r_i_glide_energy>  (180) 
-27.3693

>  <r_i_glide_einternal>  (180) 
0

>  <r_i_glide_intrahb_reward>  (180) 
-0

>  <i_i_glide_confnum>  (180) 
1

>  <i_i_glide_posenum>  (180) 
30

>  <r_i_glide_eff_state_penalty>  (180) 
0

>  <ligand_id>  (180) 
59

>  <original_smiles>  (180) 
CC1(C)C(=O)CC23CCC4C(CCC5CCCCC54C)C2CCC13

>  <smiles>  (180) 
[H]C([H])([H])C1(C([H])([H])[H])C(=O)C([H])([H])C23C([H])([H])C([H])([H])C4([H])C([H])(C([H])([H])C([H])([H])C5([H])C([H])([H])C([H])([H])C([H])([H])C([H])([H])C54C([H])([H])[H])C2([H])C([H])([H])C([H])([H])C13[H]

$$$$
59:0:1
     RDKit          3D

 60 64  0  0  1  0  0  0  0  0999 V2000
    0.0603   -7.9772    4.9210 C   0  0  0  0  0  0  0  0  0  0  0  0
    0.6931   -8.3179    3.5533 C   0  0  0  0  0  0  0  0  0  0  0  0
    0.2171   -9.7328    3.1472 C   0  0  0  0  0  0  0  0  0  0  0  0
    0.2609   -7.2719    2.5294 C   0  0  0  0  0  0  0  0  0  0  0  0
   -0.8928   -7.1173    2.1164 O   0  0  0  0  0  0  0  0  0  0  0  0
    1.4054   -6.3819    2.1041 C   0  0  0  0  0  0  0  0  0  0  0  0
    2.5601   -6.6867    3.0920 C   0  0  2  0  0  0  0  0  0  0  0  0
    2.6859   -5.5969    4.1769 C   0  0  0  0  0  0  0  0  0  0  0  0
    3.1049   -4.2399    3.5623 C   0  0  0  0  0  0  0  0  0  0  0  0
    4.3732   -4.3050    2.6605 C   0  0  1  0  0  0  0  0  0  0  0  0
    4.3176   -5.5030    1.6634 C   0  0  1  0  0  0  0  0  0  0  0  0
    5.6598   -5.6376    0.9345 C   0  0  0  0  0  0  0  0  0  0  0  0
    6.0193   -4.3452    0.2011 C   0  0  0  0  0  0  0  0  0  0  0  0
    6.0824   -3.1346    1.1577 C   0  0  1  0  0  0  0  0  0  0  0  0
    6.5061   -1.8583    0.3895 C   0  0  0  0  0  0  0  0  0  0  0  0
    5.3828   -1.3062   -0.5049 C   0  0  0  0  0  0  0  0  0  0  0  0
    4.0621   -1.1380    0.2599 C   0  0  0  0  0  0  0  0  0  0  0  0
    3.6563   -2.4205    1.0115 C   0  0  0  0  0  0  0  0  0  0  0  0
    4.7623   -2.9424    1.9763 C   0  0  1  0  0  0  0  0  0  0  0  0
    4.9939   -1.8927    3.0962 C   0  0  0  0  0  0  0  0  0  0  0  0
    3.9419   -6.7912    2.4339 C   0  0  2  0  0  0  0  0  0  0  0  0
    3.9069   -8.1274    1.7015 C   0  0  0  0  0  0  0  0  0  0  0  0
    3.1036   -9.0358    2.6496 C   0  0  0  0  0  0  0  0  0  0  0  0
    2.2484   -8.1250    3.5852 C   0  0  2  0  0  0  0  0  0  0  0  0
    0.4608   -8.6116    5.7126 H   0  0  0  0  0  0  0  0  0  0  0  0
   -1.0186   -8.1294    4.9038 H   0  0  0  0  0  0  0  0  0  0  0  0
    0.2273   -6.9433    5.2121 H   0  0  0  0  0  0  0  0  0  0  0  0
    0.7160  -10.5084    3.7279 H   0  0  0  0  0  0  0  0  0  0  0  0
    0.3814   -9.9431    2.0914 H   0  0  0  0  0  0  0  0  0  0  0  0
   -0.8528   -9.8551    3.3119 H   0  0  0  0  0  0  0  0  0  0  0  0
    1.6662   -6.6273    1.0755 H   0  0  0  0  0  0  0  0  0  0  0  0
    1.0802   -5.3453    2.1317 H   0  0  0  0  0  0  0  0  0  0  0  0
    1.7598   -5.4694    4.7330 H   0  0  0  0  0  0  0  0  0  0  0  0
    3.4370   -5.9022    4.9075 H   0  0  0  0  0  0  0  0  0  0  0  0
    2.2674   -3.8258    3.0021 H   0  0  0  0  0  0  0  0  0  0  0  0
    3.2766   -3.5542    4.3916 H   0  0  0  0  0  0  0  0  0  0  0  0
    5.1930   -4.5365    3.3433 H   0  0  0  0  0  0  0  0  0  0  0  0
    3.5519   -5.3172    0.9090 H   0  0  0  0  0  0  0  0  0  0  0  0
    6.4472   -5.8945    1.6433 H   0  0  0  0  0  0  0  0  0  0  0  0
    5.6069   -6.4502    0.2119 H   0  0  0  0  0  0  0  0  0  0  0  0
    6.9822   -4.4714   -0.2896 H   0  0  0  0  0  0  0  0  0  0  0  0
    5.2959   -4.1769   -0.5955 H   0  0  0  0  0  0  0  0  0  0  0  0
    6.8854   -3.3552    1.8631 H   0  0  0  0  0  0  0  0  0  0  0  0
    6.8238   -1.0861    1.0903 H   0  0  0  0  0  0  0  0  0  0  0  0
    7.3886   -2.0685   -0.2150 H   0  0  0  0  0  0  0  0  0  0  0  0
    5.6804   -0.3427   -0.9164 H   0  0  0  0  0  0  0  0  0  0  0  0
    5.2285   -1.9683   -1.3571 H   0  0  0  0  0  0  0  0  0  0  0  0
    4.1386   -0.2987    0.9538 H   0  0  0  0  0  0  0  0  0  0  0  0
    3.2704   -0.8718   -0.4428 H   0  0  0  0  0  0  0  0  0  0  0  0
    2.7287   -2.2247    1.5485 H   0  0  0  0  0  0  0  0  0  0  0  0
    3.4098   -3.1789    0.2690 H   0  0  0  0  0  0  0  0  0  0  0  0
    5.4048   -0.9560    2.7257 H   0  0  0  0  0  0  0  0  0  0  0  0
    5.6857   -2.2645    3.8525 H   0  0  0  0  0  0  0  0  0  0  0  0
    4.0626   -1.6288    3.5960 H   0  0  0  0  0  0  0  0  0  0  0  0
    4.6829   -6.9181    3.2261 H   0  0  0  0  0  0  0  0  0  0  0  0
    3.4049   -8.0350    0.7401 H   0  0  0  0  0  0  0  0  0  0  0  0
    4.9052   -8.5249    1.5145 H   0  0  0  0  0  0  0  0  0  0  0  0
    2.5470   -9.7717    2.0721 H   0  0  0  0  0  0  0  0  0  0  0  0
    3.7973   -9.6077    3.2696 H   0  0  0  0  0  0  0  0  0  0  0  0
    2.6228   -8.2557    4.6020 H   0  0  0  0  0  0  0  0  0  0  0  0
  1  2  1  0
  1 25  1  0
  1 26  1  0
  1 27  1  0
  2 24  1  0
  2  3  1  0
  2  4  1  0
  3 28  1  0
  3 29  1  0
  3 30  1  0
  4  5  2  0
  4  6  1  0
  7  6  1  6
  6 31  1  0
  6 32  1  0
  7 21  1  0
  7 24  1  0
  7  8  1  0
  8  9  1  0
  8 33  1  0
  8 34  1  0
  9 10  1  0
  9 35  1  0
  9 36  1  0
 10 19  1  0
 10 11  1  0
 10 37  1  1
 11 12  1  0
 11 21  1  0
 11 38  1  6
 12 13  1  0
 12 39  1  0
 12 40  1  0
 13 14  1  0
 13 41  1  0
 13 42  1  0
 14 19  1  0
 14 15  1  0
 14 43  1  1
 15 16  1  0
 15 44  1  0
 15 45  1  0
 16 17  1  0
 16 46  1  0
 16 47  1  0
 17 18  1  0
 17 48  1  0
 17 49  1  0
 18 19  1  0
 18 50  1  0
 18 51  1  0
 19 20  1  1
 20 52  1  0
 20 53  1  0
 20 54  1  0
 21 22  1  0
 21 55  1  1
 22 23  1  0
 22 56  1  0
 22 57  1  0
 23 24  1  0
 23 58  1  0
 23 59  1  0
 24 60  1  1
M  END
>  <i_m_ct_stereo_status>  (181) 
1

>  <s_m_source_file>  (181) 
/var/tmp/pbs.5076255.sched01/tmpbhhv4xqx/80i1gy0gug.sdf

>  <i_m_source_file_index>  (181) 
2

>  <i_lp_mmshare_version>  (181) 
48012

>  <i_f3d_flags>  (181) 
0

>  <s_epik_input>  (181) 
Tz1DKFtDSDJdMSlDKFtDSDNdKShbQ0gzXSlbQ0BIXTJbQ0gyXVtDSDJdW0NASF0oW0NAQF0xMjMpW0NASF00W0NASF0oW0NIMl1bQ0gyXTMpW0NAQF01KFtDSDNdKVtDQEBIXShbQ0gyXVtDSDJdNClbQ0gyXVtDSDJdW0NIMl1bQ0gyXTU=

>  <s_epik_cmdline>  (181) 
J2VwaWtfcHl0aG9uJywgJy1waHQnLCAnMi4wJywgJy1waCcsICc3LjAnLCAnLXRuJywgJzgnLCAnLW1hJywgJzIwMCcsICctaW1hZScsICc8aW5maWxlLm1hZT4nLCAnLW9tYWUnLCAnPG91dGZpbGUubWFlPic=

>  <r_lp_tautomer_probability>  (181) 
1

>  <r_epik_Ionization_Penalty>  (181) 
2.32858e-14

>  <r_epik_Ionization_Penalty_Charging>  (181) 
0

>  <r_epik_Ionization_Penalty_Neutral>  (181) 
2.32858e-14

>  <r_epik_State_Penalty>  (181) 
-0

>  <r_epik_Charging_Adjusted_Penalty>  (181) 
0

>  <i_epik_Tot_Q>  (181) 
0

>  <i_epik_Tot_abs_Q>  (181) 
0

>  <s_lp_Force_Field>  (181) 
OPLS3e

>  <r_lp_Energy>  (181) 
44.923

>  <b_lp_Chiralities_Consistent>  (181) 
1

>  <s_lp_Variant>  (181) 
59:0-1

>  <s_i_glide_gridfile>  (181) 
pfpi4k_grid

>  <i_i_glide_lignum>  (181) 
2

>  <i_i_glide_rotatable_bonds>  (181) 
0

>  <r_i_docking_score>  (181) 
-3.47926

>  <r_i_glide_ligand_efficiency>  (181) 
-0.144969

>  <r_i_glide_ligand_efficiency_sa>  (181) 
-0.418163

>  <r_i_glide_ligand_efficiency_ln>  (181) 
-0.832746

>  <r_i_glide_gscore>  (181) 
-3.47926

>  <r_i_glide_lipo>  (181) 
-0.438989

>  <r_i_glide_hbond>  (181) 
-0.16

>  <r_i_glide_metal>  (181) 
-0

>  <r_i_glide_rewards>  (181) 
-1.1691

>  <r_i_glide_evdw>  (181) 
-26.8416

>  <r_i_glide_ecoul>  (181) 
-2.07516

>  <r_i_glide_erotb>  (181) 
0

>  <r_i_glide_esite>  (181) 
-0.0578101

>  <r_i_glide_emodel>  (181) 
-35.3543

>  <r_i_glide_energy>  (181) 
-28.9167

>  <r_i_glide_einternal>  (181) 
0

>  <r_i_glide_intrahb_reward>  (181) 
-0

>  <i_i_glide_confnum>  (181) 
2

>  <i_i_glide_posenum>  (181) 
39

>  <r_i_glide_eff_state_penalty>  (181) 
0

>  <ligand_id>  (181) 
59

>  <original_smiles>  (181) 
CC1(C)C(=O)CC23CCC4C(CCC5CCCCC54C)C2CCC13

>  <smiles>  (181) 
[H]C([H])([H])C1(C([H])([H])[H])C(=O)C([H])([H])C23C([H])([H])C([H])([H])C4([H])C([H])(C([H])([H])C([H])([H])C5([H])C([H])([H])C([H])([H])C([H])([H])C([H])([H])C54C([H])([H])[H])C2([H])C([H])([H])C([H])([H])C13[H]

$$$$
59:0:2
     RDKit          3D

 60 64  0  0  1  0  0  0  0  0999 V2000
    5.4568   -3.2092   -2.8451 C   0  0  0  0  0  0  0  0  0  0  0  0
    4.4935   -2.3851   -1.9689 C   0  0  0  0  0  0  0  0  0  0  0  0
    4.5102   -0.9283   -2.4807 C   0  0  0  0  0  0  0  0  0  0  0  0
    3.0924   -2.9733   -2.0860 C   0  0  0  0  0  0  0  0  0  0  0  0
    2.4080   -2.9181   -3.1071 O   0  0  0  0  0  0  0  0  0  0  0  0
    2.6557   -3.6507   -0.8028 C   0  0  0  0  0  0  0  0  0  0  0  0
    3.9272   -3.7218    0.0869 C   0  0  2  0  0  0  0  0  0  0  0  0
    4.5598   -5.1286    0.0802 C   0  0  0  0  0  0  0  0  0  0  0  0
    3.6208   -6.1612    0.7438 C   0  0  0  0  0  0  0  0  0  0  0  0
    3.1245   -5.7713    2.1667 C   0  0  1  0  0  0  0  0  0  0  0  0
    2.6371   -4.2923    2.2188 C   0  0  1  0  0  0  0  0  0  0  0  0
    2.3260   -3.8889    3.6656 C   0  0  0  0  0  0  0  0  0  0  0  0
    1.2855   -4.8232    4.2859 C   0  0  0  0  0  0  0  0  0  0  0  0
    1.7350   -6.3016    4.2484 C   0  0  1  0  0  0  0  0  0  0  0  0
    0.6808   -7.2062    4.9362 C   0  0  0  0  0  0  0  0  0  0  0  0
   -0.5870   -7.4026    4.0874 C   0  0  0  0  0  0  0  0  0  0  0  0
   -0.2589   -7.8437    2.6515 C   0  0  0  0  0  0  0  0  0  0  0  0
    0.7883   -6.9288    1.9818 C   0  0  0  0  0  0  0  0  0  0  0  0
    2.1039   -6.7873    2.8061 C   0  0  1  0  0  0  0  0  0  0  0  0
    2.8004   -8.1715    2.8857 C   0  0  0  0  0  0  0  0  0  0  0  0
    3.6932   -3.3732    1.5632 C   0  0  2  0  0  0  0  0  0  0  0  0
    3.4799   -1.8635    1.5541 C   0  0  0  0  0  0  0  0  0  0  0  0
    4.4834   -1.3691    0.4980 C   0  0  0  0  0  0  0  0  0  0  0  0
    4.8123   -2.5651   -0.4482 C   0  0  2  0  0  0  0  0  0  0  0  0
    6.4946   -2.9091   -2.6911 H   0  0  0  0  0  0  0  0  0  0  0  0
    5.2325   -3.0787   -3.9028 H   0  0  0  0  0  0  0  0  0  0  0  0
    5.3881   -4.2755   -2.6463 H   0  0  0  0  0  0  0  0  0  0  0  0
    5.4143   -0.4031   -2.1771 H   0  0  0  0  0  0  0  0  0  0  0  0
    3.6552   -0.3569   -2.1252 H   0  0  0  0  0  0  0  0  0  0  0  0
    4.4589   -0.8865   -3.5681 H   0  0  0  0  0  0  0  0  0  0  0  0
    1.8677   -3.0511   -0.3519 H   0  0  0  0  0  0  0  0  0  0  0  0
    2.2290   -4.6233   -1.0385 H   0  0  0  0  0  0  0  0  0  0  0  0
    4.7952   -5.4589   -0.9296 H   0  0  0  0  0  0  0  0  0  0  0  0
    5.5060   -5.1065    0.6224 H   0  0  0  0  0  0  0  0  0  0  0  0
    2.7686   -6.3209    0.0859 H   0  0  0  0  0  0  0  0  0  0  0  0
    4.1600   -7.1066    0.7841 H   0  0  0  0  0  0  0  0  0  0  0  0
    4.0148   -5.8066    2.7982 H   0  0  0  0  0  0  0  0  0  0  0  0
    1.7186   -4.1984    1.6486 H   0  0  0  0  0  0  0  0  0  0  0  0
    3.2387   -3.9025    4.2619 H   0  0  0  0  0  0  0  0  0  0  0  0
    1.9445   -2.8688    3.6941 H   0  0  0  0  0  0  0  0  0  0  0  0
    1.1072   -4.5186    5.3161 H   0  0  0  0  0  0  0  0  0  0  0  0
    0.3364   -4.6943    3.7685 H   0  0  0  0  0  0  0  0  0  0  0  0
    2.6390   -6.3582    4.8587 H   0  0  0  0  0  0  0  0  0  0  0  0
    1.1158   -8.1794    5.1636 H   0  0  0  0  0  0  0  0  0  0  0  0
    0.4088   -6.7886    5.9064 H   0  0  0  0  0  0  0  0  0  0  0  0
   -1.2263   -8.1505    4.5591 H   0  0  0  0  0  0  0  0  0  0  0  0
   -1.1640   -6.4788    4.0720 H   0  0  0  0  0  0  0  0  0  0  0  0
    0.0957   -8.8768    2.6565 H   0  0  0  0  0  0  0  0  0  0  0  0
   -1.1736   -7.8519    2.0566 H   0  0  0  0  0  0  0  0  0  0  0  0
    0.9948   -7.3163    0.9838 H   0  0  0  0  0  0  0  0  0  0  0  0
    0.3344   -5.9518    1.8343 H   0  0  0  0  0  0  0  0  0  0  0  0
    2.2260   -8.9053    3.4474 H   0  0  0  0  0  0  0  0  0  0  0  0
    3.7768   -8.0990    3.3671 H   0  0  0  0  0  0  0  0  0  0  0  0
    2.9454   -8.6052    1.8962 H   0  0  0  0  0  0  0  0  0  0  0  0
    4.6308   -3.5313    2.1005 H   0  0  0  0  0  0  0  0  0  0  0  0
    2.4610   -1.6047    1.2586 H   0  0  0  0  0  0  0  0  0  0  0  0
    3.6713   -1.4154    2.5296 H   0  0  0  0  0  0  0  0  0  0  0  0
    4.0920   -0.4787    0.0094 H   0  0  0  0  0  0  0  0  0  0  0  0
    5.4053   -1.0603    0.9941 H   0  0  0  0  0  0  0  0  0  0  0  0
    5.8654   -2.8154   -0.3114 H   0  0  0  0  0  0  0  0  0  0  0  0
  1  2  1  0
  1 25  1  0
  1 26  1  0
  1 27  1  0
  2 24  1  0
  2  3  1  0
  2  4  1  0
  3 28  1  0
  3 29  1  0
  3 30  1  0
  4  5  2  0
  4  6  1  0
  7  6  1  6
  6 31  1  0
  6 32  1  0
  7 21  1  0
  7 24  1  0
  7  8  1  0
  8  9  1  0
  8 33  1  0
  8 34  1  0
  9 10  1  0
  9 35  1  0
  9 36  1  0
 10 19  1  0
 10 11  1  0
 10 37  1  1
 11 12  1  0
 11 21  1  0
 11 38  1  6
 12 13  1  0
 12 39  1  0
 12 40  1  0
 13 14  1  0
 13 41  1  0
 13 42  1  0
 14 19  1  0
 14 15  1  0
 14 43  1  1
 15 16  1  0
 15 44  1  0
 15 45  1  0
 16 17  1  0
 16 46  1  0
 16 47  1  0
 17 18  1  0
 17 48  1  0
 17 49  1  0
 18 19  1  0
 18 50  1  0
 18 51  1  0
 19 20  1  1
 20 52  1  0
 20 53  1  0
 20 54  1  0
 21 22  1  0
 21 55  1  1
 22 23  1  0
 22 56  1  0
 22 57  1  0
 23 24  1  0
 23 58  1  0
 23 59  1  0
 24 60  1  6
M  END
>  <i_m_ct_stereo_status>  (182) 
1

>  <s_m_source_file>  (182) 
/var/tmp/pbs.5076255.sched01/tmpbhhv4xqx/80i1gy0gug.sdf

>  <i_m_source_file_index>  (182) 
2

>  <i_lp_mmshare_version>  (182) 
48012

>  <i_f3d_flags>  (182) 
0

>  <s_epik_input>  (182) 
Tz1DKFtDSDJdMSlDKFtDSDNdKShbQ0gzXSlbQ0BIXTJbQ0gyXVtDSDJdW0NASF0oW0NAQF0xMjMpW0NASF00W0NASF0oW0NIMl1bQ0gyXTMpW0NAQF01KFtDSDNdKVtDQEBIXShbQ0gyXVtDSDJdNClbQ0gyXVtDSDJdW0NIMl1bQ0gyXTU=

>  <s_epik_cmdline>  (182) 
J2VwaWtfcHl0aG9uJywgJy1waHQnLCAnMi4wJywgJy1waCcsICc3LjAnLCAnLXRuJywgJzgnLCAnLW1hJywgJzIwMCcsICctaW1hZScsICc8aW5maWxlLm1hZT4nLCAnLW9tYWUnLCAnPG91dGZpbGUubWFlPic=

>  <r_lp_tautomer_probability>  (182) 
1

>  <r_epik_Ionization_Penalty>  (182) 
2.32858e-14

>  <r_epik_Ionization_Penalty_Charging>  (182) 
0

>  <r_epik_Ionization_Penalty_Neutral>  (182) 
2.32858e-14

>  <r_epik_State_Penalty>  (182) 
-0

>  <r_epik_Charging_Adjusted_Penalty>  (182) 
0

>  <i_epik_Tot_Q>  (182) 
0

>  <i_epik_Tot_abs_Q>  (182) 
0

>  <s_lp_Force_Field>  (182) 
OPLS3e

>  <r_lp_Energy>  (182) 
44.923

>  <b_lp_Chiralities_Consistent>  (182) 
1

>  <s_lp_Variant>  (182) 
59:0-1

>  <s_i_glide_gridfile>  (182) 
pfpi4k_grid

>  <i_i_glide_lignum>  (182) 
2

>  <i_i_glide_rotatable_bonds>  (182) 
0

>  <r_i_docking_score>  (182) 
-2.99291

>  <r_i_glide_ligand_efficiency>  (182) 
-0.124705

>  <r_i_glide_ligand_efficiency_sa>  (182) 
-0.359711

>  <r_i_glide_ligand_efficiency_ln>  (182) 
-0.716341

>  <r_i_glide_gscore>  (182) 
-2.99291

>  <r_i_glide_lipo>  (182) 
-0.274455

>  <r_i_glide_hbond>  (182) 
0

>  <r_i_glide_metal>  (182) 
-0

>  <r_i_glide_rewards>  (182) 
-1.1691

>  <r_i_glide_evdw>  (182) 
-31.8315

>  <r_i_glide_ecoul>  (182) 
0.412576

>  <r_i_glide_erotb>  (182) 
0

>  <r_i_glide_esite>  (182) 
-0.0196625

>  <r_i_glide_emodel>  (182) 
-36.9376

>  <r_i_glide_energy>  (182) 
-31.419

>  <r_i_glide_einternal>  (182) 
0

>  <r_i_glide_intrahb_reward>  (182) 
-0

>  <i_i_glide_confnum>  (182) 
2

>  <i_i_glide_posenum>  (182) 
14

>  <r_i_glide_eff_state_penalty>  (182) 
0

>  <ligand_id>  (182) 
59

>  <original_smiles>  (182) 
CC1(C)C(=O)CC23CCC4C(CCC5CCCCC54C)C2CCC13

>  <smiles>  (182) 
[H]C([H])([H])C1(C([H])([H])[H])C(=O)C([H])([H])C23C([H])([H])C([H])([H])C4([H])C([H])(C([H])([H])C([H])([H])C5([H])C([H])([H])C([H])([H])C([H])([H])C([H])([H])C54C([H])([H])[H])C2([H])C([H])([H])C([H])([H])C13[H]

$$$$
60:1:0
     RDKit          3D

 66 71  0  0  1  0  0  0  0  0999 V2000
   -0.6834   -5.3836    6.0855 C   0  0  0  0  0  0  0  0  0  0  0  0
   -0.2732   -6.4840    5.1051 C   0  0  0  0  0  0  0  0  0  0  0  0
   -1.1515   -7.3778    4.6286 C   0  0  0  0  0  0  0  0  0  0  0  0
   -0.8027   -8.4842    3.6493 C   0  0  0  0  0  0  0  0  0  0  0  0
    0.7106   -8.5435    3.3517 C   0  0  1  0  0  0  0  0  0  0  0  0
    0.9542   -9.3555    2.2230 O   0  0  0  0  0  0  0  0  0  0  0  0
    1.3936   -7.1461    3.2630 C   0  0  2  0  0  0  0  0  0  0  0  0
    0.7288   -6.3306    2.1251 C   0  0  0  0  0  0  0  0  0  0  0  0
    2.9374   -7.2747    2.9578 C   0  0  1  0  0  0  0  0  0  0  0  0
    3.6963   -5.9728    2.5879 C   0  0  0  0  0  0  0  0  0  0  0  0
    5.1054   -6.3035    2.0754 C   0  0  1  0  0  0  0  0  0  0  0  0
    5.7969   -5.0838    1.7951 O   0  0  0  0  0  0  0  0  0  0  0  0
    5.5979   -4.4330    0.6432 C   0  0  0  0  0  0  0  0  0  0  0  0
    4.9179   -4.9138   -0.2749 O   0  0  0  0  0  0  0  0  0  0  0  0
    6.2285   -3.1134    0.6224 C   0  0  0  0  0  0  0  0  0  0  0  0
    6.0489   -2.1176   -0.2776 C   0  0  0  0  0  0  0  0  0  0  0  0
    5.2856   -2.0441   -1.5444 C   0  0  0  0  0  0  0  0  0  0  0  0
    5.2212   -3.1124   -2.4614 C   0  0  0  0  0  0  0  0  0  0  0  0
    4.3756   -3.0436   -3.5854 C   0  0  0  0  0  0  0  0  0  0  0  0
    3.6766   -1.8620   -3.8778 C   0  0  0  0  0  0  0  0  0  0  0  0
    3.8076   -0.7472   -3.0283 C   0  0  0  0  0  0  0  0  0  0  0  0
    4.5801   -0.8554   -1.8575 C   0  0  0  0  0  0  0  0  0  0  0  0
    5.9721   -7.1100    3.0548 C   0  0  2  0  0  0  0  0  0  0  0  0
    7.0464   -7.8860    2.2820 C   0  0  1  0  0  0  0  0  0  0  0  0
    8.3552   -8.0202    3.0733 C   0  0  0  0  0  0  0  0  0  0  0  0
    6.3551   -9.2216    2.0560 C   0  0  0  0  0  0  0  0  0  0  0  0
    6.6852  -10.0438    1.2121 O   0  0  0  0  0  0  0  0  0  0  0  0
    5.3279   -9.3355    2.8802 O   0  0  0  0  0  0  0  0  0  0  0  0
    5.1931   -8.2395    3.7564 C   0  0  2  0  0  0  0  0  0  0  0  0
    3.7108   -7.9731    4.0942 C   0  0  1  0  0  0  0  0  0  0  0  0
    3.5714   -7.2459    5.4483 C   0  0  0  0  0  0  0  0  0  0  0  0
    2.2106   -6.6057    5.6966 C   0  0  1  0  0  0  0  0  0  0  0  0
    1.9422   -5.3852    4.9848 O   0  0  0  0  0  0  0  0  0  0  0  0
    1.1591   -6.5058    4.6357 C   0  0  2  0  0  0  0  0  0  0  0  0
   -0.1433   -5.4400    7.0238 H   0  0  0  0  0  0  0  0  0  0  0  0
   -1.7480   -5.4629    6.3132 H   0  0  0  0  0  0  0  0  0  0  0  0
   -0.5130   -4.3996    5.6433 H   0  0  0  0  0  0  0  0  0  0  0  0
   -2.1909   -7.3392    4.9154 H   0  0  0  0  0  0  0  0  0  0  0  0
   -1.1246   -9.4354    4.0705 H   0  0  0  0  0  0  0  0  0  0  0  0
   -1.3933   -8.3172    2.7485 H   0  0  0  0  0  0  0  0  0  0  0  0
    1.1416   -9.0699    4.1988 H   0  0  0  0  0  0  0  0  0  0  0  0
    0.3792   -9.1039    1.5068 H   0  0  0  0  0  0  0  0  0  0  0  0
    1.0217   -5.2803    2.1629 H   0  0  0  0  0  0  0  0  0  0  0  0
   -0.3609   -6.3520    2.1680 H   0  0  0  0  0  0  0  0  0  0  0  0
    1.0122   -6.7320    1.1496 H   0  0  0  0  0  0  0  0  0  0  0  0
    3.0189   -7.9064    2.0720 H   0  0  0  0  0  0  0  0  0  0  0  0
    3.1819   -5.4197    1.8015 H   0  0  0  0  0  0  0  0  0  0  0  0
    3.7991   -5.2864    3.4258 H   0  0  0  0  0  0  0  0  0  0  0  0
    5.0125   -6.8881    1.1618 H   0  0  0  0  0  0  0  0  0  0  0  0
    6.8993   -2.9041    1.4455 H   0  0  0  0  0  0  0  0  0  0  0  0
    6.5730   -1.2098   -0.0321 H   0  0  0  0  0  0  0  0  0  0  0  0
    5.7946   -4.0135   -2.3068 H   0  0  0  0  0  0  0  0  0  0  0  0
    4.2755   -3.9150   -4.2138 H   0  0  0  0  0  0  0  0  0  0  0  0
    3.0352   -1.7951   -4.7521 H   0  0  0  0  0  0  0  0  0  0  0  0
    3.2813    0.1710   -3.2551 H   0  0  0  0  0  0  0  0  0  0  0  0
    4.6041   -0.0119   -1.1800 H   0  0  0  0  0  0  0  0  0  0  0  0
    6.4054   -6.4226    3.7858 H   0  0  0  0  0  0  0  0  0  0  0  0
    7.2682   -7.4370    1.3130 H   0  0  0  0  0  0  0  0  0  0  0  0
    9.0573   -8.6489    2.5306 H   0  0  0  0  0  0  0  0  0  0  0  0
    8.2093   -8.4745    4.0570 H   0  0  0  0  0  0  0  0  0  0  0  0
    8.8467   -7.0499    3.2078 H   0  0  0  0  0  0  0  0  0  0  0  0
    5.7261   -8.4906    4.6695 H   0  0  0  0  0  0  0  0  0  0  0  0
    3.2816   -8.9632    4.2285 H   0  0  0  0  0  0  0  0  0  0  0  0
    3.7342   -7.9768    6.2387 H   0  0  0  0  0  0  0  0  0  0  0  0
    4.3372   -6.4783    5.5751 H   0  0  0  0  0  0  0  0  0  0  0  0
    1.9099   -6.5813    6.7403 H   0  0  0  0  0  0  0  0  0  0  0  0
  1  2  1  0
  1 35  1  0
  1 36  1  0
  1 37  1  0
  2 34  1  0
  2  3  2  0
  3  4  1  0
  3 38  1  0
  4  5  1  0
  4 39  1  0
  4 40  1  0
  5  6  1  0
  5  7  1  0
  5 41  1  1
  6 42  1  0
  7 34  1  0
  7  8  1  6
  7  9  1  0
  8 43  1  0
  8 44  1  0
  8 45  1  0
  9 30  1  0
  9 10  1  0
  9 46  1  6
 10 11  1  0
 10 47  1  0
 10 48  1  0
 11 12  1  0
 11 23  1  0
 11 49  1  6
 12 13  1  0
 13 14  2  0
 13 15  1  0
 15 16  2  3
 15 50  1  0
 16 17  1  0
 16 51  1  0
 17 22  1  0
 17 18  2  0
 18 19  1  0
 18 52  1  0
 19 20  2  0
 19 53  1  0
 20 21  1  0
 20 54  1  0
 21 22  2  0
 21 55  1  0
 22 56  1  0
 23 29  1  0
 23 24  1  0
 23 57  1  1
 24 25  1  0
 24 26  1  0
 24 58  1  6
 25 59  1  0
 25 60  1  0
 25 61  1  0
 26 27  2  0
 26 28  1  0
 28 29  1  0
 29 30  1  0
 29 62  1  1
 30 31  1  0
 30 63  1  1
 31 32  1  0
 31 64  1  0
 31 65  1  0
 32 34  1  0
 32 33  1  0
 32 66  1  1
 34 33  1  6
M  END
>  <i_m_ct_stereo_status>  (183) 
1

>  <s_m_source_file>  (183) 
/var/tmp/pbs.5076255.sched01/tmpbhhv4xqx/80i1gy0gug.sdf

>  <i_m_source_file_index>  (183) 
4

>  <i_lp_mmshare_version>  (183) 
48012

>  <i_f3d_flags>  (183) 
0

>  <s_epik_input>  (183) 
W0NIM11DMT1bQ0hdW0NIMl1bQ0BASF0oW09IXSlbQ0BdKFtDQEBdMTIzKShbQ0gzXSlbQ0BASF00W0NASF0oW0NIMl1bQ0BIXTJPMylbQ0BASF01W0NAQEhdKFtDQEBIXShbQ0gzXSlDKD1PKU81KVtDQEBIXShbQ0gyXTQpT0MoPU8pL1tDSF09W0NIXS9jNltjSF1bY0hdW2NIXVtjSF1bY0hdNg==

>  <s_epik_cmdline>  (183) 
J2VwaWtfcHl0aG9uJywgJy1waHQnLCAnMi4wJywgJy1waCcsICc3LjAnLCAnLXRuJywgJzgnLCAnLW1hJywgJzIwMCcsICctaW1hZScsICc8aW5maWxlLm1hZT4nLCAnLW9tYWUnLCAnPG91dGZpbGUubWFlPic=

>  <r_lp_tautomer_probability>  (183) 
1

>  <r_epik_Ionization_Penalty>  (183) 
7.80015e-08

>  <r_epik_Ionization_Penalty_Charging>  (183) 
0

>  <r_epik_Ionization_Penalty_Neutral>  (183) 
7.80015e-08

>  <r_epik_State_Penalty>  (183) 
-0

>  <r_epik_Charging_Adjusted_Penalty>  (183) 
0

>  <i_epik_Tot_Q>  (183) 
0

>  <i_epik_Tot_abs_Q>  (183) 
0

>  <s_epik_Chemistry_Notes>  (183) 
This compound has an ester and may undergo hydrolysis at high or low pH.

>  <s_lp_Force_Field>  (183) 
OPLS3e

>  <r_lp_Energy>  (183) 
40.6277

>  <b_lp_Chiralities_Consistent>  (183) 
1

>  <s_lp_Variant>  (183) 
60:0-2

>  <s_i_glide_gridfile>  (183) 
pfpi4k_grid

>  <i_i_glide_lignum>  (183) 
4

>  <i_i_glide_rotatable_bonds>  (183) 
5

>  <r_i_docking_score>  (183) 
-3.16085

>  <r_i_glide_ligand_efficiency>  (183) 
-0.0929661

>  <r_i_glide_ligand_efficiency_sa>  (183) 
-0.301174

>  <r_i_glide_ligand_efficiency_ln>  (183) 
-0.698319

>  <r_i_glide_gscore>  (183) 
-3.16085

>  <r_i_glide_lipo>  (183) 
-0.817528

>  <r_i_glide_hbond>  (183) 
-0.226264

>  <r_i_glide_metal>  (183) 
-0

>  <r_i_glide_rewards>  (183) 
-0.393404

>  <r_i_glide_evdw>  (183) 
-34.5229

>  <r_i_glide_ecoul>  (183) 
-1.85172

>  <r_i_glide_erotb>  (183) 
0.280254

>  <r_i_glide_esite>  (183) 
0

>  <r_i_glide_emodel>  (183) 
-41.9917

>  <r_i_glide_energy>  (183) 
-36.3746

>  <r_i_glide_einternal>  (183) 
2.08844

>  <r_i_glide_intrahb_reward>  (183) 
-0

>  <i_i_glide_confnum>  (183) 
1

>  <i_i_glide_posenum>  (183) 
26

>  <r_i_glide_eff_state_penalty>  (183) 
0

>  <ligand_id>  (183) 
60

>  <original_smiles>  (183) 
CC1=CCC(O)C2(C)C3CC(OC(=O)C=Cc4ccccc4)C4C(C)C(=O)OC4C3CC3OC132

>  <smiles>  (183) 
[H]OC1([H])C([H])([H])C([H])=C(C([H])([H])[H])C23OC2([H])C([H])([H])C2([H])C4([H])OC(=O)C([H])(C([H])([H])[H])C4([H])C([H])(OC(=O)C([H])=C([H])c4c([H])c([H])c([H])c([H])c4[H])C([H])([H])C2([H])C13C([H])([H])[H]

$$$$
60:1:1
     RDKit          3D

 66 71  0  0  1  0  0  0  0  0999 V2000
   -0.6316   -5.0802    6.2040 C   0  0  0  0  0  0  0  0  0  0  0  0
   -0.2547   -6.2249    5.2685 C   0  0  0  0  0  0  0  0  0  0  0  0
   -1.1646   -7.1232    4.8595 C   0  0  0  0  0  0  0  0  0  0  0  0
   -0.8546   -8.2685    3.9121 C   0  0  0  0  0  0  0  0  0  0  0  0
    0.6488   -8.3827    3.5952 C   0  0  1  0  0  0  0  0  0  0  0  0
    0.8109   -9.2224    2.4842 O   0  0  0  0  0  0  0  0  0  0  0  0
    1.3645   -7.0078    3.4190 C   0  0  2  0  0  0  0  0  0  0  0  0
    0.6844   -6.2408    2.2604 C   0  0  0  0  0  0  0  0  0  0  0  0
    2.8938   -7.1649    3.0830 C   0  0  1  0  0  0  0  0  0  0  0  0
    3.6628   -5.8859    2.6534 C   0  0  0  0  0  0  0  0  0  0  0  0
    5.0547   -6.2518    2.1132 C   0  0  1  0  0  0  0  0  0  0  0  0
    5.7664   -5.0599    1.7786 O   0  0  0  0  0  0  0  0  0  0  0  0
    5.5063   -4.4022    0.6255 C   0  0  0  0  0  0  0  0  0  0  0  0
    4.7487   -4.8358   -0.2292 O   0  0  0  0  0  0  0  0  0  0  0  0
    6.1976   -3.1093    0.5713 C   0  0  0  0  0  0  0  0  0  0  0  0
    6.0327   -2.1291   -0.3462 C   0  0  0  0  0  0  0  0  0  0  0  0
    5.2394   -2.0621   -1.5934 C   0  0  0  0  0  0  0  0  0  0  0  0
    5.0818   -3.1673   -2.4519 C   0  0  0  0  0  0  0  0  0  0  0  0
    4.2315   -3.0870   -3.5667 C   0  0  0  0  0  0  0  0  0  0  0  0
    3.6015   -1.8694   -3.8926 C   0  0  0  0  0  0  0  0  0  0  0  0
    3.8030   -0.7373   -3.0884 C   0  0  0  0  0  0  0  0  0  0  0  0
    4.5987   -0.8441   -1.9328 C   0  0  0  0  0  0  0  0  0  0  0  0
    5.9293   -7.0379    3.1078 C   0  0  2  0  0  0  0  0  0  0  0  0
    6.9832   -7.8545    2.3480 C   0  0  1  0  0  0  0  0  0  0  0  0
    8.3069   -7.9892    3.1147 C   0  0  0  0  0  0  0  0  0  0  0  0
    6.2788   -9.1947    2.1784 C   0  0  0  0  0  0  0  0  0  0  0  0
    6.6148  -10.0514    1.3681 O   0  0  0  0  0  0  0  0  0  0  0  0
    5.2554   -9.2669    3.0287 O   0  0  0  0  0  0  0  0  0  0  0  0
    5.1525   -8.1351    3.8677 C   0  0  2  0  0  0  0  0  0  0  0  0
    3.6828   -7.8318    4.2287 C   0  0  1  0  0  0  0  0  0  0  0  0
    3.5737   -7.0515    5.5599 C   0  0  0  0  0  0  0  0  0  0  0  0
    2.2390   -6.3824    5.8161 C   0  0  1  0  0  0  0  0  0  0  0  0
    1.9754   -5.1761    5.0587 O   0  0  0  0  0  0  0  0  0  0  0  0
    1.1549   -6.3024    4.7663 C   0  0  2  0  0  0  0  0  0  0  0  0
   -0.0692   -5.1168    7.1334 H   0  0  0  0  0  0  0  0  0  0  0  0
   -1.6922   -5.1338    6.4676 H   0  0  0  0  0  0  0  0  0  0  0  0
   -0.4615   -4.1204    5.7172 H   0  0  0  0  0  0  0  0  0  0  0  0
   -2.1873   -7.0479    5.1806 H   0  0  0  0  0  0  0  0  0  0  0  0
   -1.1894   -9.1898    4.3806 H   0  0  0  0  0  0  0  0  0  0  0  0
   -1.4548   -8.1391    3.0113 H   0  0  0  0  0  0  0  0  0  0  0  0
    1.0942   -8.9011    4.4399 H   0  0  0  0  0  0  0  0  0  0  0  0
    0.4517  -10.0749    2.6826 H   0  0  0  0  0  0  0  0  0  0  0  0
    0.9813   -5.1901    2.2605 H   0  0  0  0  0  0  0  0  0  0  0  0
   -0.4013   -6.2638    2.3217 H   0  0  0  0  0  0  0  0  0  0  0  0
    0.9503   -6.6740    1.2925 H   0  0  0  0  0  0  0  0  0  0  0  0
    2.9454   -7.8294    2.2204 H   0  0  0  0  0  0  0  0  0  0  0  0
    3.1321   -5.3531    1.8668 H   0  0  0  0  0  0  0  0  0  0  0  0
    3.7910   -5.1734    3.4662 H   0  0  0  0  0  0  0  0  0  0  0  0
    4.9328   -6.8574    1.2175 H   0  0  0  0  0  0  0  0  0  0  0  0
    6.8991   -2.9119    1.3701 H   0  0  0  0  0  0  0  0  0  0  0  0
    6.6007   -1.2357   -0.1408 H   0  0  0  0  0  0  0  0  0  0  0  0
    5.5810   -4.1022   -2.2383 H   0  0  0  0  0  0  0  0  0  0  0  0
    4.0610   -3.9652   -4.1675 H   0  0  0  0  0  0  0  0  0  0  0  0
    2.9561   -1.8004   -4.7554 H   0  0  0  0  0  0  0  0  0  0  0  0
    3.3246    0.1981   -3.3395 H   0  0  0  0  0  0  0  0  0  0  0  0
    4.6837    0.0176   -1.2924 H   0  0  0  0  0  0  0  0  0  0  0  0
    6.3866   -6.3369    3.8078 H   0  0  0  0  0  0  0  0  0  0  0  0
    7.1874   -7.4485    1.3589 H   0  0  0  0  0  0  0  0  0  0  0  0
    8.9979   -8.6420    2.5815 H   0  0  0  0  0  0  0  0  0  0  0  0
    8.1715   -8.4052    4.1174 H   0  0  0  0  0  0  0  0  0  0  0  0
    8.8076   -7.0224    3.2078 H   0  0  0  0  0  0  0  0  0  0  0  0
    5.6984   -8.3553    4.7842 H   0  0  0  0  0  0  0  0  0  0  0  0
    3.2385   -8.8065    4.4077 H   0  0  0  0  0  0  0  0  0  0  0  0
    3.7463   -7.7583    6.3744 H   0  0  0  0  0  0  0  0  0  0  0  0
    4.3517   -6.2931    5.6426 H   0  0  0  0  0  0  0  0  0  0  0  0
    1.9530   -6.3081    6.8596 H   0  0  0  0  0  0  0  0  0  0  0  0
  1  2  1  0
  1 35  1  0
  1 36  1  0
  1 37  1  0
  2 34  1  0
  2  3  2  0
  3  4  1  0
  3 38  1  0
  4  5  1  0
  4 39  1  0
  4 40  1  0
  5  6  1  0
  5  7  1  0
  5 41  1  1
  6 42  1  0
  7 34  1  0
  7  8  1  6
  7  9  1  0
  8 43  1  0
  8 44  1  0
  8 45  1  0
  9 30  1  0
  9 10  1  0
  9 46  1  6
 10 11  1  0
 10 47  1  0
 10 48  1  0
 11 12  1  0
 11 23  1  0
 11 49  1  6
 12 13  1  0
 13 14  2  0
 13 15  1  0
 15 16  2  3
 15 50  1  0
 16 17  1  0
 16 51  1  0
 17 22  1  0
 17 18  2  0
 18 19  1  0
 18 52  1  0
 19 20  2  0
 19 53  1  0
 20 21  1  0
 20 54  1  0
 21 22  2  0
 21 55  1  0
 22 56  1  0
 23 29  1  0
 23 24  1  0
 23 57  1  1
 24 25  1  0
 24 26  1  0
 24 58  1  6
 25 59  1  0
 25 60  1  0
 25 61  1  0
 26 27  2  0
 26 28  1  0
 28 29  1  0
 29 30  1  0
 29 62  1  1
 30 31  1  0
 30 63  1  1
 31 32  1  0
 31 64  1  0
 31 65  1  0
 32 34  1  0
 32 33  1  0
 32 66  1  1
 34 33  1  6
M  END
>  <i_m_ct_stereo_status>  (184) 
1

>  <s_m_source_file>  (184) 
/var/tmp/pbs.5076255.sched01/tmpbhhv4xqx/80i1gy0gug.sdf

>  <i_m_source_file_index>  (184) 
4

>  <i_lp_mmshare_version>  (184) 
48012

>  <i_f3d_flags>  (184) 
0

>  <s_epik_input>  (184) 
W0NIM11DMT1bQ0hdW0NIMl1bQ0BASF0oW09IXSlbQ0BdKFtDQEBdMTIzKShbQ0gzXSlbQ0BASF00W0NASF0oW0NIMl1bQ0BIXTJPMylbQ0BASF01W0NAQEhdKFtDQEBIXShbQ0gzXSlDKD1PKU81KVtDQEBIXShbQ0gyXTQpT0MoPU8pL1tDSF09W0NIXS9jNltjSF1bY0hdW2NIXVtjSF1bY0hdNg==

>  <s_epik_cmdline>  (184) 
J2VwaWtfcHl0aG9uJywgJy1waHQnLCAnMi4wJywgJy1waCcsICc3LjAnLCAnLXRuJywgJzgnLCAnLW1hJywgJzIwMCcsICctaW1hZScsICc8aW5maWxlLm1hZT4nLCAnLW9tYWUnLCAnPG91dGZpbGUubWFlPic=

>  <r_lp_tautomer_probability>  (184) 
1

>  <r_epik_Ionization_Penalty>  (184) 
7.80015e-08

>  <r_epik_Ionization_Penalty_Charging>  (184) 
0

>  <r_epik_Ionization_Penalty_Neutral>  (184) 
7.80015e-08

>  <r_epik_State_Penalty>  (184) 
-0

>  <r_epik_Charging_Adjusted_Penalty>  (184) 
0

>  <i_epik_Tot_Q>  (184) 
0

>  <i_epik_Tot_abs_Q>  (184) 
0

>  <s_epik_Chemistry_Notes>  (184) 
This compound has an ester and may undergo hydrolysis at high or low pH.

>  <s_lp_Force_Field>  (184) 
OPLS3e

>  <r_lp_Energy>  (184) 
40.6277

>  <b_lp_Chiralities_Consistent>  (184) 
1

>  <s_lp_Variant>  (184) 
60:0-2

>  <s_i_glide_gridfile>  (184) 
pfpi4k_grid

>  <i_i_glide_lignum>  (184) 
4

>  <i_i_glide_rotatable_bonds>  (184) 
5

>  <r_i_docking_score>  (184) 
-2.56379

>  <r_i_glide_ligand_efficiency>  (184) 
-0.0754056

>  <r_i_glide_ligand_efficiency_sa>  (184) 
-0.244285

>  <r_i_glide_ligand_efficiency_ln>  (184) 
-0.566413

>  <r_i_glide_gscore>  (184) 
-2.56379

>  <r_i_glide_lipo>  (184) 
-0.781687

>  <r_i_glide_hbond>  (184) 
0

>  <r_i_glide_metal>  (184) 
-0

>  <r_i_glide_rewards>  (184) 
-0.366883

>  <r_i_glide_evdw>  (184) 
-35.0189

>  <r_i_glide_ecoul>  (184) 
0.369791

>  <r_i_glide_erotb>  (184) 
0.280254

>  <r_i_glide_esite>  (184) 
0

>  <r_i_glide_emodel>  (184) 
-39.0755

>  <r_i_glide_energy>  (184) 
-34.6491

>  <r_i_glide_einternal>  (184) 
2.03901

>  <r_i_glide_intrahb_reward>  (184) 
-0

>  <i_i_glide_confnum>  (184) 
3

>  <i_i_glide_posenum>  (184) 
28

>  <r_i_glide_eff_state_penalty>  (184) 
0

>  <ligand_id>  (184) 
60

>  <original_smiles>  (184) 
CC1=CCC(O)C2(C)C3CC(OC(=O)C=Cc4ccccc4)C4C(C)C(=O)OC4C3CC3OC132

>  <smiles>  (184) 
[H]OC1([H])C([H])([H])C([H])=C(C([H])([H])[H])C23OC2([H])C([H])([H])C2([H])C4([H])OC(=O)C([H])(C([H])([H])[H])C4([H])C([H])(OC(=O)C([H])=C([H])c4c([H])c([H])c([H])c([H])c4[H])C([H])([H])C2([H])C13C([H])([H])[H]

$$$$
60:1:2
     RDKit          3D

 66 71  0  0  1  0  0  0  0  0999 V2000
   -1.5851   -8.7211    2.5642 C   0  0  0  0  0  0  0  0  0  0  0  0
   -0.1430   -8.9114    3.0121 C   0  0  0  0  0  0  0  0  0  0  0  0
    0.4243  -10.1342    3.0531 C   0  0  0  0  0  0  0  0  0  0  0  0
    1.8635  -10.3860    3.4472 C   0  0  0  0  0  0  0  0  0  0  0  0
    2.5728   -9.1085    3.9566 C   0  0  1  0  0  0  0  0  0  0  0  0
    3.9665   -9.3417    3.9776 O   0  0  0  0  0  0  0  0  0  0  0  0
    2.1799   -7.8034    3.1895 C   0  0  2  0  0  0  0  0  0  0  0  0
    2.5496   -7.9669    1.6900 C   0  0  0  0  0  0  0  0  0  0  0  0
    2.9186   -6.5346    3.7766 C   0  0  1  0  0  0  0  0  0  0  0  0
    2.7969   -5.2214    2.9689 C   0  0  0  0  0  0  0  0  0  0  0  0
    3.8134   -4.1631    3.4698 C   0  0  1  0  0  0  0  0  0  0  0  0
    3.7339   -2.9062    2.7822 O   0  0  0  0  0  0  0  0  0  0  0  0
    4.0311   -2.7993    1.4748 C   0  0  0  0  0  0  0  0  0  0  0  0
    4.2070   -3.7676    0.7567 O   0  0  0  0  0  0  0  0  0  0  0  0
    4.1306   -1.3945    1.0371 C   0  0  0  0  0  0  0  0  0  0  0  0
    4.1997   -0.9476   -0.2449 C   0  0  0  0  0  0  0  0  0  0  0  0
    4.2498   -1.6698   -1.5351 C   0  0  0  0  0  0  0  0  0  0  0  0
    3.5188   -1.1922   -2.6509 C   0  0  0  0  0  0  0  0  0  0  0  0
    3.5135   -1.9048   -3.8606 C   0  0  0  0  0  0  0  0  0  0  0  0
    4.1909   -3.1352   -3.9477 C   0  0  0  0  0  0  0  0  0  0  0  0
    4.9344   -3.6080   -2.8530 C   0  0  0  0  0  0  0  0  0  0  0  0
    5.0092   -2.8481   -1.6789 C   0  0  0  0  0  0  0  0  0  0  0  0
    3.6237   -3.8279    4.9712 C   0  0  2  0  0  0  0  0  0  0  0  0
    4.9268   -3.2627    5.5639 C   0  0  1  0  0  0  0  0  0  0  0  0
    4.7226   -2.2057    6.6559 C   0  0  0  0  0  0  0  0  0  0  0  0
    5.5737   -4.5153    6.1346 C   0  0  0  0  0  0  0  0  0  0  0  0
    6.7546   -4.5978    6.4520 O   0  0  0  0  0  0  0  0  0  0  0  0
    4.6658   -5.4939    6.2186 O   0  0  0  0  0  0  0  0  0  0  0  0
    3.3653   -5.0695    5.8557 C   0  0  2  0  0  0  0  0  0  0  0  0
    2.5336   -6.2209    5.2319 C   0  0  1  0  0  0  0  0  0  0  0  0
    1.0087   -5.9837    5.3890 C   0  0  0  0  0  0  0  0  0  0  0  0
    0.1144   -6.8267    4.4880 C   0  0  1  0  0  0  0  0  0  0  0  0
    0.0447   -6.4424    3.1042 O   0  0  0  0  0  0  0  0  0  0  0  0
    0.6631   -7.6903    3.3785 C   0  0  2  0  0  0  0  0  0  0  0  0
   -2.1891   -8.2900    3.3588 H   0  0  0  0  0  0  0  0  0  0  0  0
   -2.0310   -9.6773    2.2909 H   0  0  0  0  0  0  0  0  0  0  0  0
   -1.6268   -8.0736    1.6917 H   0  0  0  0  0  0  0  0  0  0  0  0
   -0.1469  -11.0100    2.7704 H   0  0  0  0  0  0  0  0  0  0  0  0
    1.8799  -11.1537    4.2220 H   0  0  0  0  0  0  0  0  0  0  0  0
    2.3799  -10.7982    2.5804 H   0  0  0  0  0  0  0  0  0  0  0  0
    2.2612   -9.0022    4.9963 H   0  0  0  0  0  0  0  0  0  0  0  0
    4.1235  -10.1310    4.4802 H   0  0  0  0  0  0  0  0  0  0  0  0
    2.0999   -7.1943    1.0626 H   0  0  0  0  0  0  0  0  0  0  0  0
    2.2190   -8.9167    1.2628 H   0  0  0  0  0  0  0  0  0  0  0  0
    3.6330   -7.9232    1.5532 H   0  0  0  0  0  0  0  0  0  0  0  0
    3.9810   -6.7774    3.7658 H   0  0  0  0  0  0  0  0  0  0  0  0
    2.9999   -5.4612    1.9357 H   0  0  0  0  0  0  0  0  0  0  0  0
    1.7983   -4.7874    2.9867 H   0  0  0  0  0  0  0  0  0  0  0  0
    4.8236   -4.5529    3.3242 H   0  0  0  0  0  0  0  0  0  0  0  0
    4.1436   -0.6516    1.8253 H   0  0  0  0  0  0  0  0  0  0  0  0
    4.2536    0.1259   -0.3355 H   0  0  0  0  0  0  0  0  0  0  0  0
    2.9392   -0.2828   -2.5868 H   0  0  0  0  0  0  0  0  0  0  0  0
    2.9679   -1.5136   -4.7093 H   0  0  0  0  0  0  0  0  0  0  0  0
    4.1661   -3.7327   -4.8460 H   0  0  0  0  0  0  0  0  0  0  0  0
    5.4214   -4.5650   -2.9144 H   0  0  0  0  0  0  0  0  0  0  0  0
    5.6115   -3.2239   -0.8637 H   0  0  0  0  0  0  0  0  0  0  0  0
    2.8006   -3.1147    5.0744 H   0  0  0  0  0  0  0  0  0  0  0  0
    5.5788   -2.8638    4.7952 H   0  0  0  0  0  0  0  0  0  0  0  0
    5.6755   -1.9064    7.1015 H   0  0  0  0  0  0  0  0  0  0  0  0
    4.0803   -2.5698    7.4629 H   0  0  0  0  0  0  0  0  0  0  0  0
    4.2636   -1.3048    6.2409 H   0  0  0  0  0  0  0  0  0  0  0  0
    2.8602   -4.7379    6.7601 H   0  0  0  0  0  0  0  0  0  0  0  0
    2.7748   -7.0955    5.8319 H   0  0  0  0  0  0  0  0  0  0  0  0
    0.7473   -6.2079    6.4218 H   0  0  0  0  0  0  0  0  0  0  0  0
    0.7536   -4.9336    5.2278 H   0  0  0  0  0  0  0  0  0  0  0  0
   -0.8516   -7.0773    4.9164 H   0  0  0  0  0  0  0  0  0  0  0  0
  1  2  1  0
  1 35  1  0
  1 36  1  0
  1 37  1  0
  2 34  1  0
  2  3  2  0
  3  4  1  0
  3 38  1  0
  4  5  1  0
  4 39  1  0
  4 40  1  0
  5  6  1  0
  5  7  1  0
  5 41  1  1
  6 42  1  0
  7 34  1  0
  7  8  1  6
  7  9  1  0
  8 43  1  0
  8 44  1  0
  8 45  1  0
  9 30  1  0
  9 10  1  0
  9 46  1  1
 10 11  1  0
 10 47  1  0
 10 48  1  0
 11 12  1  0
 11 23  1  0
 11 49  1  1
 12 13  1  0
 13 14  2  0
 13 15  1  0
 15 16  2  3
 15 50  1  0
 16 17  1  0
 16 51  1  0
 17 22  1  0
 17 18  2  0
 18 19  1  0
 18 52  1  0
 19 20  2  0
 19 53  1  0
 20 21  1  0
 20 54  1  0
 21 22  2  0
 21 55  1  0
 22 56  1  0
 23 29  1  0
 23 24  1  0
 23 57  1  6
 24 25  1  0
 24 26  1  0
 24 58  1  6
 25 59  1  0
 25 60  1  0
 25 61  1  0
 26 27  2  0
 26 28  1  0
 28 29  1  0
 29 30  1  0
 29 62  1  1
 30 31  1  0
 30 63  1  1
 31 32  1  0
 31 64  1  0
 31 65  1  0
 32 34  1  0
 32 33  1  0
 32 66  1  1
 34 33  1  6
M  END
>  <i_m_ct_stereo_status>  (185) 
1

>  <s_m_source_file>  (185) 
/var/tmp/pbs.5076255.sched01/tmpbhhv4xqx/80i1gy0gug.sdf

>  <i_m_source_file_index>  (185) 
4

>  <i_lp_mmshare_version>  (185) 
48012

>  <i_f3d_flags>  (185) 
0

>  <s_epik_input>  (185) 
W0NIM11DMT1bQ0hdW0NIMl1bQ0BASF0oW09IXSlbQ0BdKFtDQEBdMTIzKShbQ0gzXSlbQ0BASF00W0NASF0oW0NIMl1bQ0BIXTJPMylbQ0BASF01W0NAQEhdKFtDQEBIXShbQ0gzXSlDKD1PKU81KVtDQEBIXShbQ0gyXTQpT0MoPU8pL1tDSF09W0NIXS9jNltjSF1bY0hdW2NIXVtjSF1bY0hdNg==

>  <s_epik_cmdline>  (185) 
J2VwaWtfcHl0aG9uJywgJy1waHQnLCAnMi4wJywgJy1waCcsICc3LjAnLCAnLXRuJywgJzgnLCAnLW1hJywgJzIwMCcsICctaW1hZScsICc8aW5maWxlLm1hZT4nLCAnLW9tYWUnLCAnPG91dGZpbGUubWFlPic=

>  <r_lp_tautomer_probability>  (185) 
1

>  <r_epik_Ionization_Penalty>  (185) 
7.80015e-08

>  <r_epik_Ionization_Penalty_Charging>  (185) 
0

>  <r_epik_Ionization_Penalty_Neutral>  (185) 
7.80015e-08

>  <r_epik_State_Penalty>  (185) 
-0

>  <r_epik_Charging_Adjusted_Penalty>  (185) 
0

>  <i_epik_Tot_Q>  (185) 
0

>  <i_epik_Tot_abs_Q>  (185) 
0

>  <s_epik_Chemistry_Notes>  (185) 
This compound has an ester and may undergo hydrolysis at high or low pH.

>  <s_lp_Force_Field>  (185) 
OPLS3e

>  <r_lp_Energy>  (185) 
40.6277

>  <b_lp_Chiralities_Consistent>  (185) 
1

>  <s_lp_Variant>  (185) 
60:0-2

>  <s_i_glide_gridfile>  (185) 
pfpi4k_grid

>  <i_i_glide_lignum>  (185) 
4

>  <i_i_glide_rotatable_bonds>  (185) 
5

>  <r_i_docking_score>  (185) 
-2.47072

>  <r_i_glide_ligand_efficiency>  (185) 
-0.0726683

>  <r_i_glide_ligand_efficiency_sa>  (185) 
-0.235417

>  <r_i_glide_ligand_efficiency_ln>  (185) 
-0.545852

>  <r_i_glide_gscore>  (185) 
-2.47072

>  <r_i_glide_lipo>  (185) 
-0.466862

>  <r_i_glide_hbond>  (185) 
-0.121248

>  <r_i_glide_metal>  (185) 
-0

>  <r_i_glide_rewards>  (185) 
-0.244591

>  <r_i_glide_evdw>  (185) 
-34.505

>  <r_i_glide_ecoul>  (185) 
-1.28685

>  <r_i_glide_erotb>  (185) 
0.280254

>  <r_i_glide_esite>  (185) 
0

>  <r_i_glide_emodel>  (185) 
-39.1459

>  <r_i_glide_energy>  (185) 
-35.7918

>  <r_i_glide_einternal>  (185) 
3.40278

>  <r_i_glide_intrahb_reward>  (185) 
-0

>  <i_i_glide_confnum>  (185) 
3

>  <i_i_glide_posenum>  (185) 
5

>  <r_i_glide_eff_state_penalty>  (185) 
0

>  <ligand_id>  (185) 
60

>  <original_smiles>  (185) 
CC1=CCC(O)C2(C)C3CC(OC(=O)C=Cc4ccccc4)C4C(C)C(=O)OC4C3CC3OC132

>  <smiles>  (185) 
[H]OC1([H])C([H])([H])C([H])=C(C([H])([H])[H])C23OC2([H])C([H])([H])C2([H])C4([H])OC(=O)C([H])(C([H])([H])[H])C4([H])C([H])(OC(=O)C([H])=C([H])c4c([H])c([H])c([H])c([H])c4[H])C([H])([H])C2([H])C13C([H])([H])[H]

$$$$
62:0:0
     RDKit          3D

 64 69  0  0  1  0  0  0  0  0999 V2000
    4.2402   -0.4827    2.4127 C   0  0  0  0  0  0  0  0  0  0  0  0
    3.9818   -1.6583    3.3853 C   0  0  2  0  0  0  0  0  0  0  0  0
    5.2378   -2.5064    3.6813 C   0  0  0  0  0  0  0  0  0  0  0  0
    5.1114   -3.8609    2.9982 C   0  0  0  0  0  0  0  0  0  0  0  0
    5.4239   -3.8382    1.6593 C   0  0  0  0  0  0  0  0  0  0  0  0
    6.5271   -2.8654    1.2152 C   0  0  0  0  0  0  0  0  0  0  0  0
    7.0216   -3.0175   -0.0875 O   0  0  0  0  0  0  0  0  0  0  0  0
    6.1607   -2.8611   -1.0365 C   0  0  0  0  0  0  0  0  0  0  0  0
    6.2552   -2.0166   -1.9195 O   0  0  0  0  0  0  0  0  0  0  0  0
    5.0526   -3.8953   -0.9617 C   0  0  2  0  0  0  0  0  0  0  0  0
    3.8192   -3.4180   -1.6969 C   0  0  0  0  0  0  0  0  0  0  0  0
    2.8150   -3.1493   -0.8710 C   0  0  0  0  0  0  0  0  0  0  0  0
    3.2047   -3.3868    0.4974 C   0  0  0  0  0  0  0  0  0  0  0  0
    2.5177   -2.7462    1.4846 C   0  0  0  0  0  0  0  0  0  0  0  0
    2.7150   -2.4938    2.9976 C   0  0  1  0  0  0  0  0  0  0  0  0
    2.2041   -3.5014    4.1244 C   0  0  1  0  0  0  0  0  0  0  0  0
    1.5036   -2.5596    5.1669 C   0  0  0  0  0  0  0  0  0  0  0  0
    1.1932   -4.6525    3.8146 C   0  0  2  0  0  0  0  0  0  0  0  0
    1.1105   -5.4512    5.1468 C   0  0  1  0  0  0  0  0  0  0  0  0
    0.4875   -6.8609    5.1656 C   0  0  0  0  0  0  0  0  0  0  0  0
    2.5251   -5.3323    5.7443 C   0  0  0  0  0  0  0  0  0  0  0  0
    3.2995   -4.2917    4.8757 C   0  0  1  0  0  0  0  0  0  0  0  0
    4.4125   -4.9045    3.9465 C   0  0  2  0  0  0  0  0  0  0  0  0
    5.5708   -5.3403    4.8962 C   0  0  0  0  0  0  0  0  0  0  0  0
    3.9542   -6.2525    3.3231 C   0  0  0  0  0  0  0  0  0  0  0  0
    2.5724   -6.5486    3.0938 O   0  0  0  0  0  0  0  0  0  0  0  0
    1.6334   -5.6053    2.6601 C   0  0  1  0  0  0  0  0  0  0  0  0
    0.5013   -6.2551    2.1298 O   0  0  0  0  0  0  0  0  0  0  0  0
    4.5052   -4.2290    0.4791 C   0  0  2  0  0  0  0  0  0  0  0  0
    4.2540   -5.7457    0.2876 C   0  0  0  0  0  0  0  0  0  0  0  0
    4.3763   -0.7981    1.3764 H   0  0  0  0  0  0  0  0  0  0  0  0
    5.1241    0.0897    2.7054 H   0  0  0  0  0  0  0  0  0  0  0  0
    3.3979    0.2123    2.4186 H   0  0  0  0  0  0  0  0  0  0  0  0
    3.7833   -1.1480    4.3243 H   0  0  0  0  0  0  0  0  0  0  0  0
    6.1121   -1.9392    3.3821 H   0  0  0  0  0  0  0  0  0  0  0  0
    5.3959   -2.5973    4.7524 H   0  0  0  0  0  0  0  0  0  0  0  0
    6.1999   -1.8272    1.2911 H   0  0  0  0  0  0  0  0  0  0  0  0
    7.3709   -3.0205    1.8769 H   0  0  0  0  0  0  0  0  0  0  0  0
    5.4330   -4.7752   -1.4763 H   0  0  0  0  0  0  0  0  0  0  0  0
    3.7902   -3.3370   -2.7759 H   0  0  0  0  0  0  0  0  0  0  0  0
    1.8302   -2.8502   -1.2160 H   0  0  0  0  0  0  0  0  0  0  0  0
    1.6492   -2.2130    1.1177 H   0  0  0  0  0  0  0  0  0  0  0  0
    1.9622   -1.7084    3.0402 H   0  0  0  0  0  0  0  0  0  0  0  0
    1.3296   -3.0137    6.1401 H   0  0  0  0  0  0  0  0  0  0  0  0
    0.5349   -2.2152    4.7987 H   0  0  0  0  0  0  0  0  0  0  0  0
    2.0838   -1.6708    5.4009 H   0  0  0  0  0  0  0  0  0  0  0  0
    0.2205   -4.2245    3.5540 H   0  0  0  0  0  0  0  0  0  0  0  0
    0.4445   -4.8918    5.7966 H   0  0  0  0  0  0  0  0  0  0  0  0
    1.0923   -7.6046    4.6532 H   0  0  0  0  0  0  0  0  0  0  0  0
   -0.4994   -6.8630    4.7084 H   0  0  0  0  0  0  0  0  0  0  0  0
    0.3708   -7.2177    6.1874 H   0  0  0  0  0  0  0  0  0  0  0  0
    2.4618   -4.9913    6.7789 H   0  0  0  0  0  0  0  0  0  0  0  0
    3.0143   -6.3026    5.7912 H   0  0  0  0  0  0  0  0  0  0  0  0
    3.7731   -3.6195    5.5888 H   0  0  0  0  0  0  0  0  0  0  0  0
    5.2503   -6.0701    5.6420 H   0  0  0  0  0  0  0  0  0  0  0  0
    6.0048   -4.5181    5.4641 H   0  0  0  0  0  0  0  0  0  0  0  0
    6.3868   -5.8028    4.3348 H   0  0  0  0  0  0  0  0  0  0  0  0
    4.6243   -6.5839    2.5427 H   0  0  0  0  0  0  0  0  0  0  0  0
    4.1625   -7.0462    4.0368 H   0  0  0  0  0  0  0  0  0  0  0  0
    2.0327   -5.0786    1.8216 H   0  0  0  0  0  0  0  0  0  0  0  0
    0.8171   -6.9860    1.6135 H   0  0  0  0  0  0  0  0  0  0  0  0
    3.4580   -6.1678    0.8735 H   0  0  0  0  0  0  0  0  0  0  0  0
    5.1672   -6.3176    0.4484 H   0  0  0  0  0  0  0  0  0  0  0  0
    3.9204   -5.9809   -0.7075 H   0  0  0  0  0  0  0  0  0  0  0  0
  1  2  1  0
  1 31  1  0
  1 32  1  0
  1 33  1  0
  2 15  1  0
  2  3  1  0
  2 34  1  1
  3  4  1  0
  3 35  1  0
  3 36  1  0
  4 23  1  0
  4  5  2  3
  5 29  1  0
  5  6  1  0
  6  7  1  0
  6 37  1  0
  6 38  1  0
  7  8  1  0
  8  9  2  0
  8 10  1  0
 10 29  1  0
 10 11  1  0
 10 39  1  6
 11 12  2  0
 11 40  1  0
 12 13  1  0
 12 41  1  0
 13 14  2  3
 13 29  1  0
 14 15  1  0
 14 42  1  0
 15 16  1  0
 15 43  1  1
 16 22  1  0
 16 17  1  1
 16 18  1  0
 17 44  1  0
 17 45  1  0
 17 46  1  0
 18 27  1  0
 18 19  1  0
 18 47  1  6
 19 20  1  0
 19 21  1  0
 19 48  1  1
 20 49  1  0
 20 50  1  0
 20 51  1  0
 21 22  1  0
 21 52  1  0
 21 53  1  0
 22 23  1  0
 22 54  1  1
 23 24  1  1
 23 25  1  0
 24 55  1  0
 24 56  1  0
 24 57  1  0
 25 26  1  0
 25 58  1  0
 25 59  1  0
 26 27  1  0
 27 28  1  0
 27 60  1  6
 28 61  1  0
 29 30  1  6
 30 62  1  0
 30 63  1  0
 30 64  1  0
M  END
>  <i_m_ct_stereo_status>  (186) 
1

>  <s_m_source_file>  (186) 
/var/tmp/pbs.5076255.sched01/tmpbhhv4xqx/80i1gy0gug.sdf

>  <i_m_source_file_index>  (186) 
7

>  <i_lp_mmshare_version>  (186) 
48012

>  <i_f3d_flags>  (186) 
0

>  <s_epik_input>  (186) 
W0NIXS8xPUMyXFtDSF09W0NIXVtDQEBIXShDKD1PKU9bQ0gyXTMpW0NAQF0yKFtDSDNdKUMzPUMoW0NIMl1bQ0BASF0oW0NIM10pW0NAQEhdMVtDQEBdNDVbQ0gzXSlbQ0BAXTYoW0NIM10pW0NAQEhdNVtDSDJdW0NASF0oW0NIM10pW0NAQEhdNFtDQEhdKFtPSF0pT1tDSDJdNg==

>  <s_epik_cmdline>  (186) 
J2VwaWtfcHl0aG9uJywgJy1waHQnLCAnMi4wJywgJy1waCcsICc3LjAnLCAnLXRuJywgJzgnLCAnLW1hJywgJzIwMCcsICctaW1hZScsICc8aW5maWxlLm1hZT4nLCAnLW9tYWUnLCAnPG91dGZpbGUubWFlPic=

>  <r_lp_tautomer_probability>  (186) 
1

>  <r_epik_Ionization_Penalty>  (186) 
5.56775e-08

>  <r_epik_Ionization_Penalty_Charging>  (186) 
0

>  <r_epik_Ionization_Penalty_Neutral>  (186) 
5.56775e-08

>  <r_epik_State_Penalty>  (186) 
-0

>  <r_epik_Charging_Adjusted_Penalty>  (186) 
0

>  <i_epik_Tot_Q>  (186) 
0

>  <i_epik_Tot_abs_Q>  (186) 
0

>  <s_epik_Chemistry_Notes>  (186) 
This compound has an ester and may undergo hydrolysis at high or low pH. This compound contains an acetal/aminal-like group ( X-CH(R)-Y where X, Y are N, S, or O) that may be acid/base labile, releasing an aldehyde.

>  <s_lp_Force_Field>  (186) 
OPLS3e

>  <r_lp_Energy>  (186) 
164.224

>  <b_lp_Chiralities_Consistent>  (186) 
1

>  <s_lp_Variant>  (186) 
62:0-1

>  <s_i_glide_gridfile>  (186) 
pfpi4k_grid

>  <i_i_glide_lignum>  (186) 
7

>  <i_i_glide_rotatable_bonds>  (186) 
1

>  <r_i_docking_score>  (186) 
-2.88606

>  <r_i_glide_ligand_efficiency>  (186) 
-0.0962019

>  <r_i_glide_ligand_efficiency_sa>  (186) 
-0.298922

>  <r_i_glide_ligand_efficiency_ln>  (186) 
-0.655744

>  <r_i_glide_gscore>  (186) 
-2.88606

>  <r_i_glide_lipo>  (186) 
-0.394183

>  <r_i_glide_hbond>  (186) 
-0.131496

>  <r_i_glide_metal>  (186) 
-0

>  <r_i_glide_rewards>  (186) 
-0.620107

>  <r_i_glide_evdw>  (186) 
-20.5474

>  <r_i_glide_ecoul>  (186) 
-4.54921

>  <r_i_glide_erotb>  (186) 
0

>  <r_i_glide_esite>  (186) 
-0.0305182

>  <r_i_glide_emodel>  (186) 
-28.9233

>  <r_i_glide_energy>  (186) 
-25.0967

>  <r_i_glide_einternal>  (186) 
1.04579

>  <r_i_glide_intrahb_reward>  (186) 
-0

>  <i_i_glide_confnum>  (186) 
2

>  <i_i_glide_posenum>  (186) 
29

>  <r_i_glide_eff_state_penalty>  (186) 
0

>  <ligand_id>  (186) 
62

>  <original_smiles>  (186) 
CC1CC2=C3COC(=O)C4C=CC(=CC1C1(C)C5C(C)CC1C2(C)COC5O)C34C

>  <smiles>  (186) 
[H]OC1([H])OC([H])([H])C2(C([H])([H])[H])C3=C4C([H])([H])OC(=O)C5([H])C([H])=C([H])C(=C([H])C([H])(C([H])(C([H])([H])[H])C3([H])[H])C3(C([H])([H])[H])C1([H])C([H])(C([H])([H])[H])C([H])([H])C23[H])C45C([H])([H])[H]

$$$$
62:0:1
     RDKit          3D

 64 69  0  0  1  0  0  0  0  0999 V2000
    4.1107   -1.0247    2.7341 C   0  0  0  0  0  0  0  0  0  0  0  0
    3.8697   -2.3296    3.5295 C   0  0  2  0  0  0  0  0  0  0  0  0
    5.1499   -3.1523    3.7869 C   0  0  0  0  0  0  0  0  0  0  0  0
    5.1377   -4.4031    2.9171 C   0  0  0  0  0  0  0  0  0  0  0  0
    5.5116   -4.1755    1.6090 C   0  0  0  0  0  0  0  0  0  0  0  0
    6.5789   -3.1024    1.3587 C   0  0  0  0  0  0  0  0  0  0  0  0
    7.1520   -3.0452    0.0771 O   0  0  0  0  0  0  0  0  0  0  0  0
    6.3266   -2.8094   -0.9059 C   0  0  0  0  0  0  0  0  0  0  0  0
    6.4536   -1.8957   -1.7133 O   0  0  0  0  0  0  0  0  0  0  0  0
    5.2702   -3.8904   -1.0104 C   0  0  2  0  0  0  0  0  0  0  0  0
    4.0517   -3.3914   -1.7502 C   0  0  0  0  0  0  0  0  0  0  0  0
    2.9940   -3.2856   -0.9483 C   0  0  0  0  0  0  0  0  0  0  0  0
    3.3406   -3.6851    0.3940 C   0  0  0  0  0  0  0  0  0  0  0  0
    2.5770   -3.2133    1.4179 C   0  0  0  0  0  0  0  0  0  0  0  0
    2.6747   -3.1647    2.9597 C   0  0  1  0  0  0  0  0  0  0  0  0
    2.1570   -4.3389    3.9095 C   0  0  1  0  0  0  0  0  0  0  0  0
    1.3498   -3.5811    5.0259 C   0  0  0  0  0  0  0  0  0  0  0  0
    1.2268   -5.4880    3.3955 C   0  0  2  0  0  0  0  0  0  0  0  0
    1.1202   -6.4607    4.6032 C   0  0  1  0  0  0  0  0  0  0  0  0
    0.5751   -7.8890    4.3978 C   0  0  0  0  0  0  0  0  0  0  0  0
    2.4935   -6.3565    5.2898 C   0  0  0  0  0  0  0  0  0  0  0  0
    3.2535   -5.1739    4.6105 C   0  0  1  0  0  0  0  0  0  0  0  0
    4.4455   -5.6012    3.6726 C   0  0  2  0  0  0  0  0  0  0  0  0
    5.5735   -6.1062    4.6254 C   0  0  0  0  0  0  0  0  0  0  0  0
    4.0893   -6.8735    2.8521 C   0  0  0  0  0  0  0  0  0  0  0  0
    2.7383   -7.1970    2.4920 O   0  0  0  0  0  0  0  0  0  0  0  0
    1.7707   -6.2468    2.1531 C   0  0  1  0  0  0  0  0  0  0  0  0
    0.6960   -6.8597    1.4862 O   0  0  0  0  0  0  0  0  0  0  0  0
    4.6806   -4.4525    0.3437 C   0  0  2  0  0  0  0  0  0  0  0  0
    4.5375   -5.9410   -0.0376 C   0  0  0  0  0  0  0  0  0  0  0  0
    4.3148   -1.1913    1.6753 H   0  0  0  0  0  0  0  0  0  0  0  0
    4.9443   -0.4528    3.1465 H   0  0  0  0  0  0  0  0  0  0  0  0
    3.2310   -0.3796    2.7805 H   0  0  0  0  0  0  0  0  0  0  0  0
    3.5915   -1.9615    4.5132 H   0  0  0  0  0  0  0  0  0  0  0  0
    6.0036   -2.5083    3.6285 H   0  0  0  0  0  0  0  0  0  0  0  0
    5.2517   -3.3845    4.8427 H   0  0  0  0  0  0  0  0  0  0  0  0
    6.1822   -2.1067    1.5443 H   0  0  0  0  0  0  0  0  0  0  0  0
    7.3783   -3.2880    2.0673 H   0  0  0  0  0  0  0  0  0  0  0  0
    5.7408   -4.6589   -1.6108 H   0  0  0  0  0  0  0  0  0  0  0  0
    4.0650   -3.1790   -2.8112 H   0  0  0  0  0  0  0  0  0  0  0  0
    2.0076   -2.9974   -1.2949 H   0  0  0  0  0  0  0  0  0  0  0  0
    1.7260   -2.6426    1.0737 H   0  0  0  0  0  0  0  0  0  0  0  0
    1.8756   -2.4325    3.0608 H   0  0  0  0  0  0  0  0  0  0  0  0
    1.1521   -4.1685    5.9182 H   0  0  0  0  0  0  0  0  0  0  0  0
    0.3848   -3.2374    4.6520 H   0  0  0  0  0  0  0  0  0  0  0  0
    1.8669   -2.7059    5.4078 H   0  0  0  0  0  0  0  0  0  0  0  0
    0.2489   -5.0796    3.1379 H   0  0  0  0  0  0  0  0  0  0  0  0
    0.3899   -6.0273    5.2821 H   0  0  0  0  0  0  0  0  0  0  0  0
    1.2487   -8.5272    3.8299 H   0  0  0  0  0  0  0  0  0  0  0  0
   -0.3903   -7.8802    3.8931 H   0  0  0  0  0  0  0  0  0  0  0  0
    0.4267   -8.3850    5.3564 H   0  0  0  0  0  0  0  0  0  0  0  0
    2.3595   -6.1588    6.3537 H   0  0  0  0  0  0  0  0  0  0  0  0
    3.0307   -7.2992    5.2370 H   0  0  0  0  0  0  0  0  0  0  0  0
    3.6512   -4.5817    5.4334 H   0  0  0  0  0  0  0  0  0  0  0  0
    5.2568   -6.9435    5.2502 H   0  0  0  0  0  0  0  0  0  0  0  0
    5.9325   -5.3494    5.3220 H   0  0  0  0  0  0  0  0  0  0  0  0
    6.4432   -6.4500    4.0604 H   0  0  0  0  0  0  0  0  0  0  0  0
    4.8229   -7.0697    2.0841 H   0  0  0  0  0  0  0  0  0  0  0  0
    4.3008   -7.7456    3.4675 H   0  0  0  0  0  0  0  0  0  0  0  0
    2.1668   -5.5915    1.4120 H   0  0  0  0  0  0  0  0  0  0  0  0
    0.4917   -7.6560    1.9614 H   0  0  0  0  0  0  0  0  0  0  0  0
    3.7143   -6.4685    0.4110 H   0  0  0  0  0  0  0  0  0  0  0  0
    5.4666   -6.4894    0.1100 H   0  0  0  0  0  0  0  0  0  0  0  0
    4.3058   -6.0551   -1.0903 H   0  0  0  0  0  0  0  0  0  0  0  0
  1  2  1  0
  1 31  1  0
  1 32  1  0
  1 33  1  0
  2 15  1  0
  2  3  1  0
  2 34  1  1
  3  4  1  0
  3 35  1  0
  3 36  1  0
  4 23  1  0
  4  5  2  3
  5 29  1  0
  5  6  1  0
  6  7  1  0
  6 37  1  0
  6 38  1  0
  7  8  1  0
  8  9  2  0
  8 10  1  0
 10 29  1  0
 10 11  1  0
 10 39  1  6
 11 12  2  0
 11 40  1  0
 12 13  1  0
 12 41  1  0
 13 14  2  3
 13 29  1  0
 14 15  1  0
 14 42  1  0
 15 16  1  0
 15 43  1  1
 16 22  1  0
 16 17  1  1
 16 18  1  0
 17 44  1  0
 17 45  1  0
 17 46  1  0
 18 27  1  0
 18 19  1  0
 18 47  1  6
 19 20  1  0
 19 21  1  0
 19 48  1  1
 20 49  1  0
 20 50  1  0
 20 51  1  0
 21 22  1  0
 21 52  1  0
 21 53  1  0
 22 23  1  0
 22 54  1  1
 23 24  1  1
 23 25  1  0
 24 55  1  0
 24 56  1  0
 24 57  1  0
 25 26  1  0
 25 58  1  0
 25 59  1  0
 26 27  1  0
 27 28  1  0
 27 60  1  6
 28 61  1  0
 29 30  1  6
 30 62  1  0
 30 63  1  0
 30 64  1  0
M  END
>  <i_m_ct_stereo_status>  (187) 
1

>  <s_m_source_file>  (187) 
/var/tmp/pbs.5076255.sched01/tmpbhhv4xqx/80i1gy0gug.sdf

>  <i_m_source_file_index>  (187) 
7

>  <i_lp_mmshare_version>  (187) 
48012

>  <i_f3d_flags>  (187) 
0

>  <s_epik_input>  (187) 
W0NIXS8xPUMyXFtDSF09W0NIXVtDQEBIXShDKD1PKU9bQ0gyXTMpW0NAQF0yKFtDSDNdKUMzPUMoW0NIMl1bQ0BASF0oW0NIM10pW0NAQEhdMVtDQEBdNDVbQ0gzXSlbQ0BAXTYoW0NIM10pW0NAQEhdNVtDSDJdW0NASF0oW0NIM10pW0NAQEhdNFtDQEhdKFtPSF0pT1tDSDJdNg==

>  <s_epik_cmdline>  (187) 
J2VwaWtfcHl0aG9uJywgJy1waHQnLCAnMi4wJywgJy1waCcsICc3LjAnLCAnLXRuJywgJzgnLCAnLW1hJywgJzIwMCcsICctaW1hZScsICc8aW5maWxlLm1hZT4nLCAnLW9tYWUnLCAnPG91dGZpbGUubWFlPic=

>  <r_lp_tautomer_probability>  (187) 
1

>  <r_epik_Ionization_Penalty>  (187) 
5.56775e-08

>  <r_epik_Ionization_Penalty_Charging>  (187) 
0

>  <r_epik_Ionization_Penalty_Neutral>  (187) 
5.56775e-08

>  <r_epik_State_Penalty>  (187) 
-0

>  <r_epik_Charging_Adjusted_Penalty>  (187) 
0

>  <i_epik_Tot_Q>  (187) 
0

>  <i_epik_Tot_abs_Q>  (187) 
0

>  <s_epik_Chemistry_Notes>  (187) 
This compound has an ester and may undergo hydrolysis at high or low pH. This compound contains an acetal/aminal-like group ( X-CH(R)-Y where X, Y are N, S, or O) that may be acid/base labile, releasing an aldehyde.

>  <s_lp_Force_Field>  (187) 
OPLS3e

>  <r_lp_Energy>  (187) 
164.224

>  <b_lp_Chiralities_Consistent>  (187) 
1

>  <s_lp_Variant>  (187) 
62:0-1

>  <s_i_glide_gridfile>  (187) 
pfpi4k_grid

>  <i_i_glide_lignum>  (187) 
7

>  <i_i_glide_rotatable_bonds>  (187) 
1

>  <r_i_docking_score>  (187) 
-2.78665

>  <r_i_glide_ligand_efficiency>  (187) 
-0.0928882

>  <r_i_glide_ligand_efficiency_sa>  (187) 
-0.288625

>  <r_i_glide_ligand_efficiency_ln>  (187) 
-0.633157

>  <r_i_glide_gscore>  (187) 
-2.78665

>  <r_i_glide_lipo>  (187) 
-0.341319

>  <r_i_glide_hbond>  (187) 
-0.154708

>  <r_i_glide_metal>  (187) 
-0

>  <r_i_glide_rewards>  (187) 
-0.609915

>  <r_i_glide_evdw>  (187) 
-19.6616

>  <r_i_glide_ecoul>  (187) 
-4.42768

>  <r_i_glide_erotb>  (187) 
0

>  <r_i_glide_esite>  (187) 
-0.0334702

>  <r_i_glide_emodel>  (187) 
-28.0775

>  <r_i_glide_energy>  (187) 
-24.0893

>  <r_i_glide_einternal>  (187) 
0.379499

>  <r_i_glide_intrahb_reward>  (187) 
-0

>  <i_i_glide_confnum>  (187) 
2

>  <i_i_glide_posenum>  (187) 
1

>  <r_i_glide_eff_state_penalty>  (187) 
0

>  <ligand_id>  (187) 
62

>  <original_smiles>  (187) 
CC1CC2=C3COC(=O)C4C=CC(=CC1C1(C)C5C(C)CC1C2(C)COC5O)C34C

>  <smiles>  (187) 
[H]OC1([H])OC([H])([H])C2(C([H])([H])[H])C3=C4C([H])([H])OC(=O)C5([H])C([H])=C([H])C(=C([H])C([H])(C([H])(C([H])([H])[H])C3([H])[H])C3(C([H])([H])[H])C1([H])C([H])(C([H])([H])[H])C([H])([H])C23[H])C45C([H])([H])[H]

$$$$
62:0:2
     RDKit          3D

 64 69  0  0  1  0  0  0  0  0999 V2000
    2.8357   -0.0768    0.9896 C   0  0  0  0  0  0  0  0  0  0  0  0
    3.8513   -1.0796    1.5146 C   0  0  2  0  0  0  0  0  0  0  0  0
    5.2437   -0.8742    0.8974 C   0  0  0  0  0  0  0  0  0  0  0  0
    5.5267   -2.0320   -0.0297 C   0  0  0  0  0  0  0  0  0  0  0  0
    5.0451   -1.9173   -1.3225 C   0  0  0  0  0  0  0  0  0  0  0  0
    4.9082   -0.5361   -1.8564 C   0  0  0  0  0  0  0  0  0  0  0  0
    4.5325   -0.3213   -3.1626 O   0  0  0  0  0  0  0  0  0  0  0  0
    3.4278   -0.8667   -3.6402 C   0  0  0  0  0  0  0  0  0  0  0  0
    2.7432   -0.3214   -4.5027 O   0  0  0  0  0  0  0  0  0  0  0  0
    3.4544   -2.3247   -3.3905 C   0  0  2  0  0  0  0  0  0  0  0  0
    2.0517   -2.8947   -3.3133 C   0  0  0  0  0  0  0  0  0  0  0  0
    1.7719   -3.3505   -2.0844 C   0  0  0  0  0  0  0  0  0  0  0  0
    2.8943   -3.1370   -1.2137 C   0  0  0  0  0  0  0  0  0  0  0  0
    2.6337   -3.0008    0.1243 C   0  0  0  0  0  0  0  0  0  0  0  0
    3.3286   -2.5622    1.4213 C   0  0  1  0  0  0  0  0  0  0  0  0
    4.1419   -3.6011    2.2842 C   0  0  1  0  0  0  0  0  0  0  0  0
    3.7305   -3.2804    3.7576 C   0  0  0  0  0  0  0  0  0  0  0  0
    3.9774   -5.1461    2.0812 C   0  0  2  0  0  0  0  0  0  0  0  0
    5.0880   -5.7674    2.9701 C   0  0  1  0  0  0  0  0  0  0  0  0
    5.5666   -7.2133    2.8294 C   0  0  0  0  0  0  0  0  0  0  0  0
    6.2159   -4.7385    2.8991 C   0  0  0  0  0  0  0  0  0  0  0  0
    5.6692   -3.4464    2.2029 C   0  0  1  0  0  0  0  0  0  0  0  0
    6.1901   -3.1907    0.7374 C   0  0  2  0  0  0  0  0  0  0  0  0
    7.6582   -2.7160    0.7567 C   0  0  0  0  0  0  0  0  0  0  0  0
    6.3435   -4.5151    0.0118 C   0  0  0  0  0  0  0  0  0  0  0  0
    5.5906   -5.6682    0.3188 O   0  0  0  0  0  0  0  0  0  0  0  0
    4.2322   -5.6419    0.6277 C   0  0  1  0  0  0  0  0  0  0  0  0
    3.6996   -6.9024    0.4951 O   0  0  0  0  0  0  0  0  0  0  0  0
    4.1202   -2.8748   -2.0702 C   0  0  2  0  0  0  0  0  0  0  0  0
    4.7919   -4.1118   -2.6368 C   0  0  0  0  0  0  0  0  0  0  0  0
    2.6809   -0.2870   -0.0592 H   0  0  0  0  0  0  0  0  0  0  0  0
    3.1865    0.9508    1.0711 H   0  0  0  0  0  0  0  0  0  0  0  0
    1.8663   -0.1484    1.4798 H   0  0  0  0  0  0  0  0  0  0  0  0
    3.9365   -0.7903    2.5590 H   0  0  0  0  0  0  0  0  0  0  0  0
    5.3183    0.1111    0.4456 H   0  0  0  0  0  0  0  0  0  0  0  0
    5.9667   -0.7890    1.7044 H   0  0  0  0  0  0  0  0  0  0  0  0
    4.2469    0.0529   -1.2558 H   0  0  0  0  0  0  0  0  0  0  0  0
    5.8712   -0.0699   -1.7490 H   0  0  0  0  0  0  0  0  0  0  0  0
    3.9046   -2.7452   -4.3081 H   0  0  0  0  0  0  0  0  0  0  0  0
    1.3645   -2.8456   -4.1318 H   0  0  0  0  0  0  0  0  0  0  0  0
    0.7993   -3.7548   -1.8355 H   0  0  0  0  0  0  0  0  0  0  0  0
    1.6058   -3.1585    0.3246 H   0  0  0  0  0  0  0  0  0  0  0  0
    2.4111   -2.4737    2.0015 H   0  0  0  0  0  0  0  0  0  0  0  0
    4.4126   -3.6767    4.5066 H   0  0  0  0  0  0  0  0  0  0  0  0
    2.7377   -3.6740    3.9865 H   0  0  0  0  0  0  0  0  0  0  0  0
    3.7083   -2.2137    3.9830 H   0  0  0  0  0  0  0  0  0  0  0  0
    2.9779   -5.4788    2.4067 H   0  0  0  0  0  0  0  0  0  0  0  0
    4.7087   -5.7281    3.9863 H   0  0  0  0  0  0  0  0  0  0  0  0
    6.1194   -7.3924    1.9126 H   0  0  0  0  0  0  0  0  0  0  0  0
    4.7454   -7.9142    2.9008 H   0  0  0  0  0  0  0  0  0  0  0  0
    6.2626   -7.4493    3.6331 H   0  0  0  0  0  0  0  0  0  0  0  0
    6.3777   -4.6154    3.9734 H   0  0  0  0  0  0  0  0  0  0  0  0
    7.1166   -5.1194    2.4237 H   0  0  0  0  0  0  0  0  0  0  0  0
    5.9654   -2.5836    2.8105 H   0  0  0  0  0  0  0  0  0  0  0  0
    8.2612   -3.3973    1.3419 H   0  0  0  0  0  0  0  0  0  0  0  0
    7.7704   -1.7312    1.2627 H   0  0  0  0  0  0  0  0  0  0  0  0
    8.1029   -2.7117   -0.2494 H   0  0  0  0  0  0  0  0  0  0  0  0
    6.4576   -4.2155   -1.0052 H   0  0  0  0  0  0  0  0  0  0  0  0
    7.3185   -4.9420    0.1998 H   0  0  0  0  0  0  0  0  0  0  0  0
    3.7110   -5.0961   -0.1462 H   0  0  0  0  0  0  0  0  0  0  0  0
    4.1475   -7.4879    1.1437 H   0  0  0  0  0  0  0  0  0  0  0  0
    4.7567   -4.9151   -1.9135 H   0  0  0  0  0  0  0  0  0  0  0  0
    5.7979   -3.8960   -2.9956 H   0  0  0  0  0  0  0  0  0  0  0  0
    4.2604   -4.5516   -3.4869 H   0  0  0  0  0  0  0  0  0  0  0  0
  1  2  1  0
  1 31  1  0
  1 32  1  0
  1 33  1  0
  2 15  1  0
  2  3  1  0
  2 34  1  1
  3  4  1  0
  3 35  1  0
  3 36  1  0
  4 23  1  0
  4  5  2  3
  5 29  1  0
  5  6  1  0
  6  7  1  0
  6 37  1  0
  6 38  1  0
  7  8  1  0
  8  9  2  0
  8 10  1  0
 10 29  1  0
 10 11  1  0
 10 39  1  6
 11 12  2  0
 11 40  1  0
 12 13  1  0
 12 41  1  0
 13 14  2  3
 13 29  1  0
 14 15  1  0
 14 42  1  0
 15 16  1  0
 15 43  1  1
 16 22  1  0
 16 17  1  1
 16 18  1  0
 17 44  1  0
 17 45  1  0
 17 46  1  0
 18 27  1  0
 18 19  1  0
 18 47  1  1
 19 20  1  0
 19 21  1  0
 19 48  1  1
 20 49  1  0
 20 50  1  0
 20 51  1  0
 21 22  1  0
 21 52  1  0
 21 53  1  0
 22 23  1  0
 22 54  1  1
 23 24  1  1
 23 25  1  0
 24 55  1  0
 24 56  1  0
 24 57  1  0
 25 26  1  0
 25 58  1  0
 25 59  1  0
 26 27  1  0
 27 28  1  0
 27 60  1  6
 28 61  1  0
 29 30  1  6
 30 62  1  0
 30 63  1  0
 30 64  1  0
M  END
>  <i_m_ct_stereo_status>  (188) 
1

>  <s_m_source_file>  (188) 
/var/tmp/pbs.5076255.sched01/tmpbhhv4xqx/80i1gy0gug.sdf

>  <i_m_source_file_index>  (188) 
7

>  <i_lp_mmshare_version>  (188) 
48012

>  <i_f3d_flags>  (188) 
0

>  <s_epik_input>  (188) 
W0NIXS8xPUMyXFtDSF09W0NIXVtDQEBIXShDKD1PKU9bQ0gyXTMpW0NAQF0yKFtDSDNdKUMzPUMoW0NIMl1bQ0BASF0oW0NIM10pW0NAQEhdMVtDQEBdNDVbQ0gzXSlbQ0BAXTYoW0NIM10pW0NAQEhdNVtDSDJdW0NASF0oW0NIM10pW0NAQEhdNFtDQEhdKFtPSF0pT1tDSDJdNg==

>  <s_epik_cmdline>  (188) 
J2VwaWtfcHl0aG9uJywgJy1waHQnLCAnMi4wJywgJy1waCcsICc3LjAnLCAnLXRuJywgJzgnLCAnLW1hJywgJzIwMCcsICctaW1hZScsICc8aW5maWxlLm1hZT4nLCAnLW9tYWUnLCAnPG91dGZpbGUubWFlPic=

>  <r_lp_tautomer_probability>  (188) 
1

>  <r_epik_Ionization_Penalty>  (188) 
5.56775e-08

>  <r_epik_Ionization_Penalty_Charging>  (188) 
0

>  <r_epik_Ionization_Penalty_Neutral>  (188) 
5.56775e-08

>  <r_epik_State_Penalty>  (188) 
-0

>  <r_epik_Charging_Adjusted_Penalty>  (188) 
0

>  <i_epik_Tot_Q>  (188) 
0

>  <i_epik_Tot_abs_Q>  (188) 
0

>  <s_epik_Chemistry_Notes>  (188) 
This compound has an ester and may undergo hydrolysis at high or low pH. This compound contains an acetal/aminal-like group ( X-CH(R)-Y where X, Y are N, S, or O) that may be acid/base labile, releasing an aldehyde.

>  <s_lp_Force_Field>  (188) 
OPLS3e

>  <r_lp_Energy>  (188) 
164.224

>  <b_lp_Chiralities_Consistent>  (188) 
1

>  <s_lp_Variant>  (188) 
62:0-1

>  <s_i_glide_gridfile>  (188) 
pfpi4k_grid

>  <i_i_glide_lignum>  (188) 
7

>  <i_i_glide_rotatable_bonds>  (188) 
1

>  <r_i_docking_score>  (188) 
-2.60065

>  <r_i_glide_ligand_efficiency>  (188) 
-0.0866883

>  <r_i_glide_ligand_efficiency_sa>  (188) 
-0.269361

>  <r_i_glide_ligand_efficiency_ln>  (188) 
-0.590896

>  <r_i_glide_gscore>  (188) 
-2.60065

>  <r_i_glide_lipo>  (188) 
-0.92258

>  <r_i_glide_hbond>  (188) 
0

>  <r_i_glide_metal>  (188) 
-0

>  <r_i_glide_rewards>  (188) 
-1.03653

>  <r_i_glide_evdw>  (188) 
-11.9336

>  <r_i_glide_ecoul>  (188) 
-0.299049

>  <r_i_glide_erotb>  (188) 
0

>  <r_i_glide_esite>  (188) 
0

>  <r_i_glide_emodel>  (188) 
-13.5119

>  <r_i_glide_energy>  (188) 
-12.2326

>  <r_i_glide_einternal>  (188) 
0.00169023

>  <r_i_glide_intrahb_reward>  (188) 
-0

>  <i_i_glide_confnum>  (188) 
2

>  <i_i_glide_posenum>  (188) 
26

>  <r_i_glide_eff_state_penalty>  (188) 
0

>  <ligand_id>  (188) 
62

>  <original_smiles>  (188) 
CC1CC2=C3COC(=O)C4C=CC(=CC1C1(C)C5C(C)CC1C2(C)COC5O)C34C

>  <smiles>  (188) 
[H]OC1([H])OC([H])([H])C2(C([H])([H])[H])C3=C4C([H])([H])OC(=O)C5([H])C([H])=C([H])C(=C([H])C([H])(C([H])(C([H])([H])[H])C3([H])[H])C3(C([H])([H])[H])C1([H])C([H])(C([H])([H])[H])C([H])([H])C23[H])C45C([H])([H])[H]

$$$$
62:1:0
     RDKit          3D

 64 69  0  0  1  0  0  0  0  0999 V2000
    7.3951   -5.8311    2.2244 C   0  0  0  0  0  0  0  0  0  0  0  0
    6.3889   -4.7345    1.7983 C   0  0  2  0  0  0  0  0  0  0  0  0
    5.4053   -4.2628    2.9063 C   0  0  0  0  0  0  0  0  0  0  0  0
    4.0570   -3.6678    2.4662 C   0  0  0  0  0  0  0  0  0  0  0  0
    2.8968   -4.3849    2.5987 C   0  0  0  0  0  0  0  0  0  0  0  0
    1.8019   -3.8887    3.5089 C   0  0  0  0  0  0  0  0  0  0  0  0
    1.8069   -4.6192    4.7418 O   0  0  0  0  0  0  0  0  0  0  0  0
    2.2473   -5.9234    4.8799 C   0  0  0  0  0  0  0  0  0  0  0  0
    2.3481   -6.4781    5.9701 O   0  0  0  0  0  0  0  0  0  0  0  0
    2.5409   -6.7086    3.5864 C   0  0  2  0  0  0  0  0  0  0  0  0
    3.8099   -7.5428    3.6013 C   0  0  0  0  0  0  0  0  0  0  0  0
    4.5483   -7.3800    2.4943 C   0  0  0  0  0  0  0  0  0  0  0  0
    3.9201   -6.4344    1.6085 C   0  0  0  0  0  0  0  0  0  0  0  0
    4.4160   -5.7908    0.5183 C   0  0  0  0  0  0  0  0  0  0  0  0
    5.6912   -4.9365    0.4187 C   0  0  1  0  0  0  0  0  0  0  0  0
    5.5930   -3.4584   -0.2494 C   0  0  1  0  0  0  0  0  0  0  0  0
    7.0414   -3.3226   -0.8558 C   0  0  0  0  0  0  0  0  0  0  0  0
    4.6277   -3.0282   -1.4446 C   0  0  2  0  0  0  0  0  0  0  0  0
    4.9424   -1.5104   -1.6180 C   0  0  1  0  0  0  0  0  0  0  0  0
    4.0426   -0.5999   -2.4614 C   0  0  0  0  0  0  0  0  0  0  0  0
    5.3035   -1.0000   -0.2125 C   0  0  0  0  0  0  0  0  0  0  0  0
    5.3585   -2.2354    0.7283 C   0  0  1  0  0  0  0  0  0  0  0  0
    4.1132   -2.3223    1.6995 C   0  0  2  0  0  0  0  0  0  0  0  0
    4.1800   -1.1674    2.7212 C   0  0  0  0  0  0  0  0  0  0  0  0
    2.8182   -2.1319    0.8596 C   0  0  0  0  0  0  0  0  0  0  0  0
    2.6019   -3.2611    0.0376 O   0  0  0  0  0  0  0  0  0  0  0  0
    3.0792   -3.3102   -1.2724 C   0  0  1  0  0  0  0  0  0  0  0  0
    2.2226   -2.6870   -2.2099 O   0  0  0  0  0  0  0  0  0  0  0  0
    2.6856   -5.8791    2.2966 C   0  0  2  0  0  0  0  0  0  0  0  0
    1.4432   -6.1038    1.4139 C   0  0  0  0  0  0  0  0  0  0  0  0
    6.9497   -6.7076    2.6730 H   0  0  0  0  0  0  0  0  0  0  0  0
    8.0855   -5.4556    2.9816 H   0  0  0  0  0  0  0  0  0  0  0  0
    8.0042   -6.1599    1.3803 H   0  0  0  0  0  0  0  0  0  0  0  0
    7.0940   -3.9168    1.6960 H   0  0  0  0  0  0  0  0  0  0  0  0
    5.2144   -5.0801    3.5971 H   0  0  0  0  0  0  0  0  0  0  0  0
    5.8637   -3.5029    3.5326 H   0  0  0  0  0  0  0  0  0  0  0  0
    1.9293   -2.8291    3.7216 H   0  0  0  0  0  0  0  0  0  0  0  0
    0.8339   -3.9964    3.0230 H   0  0  0  0  0  0  0  0  0  0  0  0
    1.7264   -7.4180    3.4851 H   0  0  0  0  0  0  0  0  0  0  0  0
    4.0178   -8.2593    4.3859 H   0  0  0  0  0  0  0  0  0  0  0  0
    5.4065   -7.9972    2.2487 H   0  0  0  0  0  0  0  0  0  0  0  0
    3.6391   -5.2693    0.0471 H   0  0  0  0  0  0  0  0  0  0  0  0
    6.3316   -5.5528   -0.2093 H   0  0  0  0  0  0  0  0  0  0  0  0
    7.3829   -2.3040   -1.0224 H   0  0  0  0  0  0  0  0  0  0  0  0
    7.1045   -3.8389   -1.8117 H   0  0  0  0  0  0  0  0  0  0  0  0
    7.8303   -3.7561   -0.2483 H   0  0  0  0  0  0  0  0  0  0  0  0
    4.9198   -3.5343   -2.3691 H   0  0  0  0  0  0  0  0  0  0  0  0
    5.8538   -1.4714   -2.2064 H   0  0  0  0  0  0  0  0  0  0  0  0
    3.0831   -0.4642   -1.9727 H   0  0  0  0  0  0  0  0  0  0  0  0
    3.8488   -0.9740   -3.4682 H   0  0  0  0  0  0  0  0  0  0  0  0
    4.4863    0.3927   -2.5600 H   0  0  0  0  0  0  0  0  0  0  0  0
    6.2774   -0.5167   -0.2395 H   0  0  0  0  0  0  0  0  0  0  0  0
    4.6294   -0.2151    0.1254 H   0  0  0  0  0  0  0  0  0  0  0  0
    6.2313   -2.0731    1.3599 H   0  0  0  0  0  0  0  0  0  0  0  0
    4.1017   -0.1917    2.2408 H   0  0  0  0  0  0  0  0  0  0  0  0
    5.1122   -1.1818    3.2867 H   0  0  0  0  0  0  0  0  0  0  0  0
    3.3575   -1.2178    3.4350 H   0  0  0  0  0  0  0  0  0  0  0  0
    1.9504   -2.0873    1.5161 H   0  0  0  0  0  0  0  0  0  0  0  0
    2.7626   -1.2103    0.2844 H   0  0  0  0  0  0  0  0  0  0  0  0
    2.9126   -4.3340   -1.5242 H   0  0  0  0  0  0  0  0  0  0  0  0
    1.7710   -1.9647   -1.7714 H   0  0  0  0  0  0  0  0  0  0  0  0
    1.4698   -5.4744    0.5260 H   0  0  0  0  0  0  0  0  0  0  0  0
    0.5266   -5.8803    1.9574 H   0  0  0  0  0  0  0  0  0  0  0  0
    1.3797   -7.1417    1.0790 H   0  0  0  0  0  0  0  0  0  0  0  0
  1  2  1  0
  1 31  1  0
  1 32  1  0
  1 33  1  0
  2 15  1  0
  2  3  1  0
  2 34  1  6
  3  4  1  0
  3 35  1  0
  3 36  1  0
  4 23  1  0
  4  5  2  3
  5 29  1  0
  5  6  1  0
  6  7  1  0
  6 37  1  0
  6 38  1  0
  7  8  1  0
  8  9  2  0
  8 10  1  0
 10 29  1  0
 10 11  1  0
 10 39  1  6
 11 12  2  0
 11 40  1  0
 12 13  1  0
 12 41  1  0
 13 14  2  3
 13 29  1  0
 14 15  1  0
 14 42  1  0
 15 16  1  0
 15 43  1  6
 16 22  1  0
 16 17  1  6
 16 18  1  0
 17 44  1  0
 17 45  1  0
 17 46  1  0
 18 27  1  0
 18 19  1  0
 18 47  1  6
 19 20  1  0
 19 21  1  0
 19 48  1  6
 20 49  1  0
 20 50  1  0
 20 51  1  0
 21 22  1  0
 21 52  1  0
 21 53  1  0
 22 23  1  0
 22 54  1  1
 23 24  1  1
 23 25  1  0
 24 55  1  0
 24 56  1  0
 24 57  1  0
 25 26  1  0
 25 58  1  0
 25 59  1  0
 26 27  1  0
 27 28  1  0
 27 60  1  6
 28 61  1  0
 29 30  1  6
 30 62  1  0
 30 63  1  0
 30 64  1  0
M  END
>  <i_m_ct_stereo_status>  (189) 
1

>  <s_m_source_file>  (189) 
/var/tmp/pbs.5076255.sched01/tmpbhhv4xqx/80i1gy0gug.sdf

>  <i_m_source_file_index>  (189) 
8

>  <i_lp_mmshare_version>  (189) 
48012

>  <i_f3d_flags>  (189) 
0

>  <s_epik_input>  (189) 
W0NIXS8xPUMyXFtDSF09W0NIXVtDQEBIXShDKD1PKU9bQ0gyXTMpW0NAQF0yKFtDSDNdKUMzPUMoW0NIMl1bQ0BASF0oW0NIM10pW0NAQEhdMVtDQEBdNDVbQ0gzXSlbQ0BAXTYoW0NIM10pW0NAQEhdNVtDSDJdW0NASF0oW0NIM10pW0NAQEhdNFtDQEhdKFtPSF0pT1tDSDJdNg==

>  <s_epik_cmdline>  (189) 
J2VwaWtfcHl0aG9uJywgJy1waHQnLCAnMi4wJywgJy1waCcsICc3LjAnLCAnLXRuJywgJzgnLCAnLW1hJywgJzIwMCcsICctaW1hZScsICc8aW5maWxlLm1hZT4nLCAnLW9tYWUnLCAnPG91dGZpbGUubWFlPic=

>  <r_lp_tautomer_probability>  (189) 
1

>  <r_epik_Ionization_Penalty>  (189) 
5.56775e-08

>  <r_epik_Ionization_Penalty_Charging>  (189) 
0

>  <r_epik_Ionization_Penalty_Neutral>  (189) 
5.56775e-08

>  <r_epik_State_Penalty>  (189) 
-0

>  <r_epik_Charging_Adjusted_Penalty>  (189) 
0

>  <i_epik_Tot_Q>  (189) 
0

>  <i_epik_Tot_abs_Q>  (189) 
0

>  <s_epik_Chemistry_Notes>  (189) 
This compound has an ester and may undergo hydrolysis at high or low pH. This compound contains an acetal/aminal-like group ( X-CH(R)-Y where X, Y are N, S, or O) that may be acid/base labile, releasing an aldehyde.

>  <s_lp_Force_Field>  (189) 
OPLS3e

>  <r_lp_Energy>  (189) 
168.596

>  <b_lp_Chiralities_Consistent>  (189) 
1

>  <s_lp_Variant>  (189) 
62:0-2

>  <s_i_glide_gridfile>  (189) 
pfpi4k_grid

>  <i_i_glide_lignum>  (189) 
8

>  <i_i_glide_rotatable_bonds>  (189) 
1

>  <r_i_docking_score>  (189) 
-3.35599

>  <r_i_glide_ligand_efficiency>  (189) 
-0.111866

>  <r_i_glide_ligand_efficiency_sa>  (189) 
-0.347595

>  <r_i_glide_ligand_efficiency_ln>  (189) 
-0.762518

>  <r_i_glide_gscore>  (189) 
-3.35599

>  <r_i_glide_lipo>  (189) 
-0.70963

>  <r_i_glide_hbond>  (189) 
0

>  <r_i_glide_metal>  (189) 
-0

>  <r_i_glide_rewards>  (189) 
-0.739441

>  <r_i_glide_evdw>  (189) 
-24.8533

>  <r_i_glide_ecoul>  (189) 
-4.42839

>  <r_i_glide_erotb>  (189) 
0

>  <r_i_glide_esite>  (189) 
0

>  <r_i_glide_emodel>  (189) 
-33.826

>  <r_i_glide_energy>  (189) 
-29.2816

>  <r_i_glide_einternal>  (189) 
1.54662

>  <r_i_glide_intrahb_reward>  (189) 
-0

>  <i_i_glide_confnum>  (189) 
1

>  <i_i_glide_posenum>  (189) 
35

>  <r_i_glide_eff_state_penalty>  (189) 
0

>  <ligand_id>  (189) 
62

>  <original_smiles>  (189) 
CC1CC2=C3COC(=O)C4C=CC(=CC1C1(C)C5C(C)CC1C2(C)COC5O)C34C

>  <smiles>  (189) 
[H]OC1([H])OC([H])([H])C2(C([H])([H])[H])C3=C4C([H])([H])OC(=O)C5([H])C([H])=C([H])C(=C([H])C([H])(C([H])(C([H])([H])[H])C3([H])[H])C3(C([H])([H])[H])C1([H])C([H])(C([H])([H])[H])C([H])([H])C23[H])C45C([H])([H])[H]

$$$$
62:1:1
     RDKit          3D

 64 69  0  0  1  0  0  0  0  0999 V2000
    7.4779   -5.8583    2.5987 C   0  0  0  0  0  0  0  0  0  0  0  0
    6.4573   -4.8111    2.0966 C   0  0  2  0  0  0  0  0  0  0  0  0
    5.3874   -4.3733    3.1341 C   0  0  0  0  0  0  0  0  0  0  0  0
    4.0447   -3.8339    2.5953 C   0  0  0  0  0  0  0  0  0  0  0  0
    2.9108   -4.6031    2.6369 C   0  0  0  0  0  0  0  0  0  0  0  0
    1.7266   -4.1671    3.4619 C   0  0  0  0  0  0  0  0  0  0  0  0
    1.6691   -4.9096    4.6881 O   0  0  0  0  0  0  0  0  0  0  0  0
    2.1470   -6.1945    4.8506 C   0  0  0  0  0  0  0  0  0  0  0  0
    2.1844   -6.7535    5.9436 O   0  0  0  0  0  0  0  0  0  0  0  0
    2.5802   -6.9520    3.5809 C   0  0  2  0  0  0  0  0  0  0  0  0
    3.8806   -7.7303    3.6910 C   0  0  0  0  0  0  0  0  0  0  0  0
    4.6916   -7.5287    2.6432 C   0  0  0  0  0  0  0  0  0  0  0  0
    4.0931   -6.6006    1.7172 C   0  0  0  0  0  0  0  0  0  0  0  0
    4.6376   -5.9307    0.6694 C   0  0  0  0  0  0  0  0  0  0  0  0
    5.8817   -5.0243    0.6659 C   0  0  1  0  0  0  0  0  0  0  0  0
    5.7751   -3.5389    0.0091 C   0  0  1  0  0  0  0  0  0  0  0  0
    7.2601   -3.3412   -0.4821 C   0  0  0  0  0  0  0  0  0  0  0  0
    4.8946   -3.1304   -1.2505 C   0  0  2  0  0  0  0  0  0  0  0  0
    5.1329   -1.5921   -1.3855 C   0  0  1  0  0  0  0  0  0  0  0  0
    4.2240   -0.7054   -2.2534 C   0  0  0  0  0  0  0  0  0  0  0  0
    5.3787   -1.0848    0.0426 C   0  0  0  0  0  0  0  0  0  0  0  0
    5.4093   -2.3344    0.9710 C   0  0  1  0  0  0  0  0  0  0  0  0
    4.0908   -2.4844    1.8313 C   0  0  2  0  0  0  0  0  0  0  0  0
    4.0291   -1.3395    2.8681 C   0  0  0  0  0  0  0  0  0  0  0  0
    2.8583   -2.3459    0.8802 C   0  0  0  0  0  0  0  0  0  0  0  0
    2.7424   -3.4689    0.0226 O   0  0  0  0  0  0  0  0  0  0  0  0
    3.3710   -3.5153   -1.2272 C   0  0  1  0  0  0  0  0  0  0  0  0
    2.5974   -2.9578   -2.2627 O   0  0  0  0  0  0  0  0  0  0  0  0
    2.7869   -6.1029    2.3106 C   0  0  2  0  0  0  0  0  0  0  0  0
    1.6221   -6.3653    1.3316 C   0  0  0  0  0  0  0  0  0  0  0  0
    7.0430   -6.7575    3.0076 H   0  0  0  0  0  0  0  0  0  0  0  0
    8.0858   -5.4576    3.4115 H   0  0  0  0  0  0  0  0  0  0  0  0
    8.1665   -6.1547    1.8080 H   0  0  0  0  0  0  0  0  0  0  0  0
    7.1263   -3.9611    2.0533 H   0  0  0  0  0  0  0  0  0  0  0  0
    5.1746   -5.2025    3.8059 H   0  0  0  0  0  0  0  0  0  0  0  0
    5.8105   -3.6158    3.7954 H   0  0  0  0  0  0  0  0  0  0  0  0
    1.7866   -3.1032    3.6891 H   0  0  0  0  0  0  0  0  0  0  0  0
    0.8055   -4.3163    2.9002 H   0  0  0  0  0  0  0  0  0  0  0  0
    1.8069   -7.6966    3.4127 H   0  0  0  0  0  0  0  0  0  0  0  0
    4.0570   -8.4446    4.4861 H   0  0  0  0  0  0  0  0  0  0  0  0
    5.5905   -8.1043    2.4632 H   0  0  0  0  0  0  0  0  0  0  0  0
    3.8729   -5.4334    0.1558 H   0  0  0  0  0  0  0  0  0  0  0  0
    6.6017   -5.6041    0.0880 H   0  0  0  0  0  0  0  0  0  0  0  0
    7.5645   -2.3089   -0.6349 H   0  0  0  0  0  0  0  0  0  0  0  0
    7.4292   -3.8530   -1.4294 H   0  0  0  0  0  0  0  0  0  0  0  0
    8.0142   -3.7368    0.1944 H   0  0  0  0  0  0  0  0  0  0  0  0
    5.2818   -3.6097   -2.1511 H   0  0  0  0  0  0  0  0  0  0  0  0
    6.0787   -1.5046   -1.9127 H   0  0  0  0  0  0  0  0  0  0  0  0
    3.2289   -0.6586   -1.8162 H   0  0  0  0  0  0  0  0  0  0  0  0
    4.1176   -1.0738   -3.2745 H   0  0  0  0  0  0  0  0  0  0  0  0
    4.6151    0.3079   -2.3240 H   0  0  0  0  0  0  0  0  0  0  0  0
    6.3335   -0.5625    0.0822 H   0  0  0  0  0  0  0  0  0  0  0  0
    4.6459   -0.3344    0.3328 H   0  0  0  0  0  0  0  0  0  0  0  0
    6.2223   -2.1426    1.6715 H   0  0  0  0  0  0  0  0  0  0  0  0
    3.9453   -0.3623    2.3928 H   0  0  0  0  0  0  0  0  0  0  0  0
    4.9141   -1.3192    3.5063 H   0  0  0  0  0  0  0  0  0  0  0  0
    3.1586   -1.4333    3.5174 H   0  0  0  0  0  0  0  0  0  0  0  0
    1.9487   -2.3375    1.4796 H   0  0  0  0  0  0  0  0  0  0  0  0
    2.8029   -1.4178    0.3188 H   0  0  0  0  0  0  0  0  0  0  0  0
    3.3402   -4.5555   -1.4959 H   0  0  0  0  0  0  0  0  0  0  0  0
    1.8560   -3.5258   -2.4154 H   0  0  0  0  0  0  0  0  0  0  0  0
    1.6894   -5.7297    0.4502 H   0  0  0  0  0  0  0  0  0  0  0  0
    0.6542   -6.1914    1.8001 H   0  0  0  0  0  0  0  0  0  0  0  0
    1.6300   -7.4023    0.9889 H   0  0  0  0  0  0  0  0  0  0  0  0
  1  2  1  0
  1 31  1  0
  1 32  1  0
  1 33  1  0
  2 15  1  0
  2  3  1  0
  2 34  1  6
  3  4  1  0
  3 35  1  0
  3 36  1  0
  4 23  1  0
  4  5  2  3
  5 29  1  0
  5  6  1  0
  6  7  1  0
  6 37  1  0
  6 38  1  0
  7  8  1  0
  8  9  2  0
  8 10  1  0
 10 29  1  0
 10 11  1  0
 10 39  1  6
 11 12  2  0
 11 40  1  0
 12 13  1  0
 12 41  1  0
 13 14  2  3
 13 29  1  0
 14 15  1  0
 14 42  1  0
 15 16  1  0
 15 43  1  6
 16 22  1  0
 16 17  1  6
 16 18  1  0
 17 44  1  0
 17 45  1  0
 17 46  1  0
 18 27  1  0
 18 19  1  0
 18 47  1  6
 19 20  1  0
 19 21  1  0
 19 48  1  6
 20 49  1  0
 20 50  1  0
 20 51  1  0
 21 22  1  0
 21 52  1  0
 21 53  1  0
 22 23  1  0
 22 54  1  1
 23 24  1  1
 23 25  1  0
 24 55  1  0
 24 56  1  0
 24 57  1  0
 25 26  1  0
 25 58  1  0
 25 59  1  0
 26 27  1  0
 27 28  1  0
 27 60  1  6
 28 61  1  0
 29 30  1  6
 30 62  1  0
 30 63  1  0
 30 64  1  0
M  END
>  <i_m_ct_stereo_status>  (190) 
1

>  <s_m_source_file>  (190) 
/var/tmp/pbs.5076255.sched01/tmpbhhv4xqx/80i1gy0gug.sdf

>  <i_m_source_file_index>  (190) 
8

>  <i_lp_mmshare_version>  (190) 
48012

>  <i_f3d_flags>  (190) 
0

>  <s_epik_input>  (190) 
W0NIXS8xPUMyXFtDSF09W0NIXVtDQEBIXShDKD1PKU9bQ0gyXTMpW0NAQF0yKFtDSDNdKUMzPUMoW0NIMl1bQ0BASF0oW0NIM10pW0NAQEhdMVtDQEBdNDVbQ0gzXSlbQ0BAXTYoW0NIM10pW0NAQEhdNVtDSDJdW0NASF0oW0NIM10pW0NAQEhdNFtDQEhdKFtPSF0pT1tDSDJdNg==

>  <s_epik_cmdline>  (190) 
J2VwaWtfcHl0aG9uJywgJy1waHQnLCAnMi4wJywgJy1waCcsICc3LjAnLCAnLXRuJywgJzgnLCAnLW1hJywgJzIwMCcsICctaW1hZScsICc8aW5maWxlLm1hZT4nLCAnLW9tYWUnLCAnPG91dGZpbGUubWFlPic=

>  <r_lp_tautomer_probability>  (190) 
1

>  <r_epik_Ionization_Penalty>  (190) 
5.56775e-08

>  <r_epik_Ionization_Penalty_Charging>  (190) 
0

>  <r_epik_Ionization_Penalty_Neutral>  (190) 
5.56775e-08

>  <r_epik_State_Penalty>  (190) 
-0

>  <r_epik_Charging_Adjusted_Penalty>  (190) 
0

>  <i_epik_Tot_Q>  (190) 
0

>  <i_epik_Tot_abs_Q>  (190) 
0

>  <s_epik_Chemistry_Notes>  (190) 
This compound has an ester and may undergo hydrolysis at high or low pH. This compound contains an acetal/aminal-like group ( X-CH(R)-Y where X, Y are N, S, or O) that may be acid/base labile, releasing an aldehyde.

>  <s_lp_Force_Field>  (190) 
OPLS3e

>  <r_lp_Energy>  (190) 
168.596

>  <b_lp_Chiralities_Consistent>  (190) 
1

>  <s_lp_Variant>  (190) 
62:0-2

>  <s_i_glide_gridfile>  (190) 
pfpi4k_grid

>  <i_i_glide_lignum>  (190) 
8

>  <i_i_glide_rotatable_bonds>  (190) 
1

>  <r_i_docking_score>  (190) 
-3.08324

>  <r_i_glide_ligand_efficiency>  (190) 
-0.102775

>  <r_i_glide_ligand_efficiency_sa>  (190) 
-0.319344

>  <r_i_glide_ligand_efficiency_ln>  (190) 
-0.700545

>  <r_i_glide_gscore>  (190) 
-3.08324

>  <r_i_glide_lipo>  (190) 
-0.65558

>  <r_i_glide_hbond>  (190) 
0

>  <r_i_glide_metal>  (190) 
-0

>  <r_i_glide_rewards>  (190) 
-0.670753

>  <r_i_glide_evdw>  (190) 
-26.5984

>  <r_i_glide_ecoul>  (190) 
-2.84654

>  <r_i_glide_erotb>  (190) 
0

>  <r_i_glide_esite>  (190) 
0

>  <r_i_glide_emodel>  (190) 
-34.264

>  <r_i_glide_energy>  (190) 
-29.445

>  <r_i_glide_einternal>  (190) 
0.590992

>  <r_i_glide_intrahb_reward>  (190) 
-0

>  <i_i_glide_confnum>  (190) 
1

>  <i_i_glide_posenum>  (190) 
4

>  <r_i_glide_eff_state_penalty>  (190) 
0

>  <ligand_id>  (190) 
62

>  <original_smiles>  (190) 
CC1CC2=C3COC(=O)C4C=CC(=CC1C1(C)C5C(C)CC1C2(C)COC5O)C34C

>  <smiles>  (190) 
[H]OC1([H])OC([H])([H])C2(C([H])([H])[H])C3=C4C([H])([H])OC(=O)C5([H])C([H])=C([H])C(=C([H])C([H])(C([H])(C([H])([H])[H])C3([H])[H])C3(C([H])([H])[H])C1([H])C([H])(C([H])([H])[H])C([H])([H])C23[H])C45C([H])([H])[H]

$$$$
62:1:2
     RDKit          3D

 64 69  0  0  1  0  0  0  0  0999 V2000
    2.4281   -1.1353    4.0811 C   0  0  0  0  0  0  0  0  0  0  0  0
    3.0415   -1.8594    2.8637 C   0  0  2  0  0  0  0  0  0  0  0  0
    2.1018   -2.8511    2.1510 C   0  0  0  0  0  0  0  0  0  0  0  0
    2.7278   -4.0242    1.3569 C   0  0  0  0  0  0  0  0  0  0  0  0
    2.7087   -5.2987    1.8457 C   0  0  0  0  0  0  0  0  0  0  0  0
    1.9773   -6.3980    1.1147 C   0  0  0  0  0  0  0  0  0  0  0  0
    0.7160   -6.6529    1.7505 O   0  0  0  0  0  0  0  0  0  0  0  0
    0.4847   -6.5240    3.1020 C   0  0  0  0  0  0  0  0  0  0  0  0
   -0.6360   -6.6452    3.5869 O   0  0  0  0  0  0  0  0  0  0  0  0
    1.6923   -6.2097    4.0073 C   0  0  2  0  0  0  0  0  0  0  0  0
    1.4737   -5.1228    5.0484 C   0  0  0  0  0  0  0  0  0  0  0  0
    2.4802   -4.2363    5.0946 C   0  0  0  0  0  0  0  0  0  0  0  0
    3.4749   -4.5617    4.1043 C   0  0  0  0  0  0  0  0  0  0  0  0
    4.5138   -3.8312    3.6319 C   0  0  0  0  0  0  0  0  0  0  0  0
    4.4877   -2.4145    3.0240 C   0  0  1  0  0  0  0  0  0  0  0  0
    5.2129   -2.1680    1.5907 C   0  0  1  0  0  0  0  0  0  0  0  0
    5.6289   -0.6588    1.7619 C   0  0  0  0  0  0  0  0  0  0  0  0
    6.5345   -2.8813    1.0654 C   0  0  2  0  0  0  0  0  0  0  0  0
    6.7092   -2.2964   -0.3810 C   0  0  1  0  0  0  0  0  0  0  0  0
    7.6454   -2.9094   -1.4402 C   0  0  0  0  0  0  0  0  0  0  0  0
    5.2971   -1.9852   -0.8904 C   0  0  0  0  0  0  0  0  0  0  0  0
    4.3238   -2.2872    0.2850 C   0  0  1  0  0  0  0  0  0  0  0  0
    3.5461   -3.6453    0.0888 C   0  0  2  0  0  0  0  0  0  0  0  0
    2.5652   -3.4929   -1.0949 C   0  0  0  0  0  0  0  0  0  0  0  0
    4.5749   -4.7739   -0.2556 C   0  0  0  0  0  0  0  0  0  0  0  0
    5.3893   -5.1080    0.8585 O   0  0  0  0  0  0  0  0  0  0  0  0
    6.5964   -4.4558    1.1378 C   0  0  1  0  0  0  0  0  0  0  0  0
    7.6841   -5.0145    0.4552 O   0  0  0  0  0  0  0  0  0  0  0  0
    2.9784   -5.7494    3.2960 C   0  0  2  0  0  0  0  0  0  0  0  0
    4.0127   -6.8962    3.3351 C   0  0  0  0  0  0  0  0  0  0  0  0
    2.0065   -1.7891    4.8330 H   0  0  0  0  0  0  0  0  0  0  0  0
    1.6040   -0.4931    3.7626 H   0  0  0  0  0  0  0  0  0  0  0  0
    3.1658   -0.4969    4.5663 H   0  0  0  0  0  0  0  0  0  0  0  0
    3.0692   -1.0110    2.1861 H   0  0  0  0  0  0  0  0  0  0  0  0
    1.4012   -3.2716    2.8721 H   0  0  0  0  0  0  0  0  0  0  0  0
    1.4590   -2.2776    1.4808 H   0  0  0  0  0  0  0  0  0  0  0  0
    1.7939   -6.1150    0.0773 H   0  0  0  0  0  0  0  0  0  0  0  0
    2.5753   -7.3074    1.0932 H   0  0  0  0  0  0  0  0  0  0  0  0
    1.8841   -7.1247    4.5689 H   0  0  0  0  0  0  0  0  0  0  0  0
    0.6432   -5.1506    5.7439 H   0  0  0  0  0  0  0  0  0  0  0  0
    2.5887   -3.4862    5.8612 H   0  0  0  0  0  0  0  0  0  0  0  0
    5.0983   -4.4326    3.0048 H   0  0  0  0  0  0  0  0  0  0  0  0
    5.0020   -1.8191    3.7786 H   0  0  0  0  0  0  0  0  0  0  0  0
    5.8109   -0.1195    0.8355 H   0  0  0  0  0  0  0  0  0  0  0  0
    6.5401   -0.5856    2.3581 H   0  0  0  0  0  0  0  0  0  0  0  0
    4.8953   -0.0448    2.2764 H   0  0  0  0  0  0  0  0  0  0  0  0
    7.3956   -2.5676    1.6557 H   0  0  0  0  0  0  0  0  0  0  0  0
    7.1901   -1.3371   -0.2138 H   0  0  0  0  0  0  0  0  0  0  0  0
    7.2574   -3.8530   -1.8137 H   0  0  0  0  0  0  0  0  0  0  0  0
    8.6519   -3.0749   -1.0520 H   0  0  0  0  0  0  0  0  0  0  0  0
    7.7513   -2.2597   -2.3084 H   0  0  0  0  0  0  0  0  0  0  0  0
    5.2288   -0.9361   -1.1789 H   0  0  0  0  0  0  0  0  0  0  0  0
    5.0763   -2.5396   -1.8012 H   0  0  0  0  0  0  0  0  0  0  0  0
    3.5837   -1.4871    0.2425 H   0  0  0  0  0  0  0  0  0  0  0  0
    3.0757   -3.3344   -2.0446 H   0  0  0  0  0  0  0  0  0  0  0  0
    1.8913   -2.6597   -0.9515 H   0  0  0  0  0  0  0  0  0  0  0  0
    1.9447   -4.3788   -1.2273 H   0  0  0  0  0  0  0  0  0  0  0  0
    4.0254   -5.6813   -0.4959 H   0  0  0  0  0  0  0  0  0  0  0  0
    5.1675   -4.5980   -1.1523 H   0  0  0  0  0  0  0  0  0  0  0  0
    6.8412   -4.7233    2.1631 H   0  0  0  0  0  0  0  0  0  0  0  0
    7.7963   -5.9058    0.7654 H   0  0  0  0  0  0  0  0  0  0  0  0
    4.9109   -6.6488    2.7717 H   0  0  0  0  0  0  0  0  0  0  0  0
    3.6089   -7.8186    2.9198 H   0  0  0  0  0  0  0  0  0  0  0  0
    4.3133   -7.1059    4.3625 H   0  0  0  0  0  0  0  0  0  0  0  0
  1  2  1  0
  1 31  1  0
  1 32  1  0
  1 33  1  0
  2 15  1  0
  2  3  1  0
  2 34  1  6
  3  4  1  0
  3 35  1  0
  3 36  1  0
  4 23  1  0
  4  5  2  3
  5 29  1  0
  5  6  1  0
  6  7  1  0
  6 37  1  0
  6 38  1  0
  7  8  1  0
  8  9  2  0
  8 10  1  0
 10 29  1  0
 10 11  1  0
 10 39  1  1
 11 12  2  0
 11 40  1  0
 12 13  1  0
 12 41  1  0
 13 14  2  3
 13 29  1  0
 14 15  1  0
 14 42  1  0
 15 16  1  0
 15 43  1  1
 16 22  1  0
 16 17  1  1
 16 18  1  0
 17 44  1  0
 17 45  1  0
 17 46  1  0
 18 27  1  0
 18 19  1  0
 18 47  1  1
 19 20  1  0
 19 21  1  0
 19 48  1  1
 20 49  1  0
 20 50  1  0
 20 51  1  0
 21 22  1  0
 21 52  1  0
 21 53  1  0
 22 23  1  0
 22 54  1  1
 23 24  1  6
 23 25  1  0
 24 55  1  0
 24 56  1  0
 24 57  1  0
 25 26  1  0
 25 58  1  0
 25 59  1  0
 26 27  1  0
 27 28  1  0
 27 60  1  1
 28 61  1  0
 29 30  1  6
 30 62  1  0
 30 63  1  0
 30 64  1  0
M  END
>  <i_m_ct_stereo_status>  (191) 
1

>  <s_m_source_file>  (191) 
/var/tmp/pbs.5076255.sched01/tmpbhhv4xqx/80i1gy0gug.sdf

>  <i_m_source_file_index>  (191) 
8

>  <i_lp_mmshare_version>  (191) 
48012

>  <i_f3d_flags>  (191) 
0

>  <s_epik_input>  (191) 
W0NIXS8xPUMyXFtDSF09W0NIXVtDQEBIXShDKD1PKU9bQ0gyXTMpW0NAQF0yKFtDSDNdKUMzPUMoW0NIMl1bQ0BASF0oW0NIM10pW0NAQEhdMVtDQEBdNDVbQ0gzXSlbQ0BAXTYoW0NIM10pW0NAQEhdNVtDSDJdW0NASF0oW0NIM10pW0NAQEhdNFtDQEhdKFtPSF0pT1tDSDJdNg==

>  <s_epik_cmdline>  (191) 
J2VwaWtfcHl0aG9uJywgJy1waHQnLCAnMi4wJywgJy1waCcsICc3LjAnLCAnLXRuJywgJzgnLCAnLW1hJywgJzIwMCcsICctaW1hZScsICc8aW5maWxlLm1hZT4nLCAnLW9tYWUnLCAnPG91dGZpbGUubWFlPic=

>  <r_lp_tautomer_probability>  (191) 
1

>  <r_epik_Ionization_Penalty>  (191) 
5.56775e-08

>  <r_epik_Ionization_Penalty_Charging>  (191) 
0

>  <r_epik_Ionization_Penalty_Neutral>  (191) 
5.56775e-08

>  <r_epik_State_Penalty>  (191) 
-0

>  <r_epik_Charging_Adjusted_Penalty>  (191) 
0

>  <i_epik_Tot_Q>  (191) 
0

>  <i_epik_Tot_abs_Q>  (191) 
0

>  <s_epik_Chemistry_Notes>  (191) 
This compound has an ester and may undergo hydrolysis at high or low pH. This compound contains an acetal/aminal-like group ( X-CH(R)-Y where X, Y are N, S, or O) that may be acid/base labile, releasing an aldehyde.

>  <s_lp_Force_Field>  (191) 
OPLS3e

>  <r_lp_Energy>  (191) 
168.596

>  <b_lp_Chiralities_Consistent>  (191) 
1

>  <s_lp_Variant>  (191) 
62:0-2

>  <s_i_glide_gridfile>  (191) 
pfpi4k_grid

>  <i_i_glide_lignum>  (191) 
8

>  <i_i_glide_rotatable_bonds>  (191) 
1

>  <r_i_docking_score>  (191) 
-2.90558

>  <r_i_glide_ligand_efficiency>  (191) 
-0.0968527

>  <r_i_glide_ligand_efficiency_sa>  (191) 
-0.300944

>  <r_i_glide_ligand_efficiency_ln>  (191) 
-0.66018

>  <r_i_glide_gscore>  (191) 
-2.90558

>  <r_i_glide_lipo>  (191) 
-0.260741

>  <r_i_glide_hbond>  (191) 
-0.143811

>  <r_i_glide_metal>  (191) 
-0

>  <r_i_glide_rewards>  (191) 
-0.750957

>  <r_i_glide_evdw>  (191) 
-25.8442

>  <r_i_glide_ecoul>  (191) 
-2.67081

>  <r_i_glide_erotb>  (191) 
0

>  <r_i_glide_esite>  (191) 
-0.0572437

>  <r_i_glide_emodel>  (191) 
-33.1485

>  <r_i_glide_energy>  (191) 
-28.515

>  <r_i_glide_einternal>  (191) 
0.519142

>  <r_i_glide_intrahb_reward>  (191) 
-0

>  <i_i_glide_confnum>  (191) 
1

>  <i_i_glide_posenum>  (191) 
34

>  <r_i_glide_eff_state_penalty>  (191) 
0

>  <ligand_id>  (191) 
62

>  <original_smiles>  (191) 
CC1CC2=C3COC(=O)C4C=CC(=CC1C1(C)C5C(C)CC1C2(C)COC5O)C34C

>  <smiles>  (191) 
[H]OC1([H])OC([H])([H])C2(C([H])([H])[H])C3=C4C([H])([H])OC(=O)C5([H])C([H])=C([H])C(=C([H])C([H])(C([H])(C([H])([H])[H])C3([H])[H])C3(C([H])([H])[H])C1([H])C([H])(C([H])([H])[H])C([H])([H])C23[H])C45C([H])([H])[H]

$$$$
63:0:0
     RDKit          3D

 45 48  0  0  1  0  0  0  0  0999 V2000
    6.9327  -11.8283    2.6079 C   0  0  0  0  0  0  0  0  0  0  0  0
    5.9592  -10.8191    2.8338 O   0  0  0  0  0  0  0  0  0  0  0  0
    5.7746   -9.8746    1.8984 C   0  0  0  0  0  0  0  0  0  0  0  0
    6.4701   -9.7775    0.8843 O   0  0  0  0  0  0  0  0  0  0  0  0
    4.7182   -9.0256    2.2447 N   0  0  0  0  0  0  0  0  0  0  0  0
    3.9970   -9.0937    3.4468 N   0  0  0  0  0  0  0  0  0  0  0  0
    2.9480   -8.2100    3.4407 C   0  0  0  0  0  0  0  0  0  0  0  0
    2.0013   -8.0233    4.3704 C   0  0  0  0  0  0  0  0  0  0  0  0
    0.8246   -7.0684    4.1843 C   0  0  1  0  0  0  0  0  0  0  0  0
    0.5879   -6.1502    5.3783 C   0  0  0  0  0  0  0  0  0  0  0  0
    1.6702   -5.5735    6.0761 C   0  0  0  0  0  0  0  0  0  0  0  0
    1.4351   -4.7318    7.1809 C   0  0  0  0  0  0  0  0  0  0  0  0
    0.1173   -4.4519    7.5886 C   0  0  0  0  0  0  0  0  0  0  0  0
   -0.9640   -5.0128    6.8875 C   0  0  0  0  0  0  0  0  0  0  0  0
   -0.7254   -5.8556    5.7889 C   0  0  0  0  0  0  0  0  0  0  0  0
    0.8387   -6.2868    2.8369 C   0  0  0  0  0  0  0  0  0  0  0  0
    2.0004   -6.6119    1.9127 C   0  0  0  0  0  0  0  0  0  0  0  0
    1.8808   -5.9255    0.7681 O   0  0  0  0  0  0  0  0  0  0  0  0
    2.9879   -7.4776    2.2202 C   0  0  0  0  0  0  0  0  0  0  0  0
    4.2109   -7.9124    1.4177 C   0  0  1  0  0  0  0  0  0  0  0  0
    5.2126   -6.7728    1.2254 C   0  0  0  0  0  0  0  0  0  0  0  0
    5.0169   -5.8064    0.2173 C   0  0  0  0  0  0  0  0  0  0  0  0
    5.9484   -4.7624    0.0823 C   0  0  0  0  0  0  0  0  0  0  0  0
    7.0622   -4.7407    0.9454 C   0  0  0  0  0  0  0  0  0  0  0  0
    7.2656   -5.6526    1.9141 N   0  0  0  0  0  0  0  0  0  0  0  0
    6.3534   -6.6328    2.0530 C   0  0  0  0  0  0  0  0  0  0  0  0
    6.9661  -12.5117    3.4522 H   0  0  0  0  0  0  0  0  0  0  0  0
    7.9259  -11.3975    2.4887 H   0  0  0  0  0  0  0  0  0  0  0  0
    6.7013  -12.4026    1.7103 H   0  0  0  0  0  0  0  0  0  0  0  0
    2.0254   -8.5922    5.2853 H   0  0  0  0  0  0  0  0  0  0  0  0
   -0.0307   -7.7478    4.1359 H   0  0  0  0  0  0  0  0  0  0  0  0
    2.6854   -5.7827    5.7733 H   0  0  0  0  0  0  0  0  0  0  0  0
    2.2679   -4.3086    7.7154 H   0  0  0  0  0  0  0  0  0  0  0  0
   -0.0569   -3.8116    8.4425 H   0  0  0  0  0  0  0  0  0  0  0  0
   -1.9782   -4.8094    7.2032 H   0  0  0  0  0  0  0  0  0  0  0  0
   -1.5661   -6.2840    5.2616 H   0  0  0  0  0  0  0  0  0  0  0  0
   -0.0939   -6.4594    2.3029 H   0  0  0  0  0  0  0  0  0  0  0  0
    0.8810   -5.2171    3.0352 H   0  0  0  0  0  0  0  0  0  0  0  0
    3.9437   -9.9770    3.9362 H   0  0  0  0  0  0  0  0  0  0  0  0
    3.8867   -8.3037    0.4531 H   0  0  0  0  0  0  0  0  0  0  0  0
    4.1720   -5.8623   -0.4545 H   0  0  0  0  0  0  0  0  0  0  0  0
    5.8257   -4.0094   -0.6828 H   0  0  0  0  0  0  0  0  0  0  0  0
    7.8159   -3.9744    0.8633 H   0  0  0  0  0  0  0  0  0  0  0  0
    6.5670   -7.3251    2.8520 H   0  0  0  0  0  0  0  0  0  0  0  0
    2.6290   -6.1379    0.2350 H   0  0  0  0  0  0  0  0  0  0  0  0
  1  2  1  0
  1 27  1  0
  1 28  1  0
  1 29  1  0
  2  3  1  0
  3  4  2  0
  3  5  1  0
  5 20  1  0
  5  6  1  0
  6  7  1  0
  6 39  1  0
  7 19  1  0
  7  8  2  0
  8  9  1  0
  8 30  1  0
  9 10  1  0
  9 16  1  0
  9 31  1  6
 10 15  1  0
 10 11  2  0
 11 12  1  0
 11 32  1  0
 12 13  2  0
 12 33  1  0
 13 14  1  0
 13 34  1  0
 14 15  2  0
 14 35  1  0
 15 36  1  0
 16 37  1  0
 16 38  1  0
 16 17  1  0
 17 18  1  0
 17 19  2  0
 18 45  1  0
 19 20  1  0
 20 21  1  0
 20 40  1  6
 21 26  1  0
 21 22  2  0
 22 23  1  0
 22 41  1  0
 23 24  2  0
 23 42  1  0
 24 25  1  0
 24 43  1  0
 25 26  2  0
 26 44  1  0
M  END
>  <i_m_ct_stereo_status>  (192) 
1

>  <s_m_source_file>  (192) 
/var/tmp/pbs.5076255.sched01/tmpbhhv4xqx/80i1gy0gug.sdf

>  <i_m_source_file_index>  (192) 
9

>  <i_lp_mmshare_version>  (192) 
48012

>  <i_f3d_flags>  (192) 
0

>  <s_epik_input>  (192) 
W2NIXTFuW2NIXVtjSF1bY0hdYzFbQ0BASF0oTihOPTIpQyg9TylPW0NIM10pW0NASF0oQzIzKUMoPU8pW0NIMl1bQ0BASF0oW0NIMl0zKWM0W2NIXVtjSF1bY0hdW2NIXVtjSF00

>  <s_epik_cmdline>  (192) 
J2VwaWtfcHl0aG9uJywgJy1waHQnLCAnMi4wJywgJy1waCcsICc3LjAnLCAnLXRuJywgJzgnLCAnLW1hJywgJzIwMCcsICctaW1hZScsICc8aW5maWxlLm1hZT4nLCAnLW9tYWUnLCAnPG91dGZpbGUubWFlPic=

>  <r_epik_Ionization_Penalty>  (192) 
0.0285066

>  <r_epik_Ionization_Penalty_Charging>  (192) 
0

>  <r_epik_Ionization_Penalty_Neutral>  (192) 
0.0285066

>  <r_epik_State_Penalty>  (192) 
0.105236

>  <r_epik_Charging_Adjusted_Penalty>  (192) 
0.105236

>  <i_epik_Tot_Q>  (192) 
0

>  <i_epik_Tot_abs_Q>  (192) 
0

>  <s_epik_Chemistry_Notes>  (192) 
This compound has an ester and may undergo hydrolysis at high or low pH.

>  <s_lp_Force_Field>  (192) 
OPLS3e

>  <r_lp_Energy>  (192) 
36.5816

>  <b_lp_Chiralities_Consistent>  (192) 
1

>  <s_lp_Variant>  (192) 
63:0-1

>  <s_i_glide_gridfile>  (192) 
pfpi4k_grid

>  <i_i_glide_lignum>  (192) 
9

>  <i_i_glide_rotatable_bonds>  (192) 
5

>  <r_i_docking_score>  (192) 
-2.78814

>  <r_i_glide_ligand_efficiency>  (192) 
-0.107236

>  <r_i_glide_ligand_efficiency_sa>  (192) 
-0.317686

>  <r_i_glide_ligand_efficiency_ln>  (192) 
-0.654785

>  <r_i_glide_gscore>  (192) 
-2.78814

>  <r_i_glide_lipo>  (192) 
-0.490626

>  <r_i_glide_hbond>  (192) 
-0.0349401

>  <r_i_glide_metal>  (192) 
-0

>  <r_i_glide_rewards>  (192) 
-1.02693

>  <r_i_glide_evdw>  (192) 
-25.5296

>  <r_i_glide_ecoul>  (192) 
-2.39467

>  <r_i_glide_erotb>  (192) 
0.468132

>  <r_i_glide_esite>  (192) 
-0.0680892

>  <r_i_glide_emodel>  (192) 
-32.1244

>  <r_i_glide_energy>  (192) 
-27.9243

>  <r_i_glide_einternal>  (192) 
1.06625

>  <r_i_glide_intrahb_reward>  (192) 
-0

>  <i_i_glide_confnum>  (192) 
2

>  <i_i_glide_posenum>  (192) 
4

>  <r_i_glide_eff_state_penalty>  (192) 
0

>  <ligand_id>  (192) 
63

>  <original_smiles>  (192) 
COC(=O)N1N=C2CC(c3ccccc3)CC(=O)C2C1c1cccnc1

>  <smiles>  (192) 
[H]OC1=C2C(=C([H])C([H])(c3c([H])c([H])c([H])c([H])c3[H])C1([H])[H])N([H])N(C(=O)OC([H])([H])[H])C2([H])c1c([H])nc([H])c([H])c1[H]

$$$$
63:0:1
     RDKit          3D

 45 48  0  0  1  0  0  0  0  0999 V2000
    4.9980  -13.0107    6.9468 C   0  0  0  0  0  0  0  0  0  0  0  0
    4.2117  -11.9281    6.4760 O   0  0  0  0  0  0  0  0  0  0  0  0
    4.0195  -11.7685    5.1534 C   0  0  0  0  0  0  0  0  0  0  0  0
    4.5106  -12.5015    4.2937 O   0  0  0  0  0  0  0  0  0  0  0  0
    3.2458  -10.6316    4.9039 N   0  0  0  0  0  0  0  0  0  0  0  0
    2.5749   -9.8805    5.8849 N   0  0  0  0  0  0  0  0  0  0  0  0
    1.7907   -8.9143    5.3005 C   0  0  0  0  0  0  0  0  0  0  0  0
    0.9559   -8.0360    5.8776 C   0  0  0  0  0  0  0  0  0  0  0  0
    0.0763   -7.0710    5.0825 C   0  0  1  0  0  0  0  0  0  0  0  0
    0.1244   -5.6428    5.6221 C   0  0  0  0  0  0  0  0  0  0  0  0
    1.1761   -4.7739    5.2599 C   0  0  0  0  0  0  0  0  0  0  0  0
    1.1991   -3.4478    5.7296 C   0  0  0  0  0  0  0  0  0  0  0  0
    0.1818   -2.9821    6.5842 C   0  0  0  0  0  0  0  0  0  0  0  0
   -0.8629   -3.8475    6.9599 C   0  0  0  0  0  0  0  0  0  0  0  0
   -0.8904   -5.1681    6.4802 C   0  0  0  0  0  0  0  0  0  0  0  0
    0.2640   -7.1479    3.5313 C   0  0  0  0  0  0  0  0  0  0  0  0
    1.2775   -8.1786    3.0621 C   0  0  0  0  0  0  0  0  0  0  0  0
    1.3569   -8.1811    1.7243 O   0  0  0  0  0  0  0  0  0  0  0  0
    1.9847   -8.9737    3.8893 C   0  0  0  0  0  0  0  0  0  0  0  0
    3.0114  -10.0498    3.5667 C   0  0  1  0  0  0  0  0  0  0  0  0
    4.2839   -9.4733    2.9469 C   0  0  0  0  0  0  0  0  0  0  0  0
    5.3288   -8.9558    3.7432 C   0  0  0  0  0  0  0  0  0  0  0  0
    6.4871   -8.4686    3.1172 C   0  0  0  0  0  0  0  0  0  0  0  0
    6.5492   -8.4989    1.7120 C   0  0  0  0  0  0  0  0  0  0  0  0
    5.5502   -8.9724    0.9367 N   0  0  0  0  0  0  0  0  0  0  0  0
    4.4496   -9.4525    1.5475 C   0  0  0  0  0  0  0  0  0  0  0  0
    5.0428  -12.9911    8.0342 H   0  0  0  0  0  0  0  0  0  0  0  0
    6.0160  -12.9395    6.5659 H   0  0  0  0  0  0  0  0  0  0  0  0
    4.5782  -13.9702    6.6435 H   0  0  0  0  0  0  0  0  0  0  0  0
    0.8484   -8.0244    6.9499 H   0  0  0  0  0  0  0  0  0  0  0  0
   -0.9329   -7.4459    5.2711 H   0  0  0  0  0  0  0  0  0  0  0  0
    1.9638   -5.1176    4.6074 H   0  0  0  0  0  0  0  0  0  0  0  0
    2.0001   -2.7895    5.4342 H   0  0  0  0  0  0  0  0  0  0  0  0
    0.2101   -1.9666    6.9479 H   0  0  0  0  0  0  0  0  0  0  0  0
   -1.6459   -3.5081    7.6159 H   0  0  0  0  0  0  0  0  0  0  0  0
   -1.7023   -5.8124    6.7687 H   0  0  0  0  0  0  0  0  0  0  0  0
   -0.6973   -7.3424    3.0570 H   0  0  0  0  0  0  0  0  0  0  0  0
    0.5845   -6.1913    3.1273 H   0  0  0  0  0  0  0  0  0  0  0  0
    2.2487  -10.3825    6.7062 H   0  0  0  0  0  0  0  0  0  0  0  0
    2.5664  -10.7964    2.9082 H   0  0  0  0  0  0  0  0  0  0  0  0
    5.2609   -8.9469    4.8227 H   0  0  0  0  0  0  0  0  0  0  0  0
    7.3134   -8.0827    3.7006 H   0  0  0  0  0  0  0  0  0  0  0  0
    7.4207   -8.1324    1.1954 H   0  0  0  0  0  0  0  0  0  0  0  0
    3.6703   -9.8317    0.9007 H   0  0  0  0  0  0  0  0  0  0  0  0
    1.9239   -8.8904    1.4725 H   0  0  0  0  0  0  0  0  0  0  0  0
  1  2  1  0
  1 27  1  0
  1 28  1  0
  1 29  1  0
  2  3  1  0
  3  4  2  0
  3  5  1  0
  5 20  1  0
  5  6  1  0
  6  7  1  0
  6 39  1  0
  7 19  1  0
  7  8  2  0
  8  9  1  0
  8 30  1  0
  9 10  1  0
  9 16  1  0
  9 31  1  6
 10 15  1  0
 10 11  2  0
 11 12  1  0
 11 32  1  0
 12 13  2  0
 12 33  1  0
 13 14  1  0
 13 34  1  0
 14 15  2  0
 14 35  1  0
 15 36  1  0
 16 37  1  0
 16 38  1  0
 16 17  1  0
 17 18  1  0
 17 19  2  0
 18 45  1  0
 19 20  1  0
 20 21  1  0
 20 40  1  6
 21 26  1  0
 21 22  2  0
 22 23  1  0
 22 41  1  0
 23 24  2  0
 23 42  1  0
 24 25  1  0
 24 43  1  0
 25 26  2  0
 26 44  1  0
M  END
>  <i_m_ct_stereo_status>  (193) 
1

>  <s_m_source_file>  (193) 
/var/tmp/pbs.5076255.sched01/tmpbhhv4xqx/80i1gy0gug.sdf

>  <i_m_source_file_index>  (193) 
9

>  <i_lp_mmshare_version>  (193) 
48012

>  <i_f3d_flags>  (193) 
0

>  <s_epik_input>  (193) 
W2NIXTFuW2NIXVtjSF1bY0hdYzFbQ0BASF0oTihOPTIpQyg9TylPW0NIM10pW0NASF0oQzIzKUMoPU8pW0NIMl1bQ0BASF0oW0NIMl0zKWM0W2NIXVtjSF1bY0hdW2NIXVtjSF00

>  <s_epik_cmdline>  (193) 
J2VwaWtfcHl0aG9uJywgJy1waHQnLCAnMi4wJywgJy1waCcsICc3LjAnLCAnLXRuJywgJzgnLCAnLW1hJywgJzIwMCcsICctaW1hZScsICc8aW5maWxlLm1hZT4nLCAnLW9tYWUnLCAnPG91dGZpbGUubWFlPic=

>  <r_epik_Ionization_Penalty>  (193) 
0.0285066

>  <r_epik_Ionization_Penalty_Charging>  (193) 
0

>  <r_epik_Ionization_Penalty_Neutral>  (193) 
0.0285066

>  <r_epik_State_Penalty>  (193) 
0.105236

>  <r_epik_Charging_Adjusted_Penalty>  (193) 
0.105236

>  <i_epik_Tot_Q>  (193) 
0

>  <i_epik_Tot_abs_Q>  (193) 
0

>  <s_epik_Chemistry_Notes>  (193) 
This compound has an ester and may undergo hydrolysis at high or low pH.

>  <s_lp_Force_Field>  (193) 
OPLS3e

>  <r_lp_Energy>  (193) 
36.5816

>  <b_lp_Chiralities_Consistent>  (193) 
1

>  <s_lp_Variant>  (193) 
63:0-1

>  <s_i_glide_gridfile>  (193) 
pfpi4k_grid

>  <i_i_glide_lignum>  (193) 
9

>  <i_i_glide_rotatable_bonds>  (193) 
5

>  <r_i_docking_score>  (193) 
-2.32783

>  <r_i_glide_ligand_efficiency>  (193) 
-0.0895318

>  <r_i_glide_ligand_efficiency_sa>  (193) 
-0.265237

>  <r_i_glide_ligand_efficiency_ln>  (193) 
-0.546682

>  <r_i_glide_gscore>  (193) 
-2.32783

>  <r_i_glide_lipo>  (193) 
-0.216788

>  <r_i_glide_hbond>  (193) 
-0.0264268

>  <r_i_glide_metal>  (193) 
-0

>  <r_i_glide_rewards>  (193) 
-1.02693

>  <r_i_glide_evdw>  (193) 
-23.0576

>  <r_i_glide_ecoul>  (193) 
-1.66421

>  <r_i_glide_erotb>  (193) 
0.468132

>  <r_i_glide_esite>  (193) 
-0.123298

>  <r_i_glide_emodel>  (193) 
-28.2623

>  <r_i_glide_energy>  (193) 
-24.7218

>  <r_i_glide_einternal>  (193) 
0.944725

>  <r_i_glide_intrahb_reward>  (193) 
-0

>  <i_i_glide_confnum>  (193) 
1

>  <i_i_glide_posenum>  (193) 
29

>  <r_i_glide_eff_state_penalty>  (193) 
0

>  <ligand_id>  (193) 
63

>  <original_smiles>  (193) 
COC(=O)N1N=C2CC(c3ccccc3)CC(=O)C2C1c1cccnc1

>  <smiles>  (193) 
[H]OC1=C2C(=C([H])C([H])(c3c([H])c([H])c([H])c([H])c3[H])C1([H])[H])N([H])N(C(=O)OC([H])([H])[H])C2([H])c1c([H])nc([H])c([H])c1[H]

$$$$
63:0:2
     RDKit          3D

 45 48  0  0  1  0  0  0  0  0999 V2000
   -0.1000   -2.2863   11.3377 C   0  0  0  0  0  0  0  0  0  0  0  0
    0.1465   -2.8915   10.0728 O   0  0  0  0  0  0  0  0  0  0  0  0
    0.6074   -2.1421    9.0485 C   0  0  0  0  0  0  0  0  0  0  0  0
    0.8486   -0.9402    9.1316 O   0  0  0  0  0  0  0  0  0  0  0  0
    0.7109   -2.9125    7.8845 N   0  0  0  0  0  0  0  0  0  0  0  0
    0.4834   -4.2961    7.8088 N   0  0  0  0  0  0  0  0  0  0  0  0
    0.8502   -4.7813    6.5801 C   0  0  0  0  0  0  0  0  0  0  0  0
    0.8438   -6.0471    6.1327 C   0  0  0  0  0  0  0  0  0  0  0  0
    1.3513   -6.4458    4.7479 C   0  0  1  0  0  0  0  0  0  0  0  0
    0.3961   -7.3656    3.9979 C   0  0  0  0  0  0  0  0  0  0  0  0
   -0.9886   -7.0984    3.9787 C   0  0  0  0  0  0  0  0  0  0  0  0
   -1.8653   -7.9451    3.2783 C   0  0  0  0  0  0  0  0  0  0  0  0
   -1.3674   -9.0662    2.5928 C   0  0  0  0  0  0  0  0  0  0  0  0
    0.0120   -9.3406    2.6114 C   0  0  0  0  0  0  0  0  0  0  0  0
    0.8934   -8.4892    3.3032 C   0  0  0  0  0  0  0  0  0  0  0  0
    1.8286   -5.2506    3.8638 C   0  0  0  0  0  0  0  0  0  0  0  0
    1.7529   -3.8846    4.5316 C   0  0  0  0  0  0  0  0  0  0  0  0
    2.2221   -2.9257    3.7195 O   0  0  0  0  0  0  0  0  0  0  0  0
    1.2835   -3.6875    5.7774 C   0  0  0  0  0  0  0  0  0  0  0  0
    1.1505   -2.4001    6.5725 C   0  0  1  0  0  0  0  0  0  0  0  0
    0.1358   -1.4540    5.9541 C   0  0  0  0  0  0  0  0  0  0  0  0
    0.5068   -0.1503    5.5748 C   0  0  0  0  0  0  0  0  0  0  0  0
   -0.4758    0.6897    5.0234 C   0  0  0  0  0  0  0  0  0  0  0  0
   -1.7845    0.1945    4.8869 C   0  0  0  0  0  0  0  0  0  0  0  0
   -2.1608   -1.0451    5.2757 N   0  0  0  0  0  0  0  0  0  0  0  0
   -1.2027   -1.8552    5.7647 C   0  0  0  0  0  0  0  0  0  0  0  0
   -0.4688   -3.0253   12.0474 H   0  0  0  0  0  0  0  0  0  0  0  0
   -0.8521   -1.5026   11.2577 H   0  0  0  0  0  0  0  0  0  0  0  0
    0.8058   -1.8476   11.7553 H   0  0  0  0  0  0  0  0  0  0  0  0
    0.5018   -6.8439    6.7747 H   0  0  0  0  0  0  0  0  0  0  0  0
    2.2391   -7.0400    4.9713 H   0  0  0  0  0  0  0  0  0  0  0  0
   -1.3865   -6.2545    4.5154 H   0  0  0  0  0  0  0  0  0  0  0  0
   -2.9245   -7.7491    3.2814 H   0  0  0  0  0  0  0  0  0  0  0  0
   -2.0415   -9.7282    2.0710 H   0  0  0  0  0  0  0  0  0  0  0  0
    0.3918  -10.2065    2.0902 H   0  0  0  0  0  0  0  0  0  0  0  0
    1.9492   -8.7127    3.3032 H   0  0  0  0  0  0  0  0  0  0  0  0
    2.8500   -5.4312    3.5301 H   0  0  0  0  0  0  0  0  0  0  0  0
    1.2327   -5.1991    2.9538 H   0  0  0  0  0  0  0  0  0  0  0  0
    0.6460   -4.8464    8.6434 H   0  0  0  0  0  0  0  0  0  0  0  0
    2.1278   -1.9233    6.6582 H   0  0  0  0  0  0  0  0  0  0  0  0
    1.5197    0.1997    5.7166 H   0  0  0  0  0  0  0  0  0  0  0  0
   -0.2289    1.6939    4.7088 H   0  0  0  0  0  0  0  0  0  0  0  0
   -2.5601    0.8191    4.4721 H   0  0  0  0  0  0  0  0  0  0  0  0
   -1.5397   -2.8353    6.0679 H   0  0  0  0  0  0  0  0  0  0  0  0
    2.1590   -2.1033    4.1748 H   0  0  0  0  0  0  0  0  0  0  0  0
  1  2  1  0
  1 27  1  0
  1 28  1  0
  1 29  1  0
  2  3  1  0
  3  4  2  0
  3  5  1  0
  5 20  1  0
  5  6  1  0
  6  7  1  0
  6 39  1  0
  7 19  1  0
  7  8  2  0
  8  9  1  0
  8 30  1  0
  9 10  1  0
  9 16  1  0
  9 31  1  1
 10 15  1  0
 10 11  2  0
 11 12  1  0
 11 32  1  0
 12 13  2  0
 12 33  1  0
 13 14  1  0
 13 34  1  0
 14 15  2  0
 14 35  1  0
 15 36  1  0
 16 37  1  0
 16 38  1  0
 16 17  1  0
 17 18  1  0
 17 19  2  0
 18 45  1  0
 19 20  1  0
 20 21  1  0
 20 40  1  1
 21 26  1  0
 21 22  2  0
 22 23  1  0
 22 41  1  0
 23 24  2  0
 23 42  1  0
 24 25  1  0
 24 43  1  0
 25 26  2  0
 26 44  1  0
M  END
>  <i_m_ct_stereo_status>  (194) 
1

>  <s_m_source_file>  (194) 
/var/tmp/pbs.5076255.sched01/tmpbhhv4xqx/80i1gy0gug.sdf

>  <i_m_source_file_index>  (194) 
9

>  <i_lp_mmshare_version>  (194) 
48012

>  <i_f3d_flags>  (194) 
0

>  <s_epik_input>  (194) 
W2NIXTFuW2NIXVtjSF1bY0hdYzFbQ0BASF0oTihOPTIpQyg9TylPW0NIM10pW0NASF0oQzIzKUMoPU8pW0NIMl1bQ0BASF0oW0NIMl0zKWM0W2NIXVtjSF1bY0hdW2NIXVtjSF00

>  <s_epik_cmdline>  (194) 
J2VwaWtfcHl0aG9uJywgJy1waHQnLCAnMi4wJywgJy1waCcsICc3LjAnLCAnLXRuJywgJzgnLCAnLW1hJywgJzIwMCcsICctaW1hZScsICc8aW5maWxlLm1hZT4nLCAnLW9tYWUnLCAnPG91dGZpbGUubWFlPic=

>  <r_epik_Ionization_Penalty>  (194) 
0.0285066

>  <r_epik_Ionization_Penalty_Charging>  (194) 
0

>  <r_epik_Ionization_Penalty_Neutral>  (194) 
0.0285066

>  <r_epik_State_Penalty>  (194) 
0.105236

>  <r_epik_Charging_Adjusted_Penalty>  (194) 
0.105236

>  <i_epik_Tot_Q>  (194) 
0

>  <i_epik_Tot_abs_Q>  (194) 
0

>  <s_epik_Chemistry_Notes>  (194) 
This compound has an ester and may undergo hydrolysis at high or low pH.

>  <s_lp_Force_Field>  (194) 
OPLS3e

>  <r_lp_Energy>  (194) 
36.5816

>  <b_lp_Chiralities_Consistent>  (194) 
1

>  <s_lp_Variant>  (194) 
63:0-1

>  <s_i_glide_gridfile>  (194) 
pfpi4k_grid

>  <i_i_glide_lignum>  (194) 
9

>  <i_i_glide_rotatable_bonds>  (194) 
5

>  <r_i_docking_score>  (194) 
-2.22805

>  <r_i_glide_ligand_efficiency>  (194) 
-0.0856942

>  <r_i_glide_ligand_efficiency_sa>  (194) 
-0.253869

>  <r_i_glide_ligand_efficiency_ln>  (194) 
-0.52325

>  <r_i_glide_gscore>  (194) 
-2.22805

>  <r_i_glide_lipo>  (194) 
-0.11684

>  <r_i_glide_hbond>  (194) 
0

>  <r_i_glide_metal>  (194) 
-0

>  <r_i_glide_rewards>  (194) 
-1.02693

>  <r_i_glide_evdw>  (194) 
-24.5641

>  <r_i_glide_ecoul>  (194) 
-1.73545

>  <r_i_glide_erotb>  (194) 
0.468132

>  <r_i_glide_esite>  (194) 
-0.0638869

>  <r_i_glide_emodel>  (194) 
-30.0033

>  <r_i_glide_energy>  (194) 
-26.2995

>  <r_i_glide_einternal>  (194) 
0.400505

>  <r_i_glide_intrahb_reward>  (194) 
-0

>  <i_i_glide_confnum>  (194) 
2

>  <i_i_glide_posenum>  (194) 
15

>  <r_i_glide_eff_state_penalty>  (194) 
0

>  <ligand_id>  (194) 
63

>  <original_smiles>  (194) 
COC(=O)N1N=C2CC(c3ccccc3)CC(=O)C2C1c1cccnc1

>  <smiles>  (194) 
[H]OC1=C2C(=C([H])C([H])(c3c([H])c([H])c([H])c([H])c3[H])C1([H])[H])N([H])N(C(=O)OC([H])([H])[H])C2([H])c1c([H])nc([H])c([H])c1[H]

$$$$
63:1:0
     RDKit          3D

 44 47  0  0  1  0  0  0  0  0999 V2000
    1.2864   -5.6607    4.2770 C   0  0  0  0  0  0  0  0  0  0  0  0
    2.2547   -5.2373    3.3296 O   0  0  0  0  0  0  0  0  0  0  0  0
    2.9848   -4.1197    3.5682 C   0  0  0  0  0  0  0  0  0  0  0  0
    2.8830   -3.4515    4.5980 O   0  0  0  0  0  0  0  0  0  0  0  0
    3.8651   -3.8581    2.5116 N   0  0  0  0  0  0  0  0  0  0  0  0
    3.9121   -4.6094    1.3715 N   0  0  0  0  0  0  0  0  0  0  0  0
    4.8130   -4.1372    0.5949 C   0  0  0  0  0  0  0  0  0  0  0  0
    5.1006   -4.6578   -0.7657 C   0  0  0  0  0  0  0  0  0  0  0  0
    5.8010   -3.5875   -1.6410 C   0  0  1  0  0  0  0  0  0  0  0  0
    4.8335   -2.6387   -2.3516 C   0  0  0  0  0  0  0  0  0  0  0  0
    3.8921   -3.1939   -3.2408 C   0  0  0  0  0  0  0  0  0  0  0  0
    2.9723   -2.3708   -3.9139 C   0  0  0  0  0  0  0  0  0  0  0  0
    3.0215   -0.9746   -3.7502 C   0  0  0  0  0  0  0  0  0  0  0  0
    3.9714   -0.4186   -2.8790 C   0  0  0  0  0  0  0  0  0  0  0  0
    4.8611   -1.2375   -2.1633 C   0  0  0  0  0  0  0  0  0  0  0  0
    6.9609   -2.9123   -0.8774 C   0  0  0  0  0  0  0  0  0  0  0  0
    6.5475   -2.4137    0.5161 C   0  0  0  0  0  0  0  0  0  0  0  0
    7.2835   -1.4516    0.8220 O   0  0  0  0  0  0  0  0  0  0  0  0
    5.4847   -3.0230    1.1619 C   0  0  0  0  0  0  0  0  0  0  0  0
    4.8333   -2.7551    2.4849 C   0  0  1  0  0  0  0  0  0  0  0  0
    4.1690   -1.3928    2.5156 C   0  0  0  0  0  0  0  0  0  0  0  0
    3.2605   -1.0032    1.5085 C   0  0  0  0  0  0  0  0  0  0  0  0
    2.6623    0.2645    1.6017 C   0  0  0  0  0  0  0  0  0  0  0  0
    2.9943    1.0859    2.6938 C   0  0  0  0  0  0  0  0  0  0  0  0
    3.8443    0.7155    3.6747 N   0  0  0  0  0  0  0  0  0  0  0  0
    4.4312   -0.4949    3.5676 C   0  0  0  0  0  0  0  0  0  0  0  0
    0.7917   -6.5592    3.9127 H   0  0  0  0  0  0  0  0  0  0  0  0
    0.5228   -4.8959    4.4279 H   0  0  0  0  0  0  0  0  0  0  0  0
    1.7397   -5.8950    5.2414 H   0  0  0  0  0  0  0  0  0  0  0  0
    4.2123   -5.0518   -1.2324 H   0  0  0  0  0  0  0  0  0  0  0  0
    5.7648   -5.5071   -0.6532 H   0  0  0  0  0  0  0  0  0  0  0  0
    6.2506   -4.1080   -2.4871 H   0  0  0  0  0  0  0  0  0  0  0  0
    3.8440   -4.2548   -3.3960 H   0  0  0  0  0  0  0  0  0  0  0  0
    2.2338   -2.8243   -4.5595 H   0  0  0  0  0  0  0  0  0  0  0  0
    2.3184   -0.3403   -4.2697 H   0  0  0  0  0  0  0  0  0  0  0  0
    4.0000    0.6434   -2.7306 H   0  0  0  0  0  0  0  0  0  0  0  0
    5.5585   -0.7737   -1.4816 H   0  0  0  0  0  0  0  0  0  0  0  0
    7.7630   -3.6370   -0.7419 H   0  0  0  0  0  0  0  0  0  0  0  0
    7.4077   -2.1261   -1.4808 H   0  0  0  0  0  0  0  0  0  0  0  0
    5.5740   -2.8636    3.2785 H   0  0  0  0  0  0  0  0  0  0  0  0
    3.0232   -1.6573    0.6774 H   0  0  0  0  0  0  0  0  0  0  0  0
    1.9648    0.5937    0.8456 H   0  0  0  0  0  0  0  0  0  0  0  0
    2.5738    2.0747    2.7748 H   0  0  0  0  0  0  0  0  0  0  0  0
    5.1298   -0.7570    4.3486 H   0  0  0  0  0  0  0  0  0  0  0  0
  1  2  1  0
  1 27  1  0
  1 28  1  0
  1 29  1  0
  2  3  1  0
  3  4  2  0
  3  5  1  0
  5 20  1  0
  5  6  1  0
  6  7  2  0
  7 19  1  0
  7  8  1  0
  8  9  1  0
  8 30  1  0
  8 31  1  0
  9 10  1  0
  9 16  1  0
  9 32  1  6
 10 15  1  0
 10 11  2  0
 11 12  1  0
 11 33  1  0
 12 13  2  0
 12 34  1  0
 13 14  1  0
 13 35  1  0
 14 15  2  0
 14 36  1  0
 15 37  1  0
 16 38  1  0
 16 39  1  0
 16 17  1  0
 17 18  1  0
 17 19  2  0
 19 20  1  0
 20 21  1  0
 20 40  1  1
 21 26  1  0
 21 22  2  0
 22 23  1  0
 22 41  1  0
 23 24  2  0
 23 42  1  0
 24 25  1  0
 24 43  1  0
 25 26  2  0
 26 44  1  0
M  CHG  1  18  -1
M  END
>  <i_m_ct_stereo_status>  (195) 
1

>  <s_m_source_file>  (195) 
/var/tmp/pbs.5076255.sched01/tmpbhhv4xqx/80i1gy0gug.sdf

>  <i_m_source_file_index>  (195) 
10

>  <i_lp_mmshare_version>  (195) 
48012

>  <i_f3d_flags>  (195) 
0

>  <s_epik_input>  (195) 
W2NIXTFuW2NIXVtjSF1bY0hdYzFbQ0BASF0oTihOPTIpQyg9TylPW0NIM10pW0NASF0oQzIzKUMoPU8pW0NIMl1bQ0BASF0oW0NIMl0zKWM0W2NIXVtjSF1bY0hdW2NIXVtjSF00

>  <s_epik_cmdline>  (195) 
J2VwaWtfcHl0aG9uJywgJy1waHQnLCAnMi4wJywgJy1waCcsICc3LjAnLCAnLXRuJywgJzgnLCAnLW1hJywgJzIwMCcsICctaW1hZScsICc8aW5maWxlLm1hZT4nLCAnLW9tYWUnLCAnPG91dGZpbGUubWFlPic=

>  <r_epik_Ionization_Penalty>  (195) 
0.00154156

>  <r_epik_Ionization_Penalty_Charging>  (195) 
0.000263344

>  <r_epik_Ionization_Penalty_Neutral>  (195) 
0.00127822

>  <r_epik_State_Penalty>  (195) 
1.20285

>  <r_epik_Charging_Adjusted_Penalty>  (195) 
1.20311

>  <i_epik_Tot_Q>  (195) 
-1

>  <i_epik_Tot_abs_Q>  (195) 
1

>  <s_epik_Chemistry_Notes>  (195) 
This compound has an ester and may undergo hydrolysis at high or low pH. This compound has an imine and may undergo hydrolysis.

>  <s_lp_Force_Field>  (195) 
OPLS3e

>  <r_lp_Energy>  (195) 
43.6169

>  <b_lp_Chiralities_Consistent>  (195) 
1

>  <s_lp_Variant>  (195) 
63:0-2

>  <s_i_glide_gridfile>  (195) 
pfpi4k_grid

>  <i_i_glide_lignum>  (195) 
10

>  <i_i_glide_rotatable_bonds>  (195) 
4

>  <r_i_docking_score>  (195) 
-3.04325

>  <r_i_glide_ligand_efficiency>  (195) 
-0.117048

>  <r_i_glide_ligand_efficiency_sa>  (195) 
-0.346755

>  <r_i_glide_ligand_efficiency_ln>  (195) 
-0.714698

>  <r_i_glide_gscore>  (195) 
-3.04325

>  <r_i_glide_lipo>  (195) 
-1.06246

>  <r_i_glide_hbond>  (195) 
0

>  <r_i_glide_metal>  (195) 
-0

>  <r_i_glide_rewards>  (195) 
-1.08797

>  <r_i_glide_evdw>  (195) 
-26.6801

>  <r_i_glide_ecoul>  (195) 
-0.195697

>  <r_i_glide_erotb>  (195) 
0.470542

>  <r_i_glide_esite>  (195) 
0

>  <r_i_glide_emodel>  (195) 
-32.1908

>  <r_i_glide_energy>  (195) 
-26.8758

>  <r_i_glide_einternal>  (195) 
2.42407

>  <r_i_glide_intrahb_reward>  (195) 
-0

>  <i_i_glide_confnum>  (195) 
2

>  <i_i_glide_posenum>  (195) 
3

>  <r_i_glide_eff_state_penalty>  (195) 
0

>  <ligand_id>  (195) 
63

>  <original_smiles>  (195) 
COC(=O)N1N=C2CC(c3ccccc3)CC(=O)C2C1c1cccnc1

>  <smiles>  (195) 
[H]c1nc([H])c(C2([H])C3=C([O-])C([H])([H])C([H])(c4c([H])c([H])c([H])c([H])c4[H])C([H])([H])C3=NN2C(=O)OC([H])([H])[H])c([H])c1[H]

$$$$
63:1:1
     RDKit          3D

 44 47  0  0  1  0  0  0  0  0999 V2000
    3.6333   -1.6563   -3.8387 C   0  0  0  0  0  0  0  0  0  0  0  0
    3.6392   -1.3126   -2.4582 O   0  0  0  0  0  0  0  0  0  0  0  0
    4.7594   -1.4944   -1.7200 C   0  0  0  0  0  0  0  0  0  0  0  0
    5.8155   -1.9010   -2.1822 O   0  0  0  0  0  0  0  0  0  0  0  0
    4.5532   -1.1570   -0.3728 N   0  0  0  0  0  0  0  0  0  0  0  0
    3.3371   -0.8700    0.1352 N   0  0  0  0  0  0  0  0  0  0  0  0
    3.4072   -0.5766    1.3770 C   0  0  0  0  0  0  0  0  0  0  0  0
    2.2249   -0.2730    2.2448 C   0  0  0  0  0  0  0  0  0  0  0  0
    2.5830   -0.5086    3.7334 C   0  0  1  0  0  0  0  0  0  0  0  0
    2.3862   -1.9672    4.1745 C   0  0  0  0  0  0  0  0  0  0  0  0
    1.0747   -2.4930    4.1856 C   0  0  0  0  0  0  0  0  0  0  0  0
    0.8299   -3.8236    4.5894 C   0  0  0  0  0  0  0  0  0  0  0  0
    1.8994   -4.6536    4.9842 C   0  0  0  0  0  0  0  0  0  0  0  0
    3.2157   -4.1463    4.9717 C   0  0  0  0  0  0  0  0  0  0  0  0
    3.4605   -2.8136    4.5664 C   0  0  0  0  0  0  0  0  0  0  0  0
    3.9729    0.0895    4.0901 C   0  0  0  0  0  0  0  0  0  0  0  0
    5.1026   -0.2604    3.1071 C   0  0  0  0  0  0  0  0  0  0  0  0
    6.1912   -0.1697    3.6890 O   0  0  0  0  0  0  0  0  0  0  0  0
    4.7508   -0.6367    1.8170 C   0  0  0  0  0  0  0  0  0  0  0  0
    5.5934   -1.0743    0.6441 C   0  0  1  0  0  0  0  0  0  0  0  0
    6.2505   -2.4178    0.8907 C   0  0  0  0  0  0  0  0  0  0  0  0
    5.5617   -3.4518    1.5668 C   0  0  0  0  0  0  0  0  0  0  0  0
    6.2241   -4.6789    1.7690 C   0  0  0  0  0  0  0  0  0  0  0  0
    7.5361   -4.8191    1.2725 C   0  0  0  0  0  0  0  0  0  0  0  0
    8.1904   -3.8532    0.5954 N   0  0  0  0  0  0  0  0  0  0  0  0
    7.5541   -2.6760    0.4218 C   0  0  0  0  0  0  0  0  0  0  0  0
    2.6595   -1.4479   -4.2814 H   0  0  0  0  0  0  0  0  0  0  0  0
    3.8313   -2.7196   -3.9711 H   0  0  0  0  0  0  0  0  0  0  0  0
    4.3791   -1.0971   -4.4055 H   0  0  0  0  0  0  0  0  0  0  0  0
    1.3406   -0.8223    1.9352 H   0  0  0  0  0  0  0  0  0  0  0  0
    1.9888    0.7765    2.1192 H   0  0  0  0  0  0  0  0  0  0  0  0
    1.8710    0.0567    4.3394 H   0  0  0  0  0  0  0  0  0  0  0  0
    0.2505   -1.8666    3.8844 H   0  0  0  0  0  0  0  0  0  0  0  0
   -0.1803   -4.2012    4.5954 H   0  0  0  0  0  0  0  0  0  0  0  0
    1.7128   -5.6676    5.2937 H   0  0  0  0  0  0  0  0  0  0  0  0
    4.0371   -4.7752    5.2777 H   0  0  0  0  0  0  0  0  0  0  0  0
    4.4789   -2.4592    4.5699 H   0  0  0  0  0  0  0  0  0  0  0  0
    3.8799    1.1743    4.0910 H   0  0  0  0  0  0  0  0  0  0  0  0
    4.2503   -0.1707    5.1162 H   0  0  0  0  0  0  0  0  0  0  0  0
    6.3166   -0.2908    0.4084 H   0  0  0  0  0  0  0  0  0  0  0  0
    4.5575   -3.3099    1.9401 H   0  0  0  0  0  0  0  0  0  0  0  0
    5.7424   -5.4798    2.3138 H   0  0  0  0  0  0  0  0  0  0  0  0
    8.0780   -5.7389    1.4201 H   0  0  0  0  0  0  0  0  0  0  0  0
    8.0956   -1.9050   -0.1051 H   0  0  0  0  0  0  0  0  0  0  0  0
  1  2  1  0
  1 27  1  0
  1 28  1  0
  1 29  1  0
  2  3  1  0
  3  4  2  0
  3  5  1  0
  5 20  1  0
  5  6  1  0
  6  7  2  0
  7 19  1  0
  7  8  1  0
  8  9  1  0
  8 30  1  0
  8 31  1  0
  9 10  1  0
  9 16  1  0
  9 32  1  1
 10 15  1  0
 10 11  2  0
 11 12  1  0
 11 33  1  0
 12 13  2  0
 12 34  1  0
 13 14  1  0
 13 35  1  0
 14 15  2  0
 14 36  1  0
 15 37  1  0
 16 38  1  0
 16 39  1  0
 16 17  1  0
 17 18  1  0
 17 19  2  0
 19 20  1  0
 20 21  1  0
 20 40  1  6
 21 26  1  0
 21 22  2  0
 22 23  1  0
 22 41  1  0
 23 24  2  0
 23 42  1  0
 24 25  1  0
 24 43  1  0
 25 26  2  0
 26 44  1  0
M  CHG  1  18  -1
M  END
>  <i_m_ct_stereo_status>  (196) 
1

>  <s_m_source_file>  (196) 
/var/tmp/pbs.5076255.sched01/tmpbhhv4xqx/80i1gy0gug.sdf

>  <i_m_source_file_index>  (196) 
10

>  <i_lp_mmshare_version>  (196) 
48012

>  <i_f3d_flags>  (196) 
0

>  <s_epik_input>  (196) 
W2NIXTFuW2NIXVtjSF1bY0hdYzFbQ0BASF0oTihOPTIpQyg9TylPW0NIM10pW0NASF0oQzIzKUMoPU8pW0NIMl1bQ0BASF0oW0NIMl0zKWM0W2NIXVtjSF1bY0hdW2NIXVtjSF00

>  <s_epik_cmdline>  (196) 
J2VwaWtfcHl0aG9uJywgJy1waHQnLCAnMi4wJywgJy1waCcsICc3LjAnLCAnLXRuJywgJzgnLCAnLW1hJywgJzIwMCcsICctaW1hZScsICc8aW5maWxlLm1hZT4nLCAnLW9tYWUnLCAnPG91dGZpbGUubWFlPic=

>  <r_epik_Ionization_Penalty>  (196) 
0.00154156

>  <r_epik_Ionization_Penalty_Charging>  (196) 
0.000263344

>  <r_epik_Ionization_Penalty_Neutral>  (196) 
0.00127822

>  <r_epik_State_Penalty>  (196) 
1.20285

>  <r_epik_Charging_Adjusted_Penalty>  (196) 
1.20311

>  <i_epik_Tot_Q>  (196) 
-1

>  <i_epik_Tot_abs_Q>  (196) 
1

>  <s_epik_Chemistry_Notes>  (196) 
This compound has an ester and may undergo hydrolysis at high or low pH. This compound has an imine and may undergo hydrolysis.

>  <s_lp_Force_Field>  (196) 
OPLS3e

>  <r_lp_Energy>  (196) 
43.6169

>  <b_lp_Chiralities_Consistent>  (196) 
1

>  <s_lp_Variant>  (196) 
63:0-2

>  <s_i_glide_gridfile>  (196) 
pfpi4k_grid

>  <i_i_glide_lignum>  (196) 
10

>  <i_i_glide_rotatable_bonds>  (196) 
4

>  <r_i_docking_score>  (196) 
-3.00781

>  <r_i_glide_ligand_efficiency>  (196) 
-0.115685

>  <r_i_glide_ligand_efficiency_sa>  (196) 
-0.342717

>  <r_i_glide_ligand_efficiency_ln>  (196) 
-0.706375

>  <r_i_glide_gscore>  (196) 
-3.00781

>  <r_i_glide_lipo>  (196) 
-1.01907

>  <r_i_glide_hbond>  (196) 
-0.0168367

>  <r_i_glide_metal>  (196) 
-0

>  <r_i_glide_rewards>  (196) 
-1.03381

>  <r_i_glide_evdw>  (196) 
-27.4444

>  <r_i_glide_ecoul>  (196) 
0.361839

>  <r_i_glide_erotb>  (196) 
0.470542

>  <r_i_glide_esite>  (196) 
-0.090699

>  <r_i_glide_emodel>  (196) 
-32.0042

>  <r_i_glide_energy>  (196) 
-27.0825

>  <r_i_glide_einternal>  (196) 
2.78337

>  <r_i_glide_intrahb_reward>  (196) 
-0

>  <i_i_glide_confnum>  (196) 
2

>  <i_i_glide_posenum>  (196) 
5

>  <r_i_glide_eff_state_penalty>  (196) 
0

>  <ligand_id>  (196) 
63

>  <original_smiles>  (196) 
COC(=O)N1N=C2CC(c3ccccc3)CC(=O)C2C1c1cccnc1

>  <smiles>  (196) 
[H]c1nc([H])c(C2([H])C3=C([O-])C([H])([H])C([H])(c4c([H])c([H])c([H])c([H])c4[H])C([H])([H])C3=NN2C(=O)OC([H])([H])[H])c([H])c1[H]

$$$$
63:1:2
     RDKit          3D

 44 47  0  0  1  0  0  0  0  0999 V2000
   -1.0650   -8.4262    2.4586 C   0  0  0  0  0  0  0  0  0  0  0  0
    0.1318   -7.7113    2.1788 O   0  0  0  0  0  0  0  0  0  0  0  0
    0.5169   -6.7263    3.0166 C   0  0  0  0  0  0  0  0  0  0  0  0
   -0.1806   -6.3452    3.9627 O   0  0  0  0  0  0  0  0  0  0  0  0
    1.7822   -6.2251    2.6766 N   0  0  0  0  0  0  0  0  0  0  0  0
    2.4406   -6.5768    1.5321 N   0  0  0  0  0  0  0  0  0  0  0  0
    3.5904   -6.0091    1.5055 C   0  0  0  0  0  0  0  0  0  0  0  0
    4.5643   -6.1095    0.3688 C   0  0  0  0  0  0  0  0  0  0  0  0
    5.5405   -4.9033    0.3805 C   0  0  1  0  0  0  0  0  0  0  0  0
    5.0132   -3.6664   -0.3684 C   0  0  0  0  0  0  0  0  0  0  0  0
    4.8048   -3.7544   -1.7615 C   0  0  0  0  0  0  0  0  0  0  0  0
    4.3111   -2.6556   -2.4915 C   0  0  0  0  0  0  0  0  0  0  0  0
    4.0158   -1.4489   -1.8326 C   0  0  0  0  0  0  0  0  0  0  0  0
    4.2182   -1.3427   -0.4438 C   0  0  0  0  0  0  0  0  0  0  0  0
    4.7199   -2.4416    0.2821 C   0  0  0  0  0  0  0  0  0  0  0  0
    6.1001   -4.6217    1.8036 C   0  0  0  0  0  0  0  0  0  0  0  0
    5.0123   -4.5640    2.8959 C   0  0  0  0  0  0  0  0  0  0  0  0
    5.3968   -3.8382    3.8387 O   0  0  0  0  0  0  0  0  0  0  0  0
    3.8166   -5.2210    2.6698 C   0  0  0  0  0  0  0  0  0  0  0  0
    2.5576   -5.2838    3.4929 C   0  0  1  0  0  0  0  0  0  0  0  0
    1.8907   -3.9199    3.6539 C   0  0  0  0  0  0  0  0  0  0  0  0
    2.1085   -2.8831    2.7217 C   0  0  0  0  0  0  0  0  0  0  0  0
    1.4636   -1.6498    2.9001 C   0  0  0  0  0  0  0  0  0  0  0  0
    0.6070   -1.5040    4.0064 C   0  0  0  0  0  0  0  0  0  0  0  0
    0.3685   -2.4890    4.8980 N   0  0  0  0  0  0  0  0  0  0  0  0
    1.0166   -3.6622    4.7290 C   0  0  0  0  0  0  0  0  0  0  0  0
   -1.2304   -9.1720    1.6847 H   0  0  0  0  0  0  0  0  0  0  0  0
   -1.9303   -7.7609    2.4750 H   0  0  0  0  0  0  0  0  0  0  0  0
   -1.0114   -8.9397    3.4209 H   0  0  0  0  0  0  0  0  0  0  0  0
    4.0567   -6.2071   -0.5862 H   0  0  0  0  0  0  0  0  0  0  0  0
    5.1372   -7.0201    0.5087 H   0  0  0  0  0  0  0  0  0  0  0  0
    6.4074   -5.2019   -0.2090 H   0  0  0  0  0  0  0  0  0  0  0  0
    5.0139   -4.6792   -2.2743 H   0  0  0  0  0  0  0  0  0  0  0  0
    4.1486   -2.7490   -3.5535 H   0  0  0  0  0  0  0  0  0  0  0  0
    3.6196   -0.6126   -2.3833 H   0  0  0  0  0  0  0  0  0  0  0  0
    3.9761   -0.4252    0.0682 H   0  0  0  0  0  0  0  0  0  0  0  0
    4.8550   -2.3310    1.3456 H   0  0  0  0  0  0  0  0  0  0  0  0
    6.7799   -5.4326    2.0620 H   0  0  0  0  0  0  0  0  0  0  0  0
    6.7134   -3.7164    1.7933 H   0  0  0  0  0  0  0  0  0  0  0  0
    2.7969   -5.7120    4.4692 H   0  0  0  0  0  0  0  0  0  0  0  0
    2.7419   -3.0298    1.8637 H   0  0  0  0  0  0  0  0  0  0  0  0
    1.6224   -0.8442    2.1954 H   0  0  0  0  0  0  0  0  0  0  0  0
    0.0821   -0.5746    4.1661 H   0  0  0  0  0  0  0  0  0  0  0  0
    0.8100   -4.4280    5.4603 H   0  0  0  0  0  0  0  0  0  0  0  0
  1  2  1  0
  1 27  1  0
  1 28  1  0
  1 29  1  0
  2  3  1  0
  3  4  2  0
  3  5  1  0
  5 20  1  0
  5  6  1  0
  6  7  2  0
  7 19  1  0
  7  8  1  0
  8  9  1  0
  8 30  1  0
  8 31  1  0
  9 10  1  0
  9 16  1  0
  9 32  1  6
 10 15  1  0
 10 11  2  0
 11 12  1  0
 11 33  1  0
 12 13  2  0
 12 34  1  0
 13 14  1  0
 13 35  1  0
 14 15  2  0
 14 36  1  0
 15 37  1  0
 16 38  1  0
 16 39  1  0
 16 17  1  0
 17 18  1  0
 17 19  2  0
 19 20  1  0
 20 21  1  0
 20 40  1  1
 21 26  1  0
 21 22  2  0
 22 23  1  0
 22 41  1  0
 23 24  2  0
 23 42  1  0
 24 25  1  0
 24 43  1  0
 25 26  2  0
 26 44  1  0
M  CHG  1  18  -1
M  END
>  <i_m_ct_stereo_status>  (197) 
1

>  <s_m_source_file>  (197) 
/var/tmp/pbs.5076255.sched01/tmpbhhv4xqx/80i1gy0gug.sdf

>  <i_m_source_file_index>  (197) 
10

>  <i_lp_mmshare_version>  (197) 
48012

>  <i_f3d_flags>  (197) 
0

>  <s_epik_input>  (197) 
W2NIXTFuW2NIXVtjSF1bY0hdYzFbQ0BASF0oTihOPTIpQyg9TylPW0NIM10pW0NASF0oQzIzKUMoPU8pW0NIMl1bQ0BASF0oW0NIMl0zKWM0W2NIXVtjSF1bY0hdW2NIXVtjSF00

>  <s_epik_cmdline>  (197) 
J2VwaWtfcHl0aG9uJywgJy1waHQnLCAnMi4wJywgJy1waCcsICc3LjAnLCAnLXRuJywgJzgnLCAnLW1hJywgJzIwMCcsICctaW1hZScsICc8aW5maWxlLm1hZT4nLCAnLW9tYWUnLCAnPG91dGZpbGUubWFlPic=

>  <r_epik_Ionization_Penalty>  (197) 
0.00154156

>  <r_epik_Ionization_Penalty_Charging>  (197) 
0.000263344

>  <r_epik_Ionization_Penalty_Neutral>  (197) 
0.00127822

>  <r_epik_State_Penalty>  (197) 
1.20285

>  <r_epik_Charging_Adjusted_Penalty>  (197) 
1.20311

>  <i_epik_Tot_Q>  (197) 
-1

>  <i_epik_Tot_abs_Q>  (197) 
1

>  <s_epik_Chemistry_Notes>  (197) 
This compound has an ester and may undergo hydrolysis at high or low pH. This compound has an imine and may undergo hydrolysis.

>  <s_lp_Force_Field>  (197) 
OPLS3e

>  <r_lp_Energy>  (197) 
43.6169

>  <b_lp_Chiralities_Consistent>  (197) 
1

>  <s_lp_Variant>  (197) 
63:0-2

>  <s_i_glide_gridfile>  (197) 
pfpi4k_grid

>  <i_i_glide_lignum>  (197) 
10

>  <i_i_glide_rotatable_bonds>  (197) 
4

>  <r_i_docking_score>  (197) 
-2.51609

>  <r_i_glide_ligand_efficiency>  (197) 
-0.0967725

>  <r_i_glide_ligand_efficiency_sa>  (197) 
-0.286688

>  <r_i_glide_ligand_efficiency_ln>  (197) 
-0.590894

>  <r_i_glide_gscore>  (197) 
-2.51609

>  <r_i_glide_lipo>  (197) 
-0.413264

>  <r_i_glide_hbond>  (197) 
-0.0265696

>  <r_i_glide_metal>  (197) 
-0

>  <r_i_glide_rewards>  (197) 
-1.08584

>  <r_i_glide_evdw>  (197) 
-28.8362

>  <r_i_glide_ecoul>  (197) 
0.363837

>  <r_i_glide_erotb>  (197) 
0.470542

>  <r_i_glide_esite>  (197) 
-0.0737202

>  <r_i_glide_emodel>  (197) 
-31.619

>  <r_i_glide_energy>  (197) 
-28.4723

>  <r_i_glide_einternal>  (197) 
3.71047

>  <r_i_glide_intrahb_reward>  (197) 
-0

>  <i_i_glide_confnum>  (197) 
2

>  <i_i_glide_posenum>  (197) 
2

>  <r_i_glide_eff_state_penalty>  (197) 
0

>  <ligand_id>  (197) 
63

>  <original_smiles>  (197) 
COC(=O)N1N=C2CC(c3ccccc3)CC(=O)C2C1c1cccnc1

>  <smiles>  (197) 
[H]c1nc([H])c(C2([H])C3=C([O-])C([H])([H])C([H])(c4c([H])c([H])c([H])c([H])c4[H])C([H])([H])C3=NN2C(=O)OC([H])([H])[H])c([H])c1[H]

$$$$
63:2:0
     RDKit          3D

 44 47  0  0  1  0  0  0  0  0999 V2000
   -4.1497    3.6466    2.1280 C   0  0  0  0  0  0  0  0  0  0  0  0
   -2.9512    2.9436    2.4367 O   0  0  0  0  0  0  0  0  0  0  0  0
   -2.0502    3.4308    3.3038 C   0  0  0  0  0  0  0  0  0  0  0  0
   -2.1803    4.5064    3.8875 O   0  0  0  0  0  0  0  0  0  0  0  0
   -0.9999    2.5363    3.4921 N   0  0  0  0  0  0  0  0  0  0  0  0
   -0.7230    1.4187    2.6818 N   0  0  0  0  0  0  0  0  0  0  0  0
    0.3294    0.6951    3.1775 C   0  0  0  0  0  0  0  0  0  0  0  0
    0.9401   -0.3844    2.6662 C   0  0  0  0  0  0  0  0  0  0  0  0
    2.0254   -1.1471    3.4030 C   0  0  1  0  0  0  0  0  0  0  0  0
    3.2897   -1.3331    2.5752 C   0  0  0  0  0  0  0  0  0  0  0  0
    3.8112   -0.2603    1.8162 C   0  0  0  0  0  0  0  0  0  0  0  0
    4.9873   -0.4321    1.0571 C   0  0  0  0  0  0  0  0  0  0  0  0
    5.6573   -1.6726    1.0533 C   0  0  0  0  0  0  0  0  0  0  0  0
    5.1475   -2.7442    1.8167 C   0  0  0  0  0  0  0  0  0  0  0  0
    3.9693   -2.5743    2.5781 C   0  0  0  0  0  0  0  0  0  0  0  0
    2.3264   -0.6072    4.8299 C   0  0  0  0  0  0  0  0  0  0  0  0
    1.6405    0.7022    5.2578 C   0  0  0  0  0  0  0  0  0  0  0  0
    2.0424    1.0182    6.3898 O   0  0  0  0  0  0  0  0  0  0  0  0
    0.7220    1.3071    4.3979 C   0  0  0  0  0  0  0  0  0  0  0  0
   -0.0647    2.5784    4.6353 C   0  0  1  0  0  0  0  0  0  0  0  0
    0.8148    3.8118    4.6252 C   0  0  0  0  0  0  0  0  0  0  0  0
    1.4995    4.1987    3.4536 C   0  0  0  0  0  0  0  0  0  0  0  0
    2.2987    5.3547    3.4953 C   0  0  0  0  0  0  0  0  0  0  0  0
    2.3738    6.0709    4.7070 C   0  0  0  0  0  0  0  0  0  0  0  0
    1.7257    5.7082    5.8346 N   0  0  0  0  0  0  0  0  0  0  0  0
    0.9719    4.5897    5.7892 C   0  0  0  0  0  0  0  0  0  0  0  0
   -4.7263    3.1196    1.3668 H   0  0  0  0  0  0  0  0  0  0  0  0
   -3.9362    4.6452    1.7517 H   0  0  0  0  0  0  0  0  0  0  0  0
   -4.7828    3.7403    3.0067 H   0  0  0  0  0  0  0  0  0  0  0  0
    0.6408   -0.7677    1.7063 H   0  0  0  0  0  0  0  0  0  0  0  0
    1.5934   -2.1407    3.5284 H   0  0  0  0  0  0  0  0  0  0  0  0
    3.3105    0.6979    1.8156 H   0  0  0  0  0  0  0  0  0  0  0  0
    5.3687    0.3957    0.4825 H   0  0  0  0  0  0  0  0  0  0  0  0
    6.5589   -1.8005    0.4745 H   0  0  0  0  0  0  0  0  0  0  0  0
    5.6604   -3.6955    1.8190 H   0  0  0  0  0  0  0  0  0  0  0  0
    3.5915   -3.4011    3.1607 H   0  0  0  0  0  0  0  0  0  0  0  0
    2.0551   -1.3870    5.5403 H   0  0  0  0  0  0  0  0  0  0  0  0
    3.4057   -0.4987    4.9413 H   0  0  0  0  0  0  0  0  0  0  0  0
   -1.3943    1.0471    2.0184 H   0  0  0  0  0  0  0  0  0  0  0  0
   -0.6151    2.4850    5.5721 H   0  0  0  0  0  0  0  0  0  0  0  0
    1.4089    3.6275    2.5389 H   0  0  0  0  0  0  0  0  0  0  0  0
    2.8297    5.6822    2.6122 H   0  0  0  0  0  0  0  0  0  0  0  0
    2.9813    6.9586    4.7769 H   0  0  0  0  0  0  0  0  0  0  0  0
    0.4595    4.3185    6.7009 H   0  0  0  0  0  0  0  0  0  0  0  0
  1  2  1  0
  1 27  1  0
  1 28  1  0
  1 29  1  0
  2  3  1  0
  3  4  2  0
  3  5  1  0
  5 20  1  0
  5  6  1  0
  6  7  1  0
  6 39  1  0
  7 19  1  0
  7  8  2  0
  8  9  1  0
  8 30  1  0
  9 10  1  0
  9 16  1  0
  9 31  1  1
 10 15  1  0
 10 11  2  0
 11 12  1  0
 11 32  1  0
 12 13  2  0
 12 33  1  0
 13 14  1  0
 13 34  1  0
 14 15  2  0
 14 35  1  0
 15 36  1  0
 16 37  1  0
 16 38  1  0
 16 17  1  0
 17 18  1  0
 17 19  2  0
 19 20  1  0
 20 21  1  0
 20 40  1  1
 21 26  1  0
 21 22  2  0
 22 23  1  0
 22 41  1  0
 23 24  2  0
 23 42  1  0
 24 25  1  0
 24 43  1  0
 25 26  2  0
 26 44  1  0
M  CHG  1  18  -1
M  END
>  <i_m_ct_stereo_status>  (198) 
1

>  <s_m_source_file>  (198) 
/var/tmp/pbs.5076255.sched01/tmpbhhv4xqx/80i1gy0gug.sdf

>  <i_m_source_file_index>  (198) 
11

>  <i_lp_mmshare_version>  (198) 
48012

>  <i_f3d_flags>  (198) 
0

>  <s_epik_input>  (198) 
W2NIXTFuW2NIXVtjSF1bY0hdYzFbQ0BASF0oTihOPTIpQyg9TylPW0NIM10pW0NASF0oQzIzKUMoPU8pW0NIMl1bQ0BASF0oW0NIMl0zKWM0W2NIXVtjSF1bY0hdW2NIXVtjSF00

>  <s_epik_cmdline>  (198) 
J2VwaWtfcHl0aG9uJywgJy1waHQnLCAnMi4wJywgJy1waCcsICc3LjAnLCAnLXRuJywgJzgnLCAnLW1hJywgJzIwMCcsICctaW1hZScsICc8aW5maWxlLm1hZT4nLCAnLW9tYWUnLCAnPG91dGZpbGUubWFlPic=

>  <r_epik_Ionization_Penalty>  (198) 
1.85152

>  <r_epik_Ionization_Penalty_Charging>  (198) 
1.84932

>  <r_epik_Ionization_Penalty_Neutral>  (198) 
0.00220533

>  <r_epik_State_Penalty>  (198) 
2.05009

>  <r_epik_Charging_Adjusted_Penalty>  (198) 
3.89941

>  <i_epik_Tot_Q>  (198) 
-1

>  <i_epik_Tot_abs_Q>  (198) 
1

>  <s_epik_Chemistry_Notes>  (198) 
This compound has an ester and may undergo hydrolysis at high or low pH.

>  <s_lp_Force_Field>  (198) 
OPLS3e

>  <r_lp_Energy>  (198) 
36.7302

>  <b_lp_Chiralities_Consistent>  (198) 
1

>  <s_lp_Variant>  (198) 
63:0-3

>  <s_i_glide_gridfile>  (198) 
pfpi4k_grid

>  <i_i_glide_lignum>  (198) 
11

>  <i_i_glide_rotatable_bonds>  (198) 
4

>  <r_i_docking_score>  (198) 
-3.3156

>  <r_i_glide_ligand_efficiency>  (198) 
-0.127523

>  <r_i_glide_ligand_efficiency_sa>  (198) 
-0.377786

>  <r_i_glide_ligand_efficiency_ln>  (198) 
-0.778657

>  <r_i_glide_gscore>  (198) 
-3.3156

>  <r_i_glide_lipo>  (198) 
-0.652155

>  <r_i_glide_hbond>  (198) 
-0.145716

>  <r_i_glide_metal>  (198) 
-0

>  <r_i_glide_rewards>  (198) 
-1.03381

>  <r_i_glide_evdw>  (198) 
-26.1927

>  <r_i_glide_ecoul>  (198) 
-3.19135

>  <r_i_glide_erotb>  (198) 
0.470542

>  <r_i_glide_esite>  (198) 
-0.166123

>  <r_i_glide_emodel>  (198) 
-35.5722

>  <r_i_glide_energy>  (198) 
-29.3841

>  <r_i_glide_einternal>  (198) 
2.35759

>  <r_i_glide_intrahb_reward>  (198) 
-0

>  <i_i_glide_confnum>  (198) 
2

>  <i_i_glide_posenum>  (198) 
26

>  <r_i_glide_eff_state_penalty>  (198) 
0

>  <ligand_id>  (198) 
63

>  <original_smiles>  (198) 
COC(=O)N1N=C2CC(c3ccccc3)CC(=O)C2C1c1cccnc1

>  <smiles>  (198) 
[H]C1=C2C(=C([O-])C([H])([H])C1([H])c1c([H])c([H])c([H])c([H])c1[H])C([H])(c1c([H])nc([H])c([H])c1[H])N(C(=O)OC([H])([H])[H])N2[H]

$$$$
63:2:1
     RDKit          3D

 44 47  0  0  1  0  0  0  0  0999 V2000
   -4.1153    3.6165    2.1722 C   0  0  0  0  0  0  0  0  0  0  0  0
   -2.8980    2.9425    2.4766 O   0  0  0  0  0  0  0  0  0  0  0  0
   -2.0081    3.4632    3.3431 C   0  0  0  0  0  0  0  0  0  0  0  0
   -2.1711    4.5323    3.9183 O   0  0  0  0  0  0  0  0  0  0  0  0
   -0.9100    2.6209    3.5141 N   0  0  0  0  0  0  0  0  0  0  0  0
   -0.6994    1.4227    2.8178 N   0  0  0  0  0  0  0  0  0  0  0  0
    0.3958    0.7544    3.2976 C   0  0  0  0  0  0  0  0  0  0  0  0
    0.9723   -0.3725    2.8597 C   0  0  0  0  0  0  0  0  0  0  0  0
    2.1469   -1.0308    3.5622 C   0  0  1  0  0  0  0  0  0  0  0  0
    3.3253   -1.2930    2.6339 C   0  0  0  0  0  0  0  0  0  0  0  0
    3.7013   -0.3381    1.6612 C   0  0  0  0  0  0  0  0  0  0  0  0
    4.7965   -0.5881    0.8066 C   0  0  0  0  0  0  0  0  0  0  0  0
    5.5354   -1.7844    0.9228 C   0  0  0  0  0  0  0  0  0  0  0  0
    5.1713   -2.7350    1.8986 C   0  0  0  0  0  0  0  0  0  0  0  0
    4.0716   -2.4902    2.7522 C   0  0  0  0  0  0  0  0  0  0  0  0
    2.5806   -0.3260    4.8788 C   0  0  0  0  0  0  0  0  0  0  0  0
    1.9113    1.0131    5.2218 C   0  0  0  0  0  0  0  0  0  0  0  0
    2.4297    1.4677    6.2564 O   0  0  0  0  0  0  0  0  0  0  0  0
    0.8929    1.5020    4.3995 C   0  0  0  0  0  0  0  0  0  0  0  0
    0.1118    2.7860    4.5629 C   0  0  1  0  0  0  0  0  0  0  0  0
    0.9404    4.0359    4.3483 C   0  0  0  0  0  0  0  0  0  0  0  0
    0.7807    5.1405    5.2032 C   0  0  0  0  0  0  0  0  0  0  0  0
    1.5457    6.2957    4.9581 C   0  0  0  0  0  0  0  0  0  0  0  0
    2.4463    6.2846    3.8716 C   0  0  0  0  0  0  0  0  0  0  0  0
    2.6190    5.2278    3.0539 N   0  0  0  0  0  0  0  0  0  0  0  0
    1.8694    4.1306    3.2831 C   0  0  0  0  0  0  0  0  0  0  0  0
   -4.6907    3.0548    1.4337 H   0  0  0  0  0  0  0  0  0  0  0  0
   -3.9135    4.6024    1.7600 H   0  0  0  0  0  0  0  0  0  0  0  0
   -4.7437    3.7437    3.0516 H   0  0  0  0  0  0  0  0  0  0  0  0
    0.6039   -0.8640    1.9770 H   0  0  0  0  0  0  0  0  0  0  0  0
    1.7570   -2.0110    3.8401 H   0  0  0  0  0  0  0  0  0  0  0  0
    3.1504    0.5876    1.5620 H   0  0  0  0  0  0  0  0  0  0  0  0
    5.0642    0.1424    0.0637 H   0  0  0  0  0  0  0  0  0  0  0  0
    6.3729   -1.9677    0.2674 H   0  0  0  0  0  0  0  0  0  0  0  0
    5.7355   -3.6520    1.9891 H   0  0  0  0  0  0  0  0  0  0  0  0
    3.8058   -3.2258    3.4956 H   0  0  0  0  0  0  0  0  0  0  0  0
    2.4002   -1.0222    5.6963 H   0  0  0  0  0  0  0  0  0  0  0  0
    3.6634   -0.1927    4.8631 H   0  0  0  0  0  0  0  0  0  0  0  0
   -1.4389    0.9628    2.3011 H   0  0  0  0  0  0  0  0  0  0  0  0
   -0.3445    2.7870    5.5554 H   0  0  0  0  0  0  0  0  0  0  0  0
    0.0684    5.1044    6.0156 H   0  0  0  0  0  0  0  0  0  0  0  0
    1.4487    7.1686    5.5885 H   0  0  0  0  0  0  0  0  0  0  0  0
    3.0557    7.1493    3.6602 H   0  0  0  0  0  0  0  0  0  0  0  0
    2.0109    3.3132    2.5935 H   0  0  0  0  0  0  0  0  0  0  0  0
  1  2  1  0
  1 27  1  0
  1 28  1  0
  1 29  1  0
  2  3  1  0
  3  4  2  0
  3  5  1  0
  5 20  1  0
  5  6  1  0
  6  7  1  0
  6 39  1  0
  7 19  1  0
  7  8  2  0
  8  9  1  0
  8 30  1  0
  9 10  1  0
  9 16  1  0
  9 31  1  1
 10 15  1  0
 10 11  2  0
 11 12  1  0
 11 32  1  0
 12 13  2  0
 12 33  1  0
 13 14  1  0
 13 34  1  0
 14 15  2  0
 14 35  1  0
 15 36  1  0
 16 37  1  0
 16 38  1  0
 16 17  1  0
 17 18  1  0
 17 19  2  0
 19 20  1  0
 20 21  1  0
 20 40  1  1
 21 26  1  0
 21 22  2  0
 22 23  1  0
 22 41  1  0
 23 24  2  0
 23 42  1  0
 24 25  1  0
 24 43  1  0
 25 26  2  0
 26 44  1  0
M  CHG  1  18  -1
M  END
>  <i_m_ct_stereo_status>  (199) 
1

>  <s_m_source_file>  (199) 
/var/tmp/pbs.5076255.sched01/tmpbhhv4xqx/80i1gy0gug.sdf

>  <i_m_source_file_index>  (199) 
11

>  <i_lp_mmshare_version>  (199) 
48012

>  <i_f3d_flags>  (199) 
0

>  <s_epik_input>  (199) 
W2NIXTFuW2NIXVtjSF1bY0hdYzFbQ0BASF0oTihOPTIpQyg9TylPW0NIM10pW0NASF0oQzIzKUMoPU8pW0NIMl1bQ0BASF0oW0NIMl0zKWM0W2NIXVtjSF1bY0hdW2NIXVtjSF00

>  <s_epik_cmdline>  (199) 
J2VwaWtfcHl0aG9uJywgJy1waHQnLCAnMi4wJywgJy1waCcsICc3LjAnLCAnLXRuJywgJzgnLCAnLW1hJywgJzIwMCcsICctaW1hZScsICc8aW5maWxlLm1hZT4nLCAnLW9tYWUnLCAnPG91dGZpbGUubWFlPic=

>  <r_epik_Ionization_Penalty>  (199) 
1.85152

>  <r_epik_Ionization_Penalty_Charging>  (199) 
1.84932

>  <r_epik_Ionization_Penalty_Neutral>  (199) 
0.00220533

>  <r_epik_State_Penalty>  (199) 
2.05009

>  <r_epik_Charging_Adjusted_Penalty>  (199) 
3.89941

>  <i_epik_Tot_Q>  (199) 
-1

>  <i_epik_Tot_abs_Q>  (199) 
1

>  <s_epik_Chemistry_Notes>  (199) 
This compound has an ester and may undergo hydrolysis at high or low pH.

>  <s_lp_Force_Field>  (199) 
OPLS3e

>  <r_lp_Energy>  (199) 
36.7302

>  <b_lp_Chiralities_Consistent>  (199) 
1

>  <s_lp_Variant>  (199) 
63:0-3

>  <s_i_glide_gridfile>  (199) 
pfpi4k_grid

>  <i_i_glide_lignum>  (199) 
11

>  <i_i_glide_rotatable_bonds>  (199) 
4

>  <r_i_docking_score>  (199) 
-3.17048

>  <r_i_glide_ligand_efficiency>  (199) 
-0.121942

>  <r_i_glide_ligand_efficiency_sa>  (199) 
-0.361252

>  <r_i_glide_ligand_efficiency_ln>  (199) 
-0.744578

>  <r_i_glide_gscore>  (199) 
-3.17048

>  <r_i_glide_lipo>  (199) 
-0.575866

>  <r_i_glide_hbond>  (199) 
-0.143259

>  <r_i_glide_metal>  (199) 
-0

>  <r_i_glide_rewards>  (199) 
-1.03381

>  <r_i_glide_evdw>  (199) 
-27.6443

>  <r_i_glide_ecoul>  (199) 
-2.27242

>  <r_i_glide_erotb>  (199) 
0.470542

>  <r_i_glide_esite>  (199) 
-0.165017

>  <r_i_glide_emodel>  (199) 
-36.3865

>  <r_i_glide_energy>  (199) 
-29.9167

>  <r_i_glide_einternal>  (199) 
1.55711

>  <r_i_glide_intrahb_reward>  (199) 
-0

>  <i_i_glide_confnum>  (199) 
1

>  <i_i_glide_posenum>  (199) 
35

>  <r_i_glide_eff_state_penalty>  (199) 
0

>  <ligand_id>  (199) 
63

>  <original_smiles>  (199) 
COC(=O)N1N=C2CC(c3ccccc3)CC(=O)C2C1c1cccnc1

>  <smiles>  (199) 
[H]C1=C2C(=C([O-])C([H])([H])C1([H])c1c([H])c([H])c([H])c([H])c1[H])C([H])(c1c([H])nc([H])c([H])c1[H])N(C(=O)OC([H])([H])[H])N2[H]

$$$$
63:2:2
     RDKit          3D

 44 47  0  0  1  0  0  0  0  0999 V2000
    5.3696   -3.4374   -3.0821 C   0  0  0  0  0  0  0  0  0  0  0  0
    4.9722   -2.8260   -1.8650 O   0  0  0  0  0  0  0  0  0  0  0  0
    4.9830   -3.5562   -0.7370 C   0  0  0  0  0  0  0  0  0  0  0  0
    5.4097   -4.7068   -0.6663 O   0  0  0  0  0  0  0  0  0  0  0  0
    4.3934   -2.8613    0.3150 N   0  0  0  0  0  0  0  0  0  0  0  0
    3.9507   -1.5354    0.2516 N   0  0  0  0  0  0  0  0  0  0  0  0
    3.5390   -1.0956    1.4785 C   0  0  0  0  0  0  0  0  0  0  0  0
    3.0678    0.1088    1.8155 C   0  0  0  0  0  0  0  0  0  0  0  0
    2.6822    0.4866    3.2338 C   0  0  1  0  0  0  0  0  0  0  0  0
    1.2458    0.9899    3.3788 C   0  0  0  0  0  0  0  0  0  0  0  0
    0.3058    0.8538    2.3286 C   0  0  0  0  0  0  0  0  0  0  0  0
   -1.0055    1.3325    2.4797 C   0  0  0  0  0  0  0  0  0  0  0  0
   -1.4116    1.9373    3.6846 C   0  0  0  0  0  0  0  0  0  0  0  0
   -0.4895    2.0714    4.7409 C   0  0  0  0  0  0  0  0  0  0  0  0
    0.8355    1.6054    4.5879 C   0  0  0  0  0  0  0  0  0  0  0  0
    3.0395   -0.6068    4.2822 C   0  0  0  0  0  0  0  0  0  0  0  0
    3.5192   -1.9719    3.7668 C   0  0  0  0  0  0  0  0  0  0  0  0
    3.6850   -2.7180    4.7496 O   0  0  0  0  0  0  0  0  0  0  0  0
    3.6952   -2.1711    2.3957 C   0  0  0  0  0  0  0  0  0  0  0  0
    4.1897   -3.4106    1.6710 C   0  0  1  0  0  0  0  0  0  0  0  0
    3.1959   -4.5695    1.7214 C   0  0  0  0  0  0  0  0  0  0  0  0
    3.0896   -5.3467    2.8929 C   0  0  0  0  0  0  0  0  0  0  0  0
    2.1577   -6.4016    2.9197 C   0  0  0  0  0  0  0  0  0  0  0  0
    1.3680   -6.6368    1.7770 C   0  0  0  0  0  0  0  0  0  0  0  0
    1.4211   -5.8721    0.6642 N   0  0  0  0  0  0  0  0  0  0  0  0
    2.3331   -4.8858    0.6400 C   0  0  0  0  0  0  0  0  0  0  0  0
    5.2808   -2.7262   -3.8982 H   0  0  0  0  0  0  0  0  0  0  0  0
    4.7406   -4.2961   -3.3200 H   0  0  0  0  0  0  0  0  0  0  0  0
    6.4046   -3.7771   -3.0345 H   0  0  0  0  0  0  0  0  0  0  0  0
    2.9322    0.8636    1.0606 H   0  0  0  0  0  0  0  0  0  0  0  0
    3.3135    1.3505    3.4498 H   0  0  0  0  0  0  0  0  0  0  0  0
    0.5585    0.3887    1.3860 H   0  0  0  0  0  0  0  0  0  0  0  0
   -1.6974    1.2206    1.6620 H   0  0  0  0  0  0  0  0  0  0  0  0
   -2.4286    2.2828    3.7840 H   0  0  0  0  0  0  0  0  0  0  0  0
   -0.8003    2.5342    5.6651 H   0  0  0  0  0  0  0  0  0  0  0  0
    1.5329    1.7169    5.4042 H   0  0  0  0  0  0  0  0  0  0  0  0
    3.8050   -0.1934    4.9375 H   0  0  0  0  0  0  0  0  0  0  0  0
    2.1790   -0.7672    4.9314 H   0  0  0  0  0  0  0  0  0  0  0  0
    4.2783   -0.8953   -0.4589 H   0  0  0  0  0  0  0  0  0  0  0  0
    5.1449   -3.7132    2.1111 H   0  0  0  0  0  0  0  0  0  0  0  0
    3.7114   -5.1360    3.7531 H   0  0  0  0  0  0  0  0  0  0  0  0
    2.0586   -7.0207    3.8007 H   0  0  0  0  0  0  0  0  0  0  0  0
    0.6483   -7.4406    1.7543 H   0  0  0  0  0  0  0  0  0  0  0  0
    2.3265   -4.3028   -0.2653 H   0  0  0  0  0  0  0  0  0  0  0  0
  1  2  1  0
  1 27  1  0
  1 28  1  0
  1 29  1  0
  2  3  1  0
  3  4  2  0
  3  5  1  0
  5 20  1  0
  5  6  1  0
  6  7  1  0
  6 39  1  0
  7 19  1  0
  7  8  2  0
  8  9  1  0
  8 30  1  0
  9 10  1  0
  9 16  1  0
  9 31  1  1
 10 15  1  0
 10 11  2  0
 11 12  1  0
 11 32  1  0
 12 13  2  0
 12 33  1  0
 13 14  1  0
 13 34  1  0
 14 15  2  0
 14 35  1  0
 15 36  1  0
 16 37  1  0
 16 38  1  0
 16 17  1  0
 17 18  1  0
 17 19  2  0
 19 20  1  0
 20 21  1  0
 20 40  1  1
 21 26  1  0
 21 22  2  0
 22 23  1  0
 22 41  1  0
 23 24  2  0
 23 42  1  0
 24 25  1  0
 24 43  1  0
 25 26  2  0
 26 44  1  0
M  CHG  1  18  -1
M  END
>  <i_m_ct_stereo_status>  (200) 
1

>  <s_m_source_file>  (200) 
/var/tmp/pbs.5076255.sched01/tmpbhhv4xqx/80i1gy0gug.sdf

>  <i_m_source_file_index>  (200) 
11

>  <i_lp_mmshare_version>  (200) 
48012

>  <i_f3d_flags>  (200) 
0

>  <s_epik_input>  (200) 
W2NIXTFuW2NIXVtjSF1bY0hdYzFbQ0BASF0oTihOPTIpQyg9TylPW0NIM10pW0NASF0oQzIzKUMoPU8pW0NIMl1bQ0BASF0oW0NIMl0zKWM0W2NIXVtjSF1bY0hdW2NIXVtjSF00

>  <s_epik_cmdline>  (200) 
J2VwaWtfcHl0aG9uJywgJy1waHQnLCAnMi4wJywgJy1waCcsICc3LjAnLCAnLXRuJywgJzgnLCAnLW1hJywgJzIwMCcsICctaW1hZScsICc8aW5maWxlLm1hZT4nLCAnLW9tYWUnLCAnPG91dGZpbGUubWFlPic=

>  <r_epik_Ionization_Penalty>  (200) 
1.85152

>  <r_epik_Ionization_Penalty_Charging>  (200) 
1.84932

>  <r_epik_Ionization_Penalty_Neutral>  (200) 
0.00220533

>  <r_epik_State_Penalty>  (200) 
2.05009

>  <r_epik_Charging_Adjusted_Penalty>  (200) 
3.89941

>  <i_epik_Tot_Q>  (200) 
-1

>  <i_epik_Tot_abs_Q>  (200) 
1

>  <s_epik_Chemistry_Notes>  (200) 
This compound has an ester and may undergo hydrolysis at high or low pH.

>  <s_lp_Force_Field>  (200) 
OPLS3e

>  <r_lp_Energy>  (200) 
36.7302

>  <b_lp_Chiralities_Consistent>  (200) 
1

>  <s_lp_Variant>  (200) 
63:0-3

>  <s_i_glide_gridfile>  (200) 
pfpi4k_grid

>  <i_i_glide_lignum>  (200) 
11

>  <i_i_glide_rotatable_bonds>  (200) 
4

>  <r_i_docking_score>  (200) 
-2.51629

>  <r_i_glide_ligand_efficiency>  (200) 
-0.0967802

>  <r_i_glide_ligand_efficiency_sa>  (200) 
-0.286711

>  <r_i_glide_ligand_efficiency_ln>  (200) 
-0.590941

>  <r_i_glide_gscore>  (200) 
-2.51629

>  <r_i_glide_lipo>  (200) 
-0.234789

>  <r_i_glide_hbond>  (200) 
-0.157456

>  <r_i_glide_metal>  (200) 
-0

>  <r_i_glide_rewards>  (200) 
-1.10525

>  <r_i_glide_evdw>  (200) 
-27.3567

>  <r_i_glide_ecoul>  (200) 
-0.563586

>  <r_i_glide_erotb>  (200) 
0.470542

>  <r_i_glide_esite>  (200) 
-0.0369613

>  <r_i_glide_emodel>  (200) 
-32.6824

>  <r_i_glide_energy>  (200) 
-27.9202

>  <r_i_glide_einternal>  (200) 
1.76686

>  <r_i_glide_intrahb_reward>  (200) 
-0

>  <i_i_glide_confnum>  (200) 
1

>  <i_i_glide_posenum>  (200) 
10

>  <r_i_glide_eff_state_penalty>  (200) 
0

>  <ligand_id>  (200) 
63

>  <original_smiles>  (200) 
COC(=O)N1N=C2CC(c3ccccc3)CC(=O)C2C1c1cccnc1

>  <smiles>  (200) 
[H]C1=C2C(=C([O-])C([H])([H])C1([H])c1c([H])c([H])c([H])c([H])c1[H])C([H])(c1c([H])nc([H])c([H])c1[H])N(C(=O)OC([H])([H])[H])N2[H]

$$$$
64:0:0
     RDKit          3D

 67 70  0  0  1  0  0  0  0  0999 V2000
   -0.3126   -7.5601    1.9159 C   0  0  0  0  0  0  0  0  0  0  0  0
    0.3509   -8.7909    2.5020 C   0  0  0  0  0  0  0  0  0  0  0  0
   -0.5787   -9.6339    3.3560 C   0  0  0  0  0  0  0  0  0  0  0  0
    1.6359   -9.1470    2.3185 C   0  0  0  0  0  0  0  0  0  0  0  0
    2.6897   -8.4403    1.4795 C   0  0  0  0  0  0  0  0  0  0  0  0
    3.9113   -7.9475    2.2790 C   0  0  2  0  0  0  0  0  0  0  0  0
    4.7190   -9.1020    2.9094 C   0  0  0  0  0  0  0  0  0  0  0  0
    6.0282   -8.6993    2.1966 C   0  0  2  0  0  0  0  0  0  0  0  0
    6.6070   -9.8122    1.3145 C   0  0  0  0  0  0  0  0  0  0  0  0
    7.2088   -8.1137    3.0216 C   0  0  0  0  0  0  0  0  0  0  0  0
    7.0202   -7.9118    4.5432 C   0  0  0  0  0  0  0  0  0  0  0  0
    5.8847   -6.9594    4.9504 C   0  0  2  0  0  0  0  0  0  0  0  0
    5.6794   -5.7036    4.1072 C   0  0  1  0  0  0  0  0  0  0  0  0
    4.3184   -5.4879    3.3526 C   0  0  2  0  0  0  0  0  0  0  0  0
    3.4310   -4.4783    4.1275 C   0  0  0  0  0  0  0  0  0  0  0  0
    3.4447   -6.7906    3.2088 C   0  0  0  0  0  0  0  0  0  0  0  0
    4.6828   -4.9171    1.9447 C   0  0  0  0  0  0  0  0  0  0  0  0
    4.3238   -3.7353    1.5794 N   0  0  0  0  0  0  0  0  0  0  0  0
    4.6589   -3.1666    0.3533 C   0  0  0  0  0  0  0  0  0  0  0  0
    5.4220   -3.6031   -0.5389 O   0  0  0  0  0  0  0  0  0  0  0  0
    3.9826   -1.8297    0.1001 C   0  0  0  0  0  0  0  0  0  0  0  0
    3.8009   -1.5741   -1.4143 C   0  0  0  0  0  0  0  0  0  0  0  0
    4.7701   -0.6746    0.7505 C   0  0  0  0  0  0  0  0  0  0  0  0
    5.7015   -6.0449    0.9303 S   0  0  0  0  0  0  0  0  0  0  0  0
    5.1466   -7.7172    1.4062 C   0  0  2  0  0  0  0  0  0  0  0  0
    6.0577   -5.6086    5.5950 C   0  0  0  0  0  0  0  0  0  0  0  0
    5.0926   -5.2032    6.6985 C   0  0  0  0  0  0  0  0  0  0  0  0
    7.4420   -5.0750    5.9469 C   0  0  0  0  0  0  0  0  0  0  0  0
   -1.1239   -7.8775    1.2648 H   0  0  0  0  0  0  0  0  0  0  0  0
    0.3561   -6.9308    1.3339 H   0  0  0  0  0  0  0  0  0  0  0  0
   -0.7319   -6.9553    2.7187 H   0  0  0  0  0  0  0  0  0  0  0  0
   -1.4323   -9.9678    2.7667 H   0  0  0  0  0  0  0  0  0  0  0  0
   -0.9528   -9.0534    4.2007 H   0  0  0  0  0  0  0  0  0  0  0  0
   -0.0747  -10.5159    3.7536 H   0  0  0  0  0  0  0  0  0  0  0  0
    1.9805  -10.0536    2.7923 H   0  0  0  0  0  0  0  0  0  0  0  0
    2.9895   -9.1895    0.7483 H   0  0  0  0  0  0  0  0  0  0  0  0
    2.2699   -7.6272    0.8804 H   0  0  0  0  0  0  0  0  0  0  0  0
    4.7373   -9.1076    3.9907 H   0  0  0  0  0  0  0  0  0  0  0  0
    4.3779  -10.0795    2.5746 H   0  0  0  0  0  0  0  0  0  0  0  0
    7.3666   -9.4312    0.6307 H   0  0  0  0  0  0  0  0  0  0  0  0
    5.8356  -10.2721    0.7003 H   0  0  0  0  0  0  0  0  0  0  0  0
    7.0376  -10.6148    1.9091 H   0  0  0  0  0  0  0  0  0  0  0  0
    8.0946   -8.7441    2.9009 H   0  0  0  0  0  0  0  0  0  0  0  0
    7.5438   -7.1729    2.5883 H   0  0  0  0  0  0  0  0  0  0  0  0
    6.8264   -8.8801    5.0137 H   0  0  0  0  0  0  0  0  0  0  0  0
    7.9564   -7.5669    4.9700 H   0  0  0  0  0  0  0  0  0  0  0  0
    5.0365   -7.4849    5.3601 H   0  0  0  0  0  0  0  0  0  0  0  0
    6.5230   -5.3779    3.5147 H   0  0  0  0  0  0  0  0  0  0  0  0
    2.9760   -4.9161    5.0180 H   0  0  0  0  0  0  0  0  0  0  0  0
    2.5861   -4.1398    3.5234 H   0  0  0  0  0  0  0  0  0  0  0  0
    3.9882   -3.5922    4.4378 H   0  0  0  0  0  0  0  0  0  0  0  0
    2.4629   -6.4499    2.8641 H   0  0  0  0  0  0  0  0  0  0  0  0
    3.2075   -7.2005    4.1946 H   0  0  0  0  0  0  0  0  0  0  0  0
    2.9842   -1.8479    0.5441 H   0  0  0  0  0  0  0  0  0  0  0  0
    3.2320   -2.3864   -1.8757 H   0  0  0  0  0  0  0  0  0  0  0  0
    4.7633   -1.5143   -1.9347 H   0  0  0  0  0  0  0  0  0  0  0  0
    3.2641   -0.6618   -1.6151 H   0  0  0  0  0  0  0  0  0  0  0  0
    4.8777   -0.8208    1.8273 H   0  0  0  0  0  0  0  0  0  0  0  0
    4.2627    0.2813    0.5989 H   0  0  0  0  0  0  0  0  0  0  0  0
    5.7739   -0.5801    0.3286 H   0  0  0  0  0  0  0  0  0  0  0  0
    4.9433   -8.1856    0.4506 H   0  0  0  0  0  0  0  0  0  0  0  0
    4.9017   -4.1296    6.6561 H   0  0  0  0  0  0  0  0  0  0  0  0
    5.5043   -5.4373    7.6812 H   0  0  0  0  0  0  0  0  0  0  0  0
    4.1548   -5.7416    6.6047 H   0  0  0  0  0  0  0  0  0  0  0  0
    7.4099   -3.9888    6.0492 H   0  0  0  0  0  0  0  0  0  0  0  0
    8.1657   -5.3252    5.1710 H   0  0  0  0  0  0  0  0  0  0  0  0
    7.7960   -5.4995    6.8892 H   0  0  0  0  0  0  0  0  0  0  0  0
  1  2  1  0
  1 29  1  0
  1 30  1  0
  1 31  1  0
  2  3  1  0
  2  4  2  3
  3 32  1  0
  3 33  1  0
  3 34  1  0
  4  5  1  0
  4 35  1  0
  6  5  1  6
  5 36  1  0
  5 37  1  0
  6 16  1  0
  6 25  1  0
  6  7  1  0
  7  8  1  0
  7 38  1  0
  7 39  1  0
  8 25  1  0
  8  9  1  6
  8 10  1  0
  9 40  1  0
  9 41  1  0
  9 42  1  0
 10 11  1  0
 10 43  1  0
 10 44  1  0
 11 12  1  0
 11 45  1  0
 11 46  1  0
 12 26  1  0
 12 13  1  0
 12 47  1  1
 13 14  1  0
 13 26  1  0
 13 48  1  6
 14 15  1  1
 14 16  1  0
 14 17  1  0
 15 49  1  0
 15 50  1  0
 15 51  1  0
 16 52  1  0
 16 53  1  0
 17 18  2  3
 17 24  1  0
 18 19  1  0
 19 20  2  0
 19 21  1  0
 21 22  1  0
 21 23  1  0
 21 54  1  0
 22 55  1  0
 22 56  1  0
 22 57  1  0
 23 58  1  0
 23 59  1  0
 23 60  1  0
 24 25  1  0
 25 61  1  6
 26 27  1  0
 26 28  1  0
 27 62  1  0
 27 63  1  0
 27 64  1  0
 28 65  1  0
 28 66  1  0
 28 67  1  0
M  END
>  <i_m_ct_stereo_status>  (201) 
1

>  <s_m_source_file>  (201) 
/var/tmp/pbs.5076255.sched01/tmpbhhv4xqx/80i1gy0gug.sdf

>  <i_m_source_file_index>  (201) 
12

>  <i_lp_mmshare_version>  (201) 
48012

>  <i_f3d_flags>  (201) 
0

>  <s_epik_input>  (201) 
W0NIM11DKFtDSDNdKT1bQ0hdW0NIMl1bQ0BdMTJbQ0BASF0zW0NAQF0oW0NIMl0xKShbQ0gzXSlbQ0gyXVtDSDJdW0NAQEhdNFtDQEhdKEM0KFtDSDNdKVtDSDNdKVtDQF0oW0NIM10pKFtDSDJdMikvQyhTMyk9Ti9DKD1PKVtDSF0oW0NIM10pW0NIM10=

>  <s_epik_cmdline>  (201) 
J2VwaWtfcHl0aG9uJywgJy1waHQnLCAnMi4wJywgJy1waCcsICc3LjAnLCAnLXRuJywgJzgnLCAnLW1hJywgJzIwMCcsICctaW1hZScsICc8aW5maWxlLm1hZT4nLCAnLW9tYWUnLCAnPG91dGZpbGUubWFlPic=

>  <r_lp_tautomer_probability>  (201) 
1

>  <r_epik_Ionization_Penalty>  (201) 
0

>  <r_epik_Ionization_Penalty_Charging>  (201) 
0

>  <r_epik_Ionization_Penalty_Neutral>  (201) 
0

>  <r_epik_State_Penalty>  (201) 
-0

>  <r_epik_Charging_Adjusted_Penalty>  (201) 
0

>  <i_epik_Tot_Q>  (201) 
0

>  <i_epik_Tot_abs_Q>  (201) 
0

>  <s_epik_Chemistry_Notes>  (201) 
This compound has an imine and may undergo hydrolysis.

>  <s_lp_Force_Field>  (201) 
OPLS3e

>  <r_lp_Energy>  (201) 
76.17

>  <b_lp_Chiralities_Consistent>  (201) 
1

>  <s_lp_Variant>  (201) 
64:0-1

>  <s_i_glide_gridfile>  (201) 
pfpi4k_grid

>  <i_i_glide_lignum>  (201) 
12

>  <i_i_glide_rotatable_bonds>  (201) 
4

>  <r_i_docking_score>  (201) 
-1.9161

>  <r_i_glide_ligand_efficiency>  (201) 
-0.0684322

>  <r_i_glide_ligand_efficiency_sa>  (201) 
-0.207801

>  <r_i_glide_ligand_efficiency_ln>  (201) 
-0.442293

>  <r_i_glide_gscore>  (201) 
-1.9161

>  <r_i_glide_lipo>  (201) 
-0.416024

>  <r_i_glide_hbond>  (201) 
0

>  <r_i_glide_metal>  (201) 
-0

>  <r_i_glide_rewards>  (201) 
-0.726329

>  <r_i_glide_evdw>  (201) 
-24.7288

>  <r_i_glide_ecoul>  (201) 
0.652698

>  <r_i_glide_erotb>  (201) 
0.364788

>  <r_i_glide_esite>  (201) 
0

>  <r_i_glide_emodel>  (201) 
-26.4311

>  <r_i_glide_energy>  (201) 
-24.0761

>  <r_i_glide_einternal>  (201) 
0.269702

>  <r_i_glide_intrahb_reward>  (201) 
-0

>  <i_i_glide_confnum>  (201) 
1

>  <i_i_glide_posenum>  (201) 
15

>  <r_i_glide_eff_state_penalty>  (201) 
0

>  <ligand_id>  (201) 
64

>  <original_smiles>  (201) 
CC(C)=CCC12CC3(C)CCC4C(C(C)(C1)C(=NC(=O)C(C)C)SC32)C4(C)C

>  <smiles>  (201) 
[H]C(=C(C([H])([H])[H])C([H])([H])[H])C([H])([H])C12C([H])([H])C3(C([H])([H])[H])C(=NC(=O)C([H])(C([H])([H])[H])C([H])([H])[H])SC1([H])C(C([H])([H])[H])(C([H])([H])C([H])([H])C1([H])C3([H])C1(C([H])([H])[H])C([H])([H])[H])C2([H])[H]

$$$$
64:0:1
     RDKit          3D

 67 70  0  0  1  0  0  0  0  0999 V2000
    1.3822   -5.5059    3.9841 C   0  0  0  0  0  0  0  0  0  0  0  0
    1.3380   -4.8119    5.3356 C   0  0  0  0  0  0  0  0  0  0  0  0
    0.1537   -5.2251    6.1946 C   0  0  0  0  0  0  0  0  0  0  0  0
    2.2381   -3.9117    5.7749 C   0  0  0  0  0  0  0  0  0  0  0  0
    3.4863   -3.4122    5.0625 C   0  0  0  0  0  0  0  0  0  0  0  0
    3.5183   -1.8843    4.8548 C   0  0  2  0  0  0  0  0  0  0  0  0
    3.6407   -1.0945    6.1786 C   0  0  0  0  0  0  0  0  0  0  0  0
    4.9372   -0.3796    5.7444 C   0  0  2  0  0  0  0  0  0  0  0  0
    6.1231   -0.6265    6.6883 C   0  0  0  0  0  0  0  0  0  0  0  0
    4.9163    1.1439    5.4445 C   0  0  0  0  0  0  0  0  0  0  0  0
    3.5778    1.9006    5.5492 C   0  0  0  0  0  0  0  0  0  0  0  0
    2.4592    1.4057    4.6140 C   0  0  2  0  0  0  0  0  0  0  0  0
    2.8546    0.9964    3.2039 C   0  0  1  0  0  0  0  0  0  0  0  0
    2.6189   -0.4775    2.7262 C   0  0  2  0  0  0  0  0  0  0  0  0
    1.3550   -0.5424    1.8395 C   0  0  0  0  0  0  0  0  0  0  0  0
    2.3645   -1.5084    3.8864 C   0  0  0  0  0  0  0  0  0  0  0  0
    3.8787   -0.8792    1.9015 C   0  0  0  0  0  0  0  0  0  0  0  0
    3.8140   -1.1866    0.6536 N   0  0  0  0  0  0  0  0  0  0  0  0
    4.9275   -1.4618   -0.1511 C   0  0  0  0  0  0  0  0  0  0  0  0
    6.1224   -1.2264    0.0537 O   0  0  0  0  0  0  0  0  0  0  0  0
    4.5450   -2.1459   -1.4572 C   0  0  0  0  0  0  0  0  0  0  0  0
    5.7576   -2.8871   -2.0721 C   0  0  0  0  0  0  0  0  0  0  0  0
    3.9559   -1.1428   -2.4640 C   0  0  0  0  0  0  0  0  0  0  0  0
    5.4215   -0.8512    2.8608 S   0  0  0  0  0  0  0  0  0  0  0  0
    4.9156   -1.3487    4.5541 C   0  0  2  0  0  0  0  0  0  0  0  0
    1.8905    2.1694    3.4435 C   0  0  0  0  0  0  0  0  0  0  0  0
    0.3887    2.1129    3.2028 C   0  0  0  0  0  0  0  0  0  0  0  0
    2.3745    3.5779    3.1102 C   0  0  0  0  0  0  0  0  0  0  0  0
    1.4795   -6.5825    4.1240 H   0  0  0  0  0  0  0  0  0  0  0  0
    2.2018   -5.1829    3.3455 H   0  0  0  0  0  0  0  0  0  0  0  0
    0.4571   -5.3161    3.4420 H   0  0  0  0  0  0  0  0  0  0  0  0
    0.1748   -6.3005    6.3760 H   0  0  0  0  0  0  0  0  0  0  0  0
   -0.7797   -4.9838    5.6860 H   0  0  0  0  0  0  0  0  0  0  0  0
    0.1604   -4.7166    7.1597 H   0  0  0  0  0  0  0  0  0  0  0  0
    2.0930   -3.4962    6.7626 H   0  0  0  0  0  0  0  0  0  0  0  0
    4.3062   -3.7193    5.7004 H   0  0  0  0  0  0  0  0  0  0  0  0
    3.6697   -3.9265    4.1214 H   0  0  0  0  0  0  0  0  0  0  0  0
    2.7972   -0.4627    6.4061 H   0  0  0  0  0  0  0  0  0  0  0  0
    3.8202   -1.7453    7.0262 H   0  0  0  0  0  0  0  0  0  0  0  0
    7.0679   -0.3281    6.2348 H   0  0  0  0  0  0  0  0  0  0  0  0
    6.2125   -1.6764    6.9401 H   0  0  0  0  0  0  0  0  0  0  0  0
    6.0096   -0.0875    7.6264 H   0  0  0  0  0  0  0  0  0  0  0  0
    5.6198    1.6614    6.1024 H   0  0  0  0  0  0  0  0  0  0  0  0
    5.3415    1.3362    4.4618 H   0  0  0  0  0  0  0  0  0  0  0  0
    3.2017    1.8364    6.5747 H   0  0  0  0  0  0  0  0  0  0  0  0
    3.7556    2.9561    5.3718 H   0  0  0  0  0  0  0  0  0  0  0  0
    1.6950    0.8685    5.1377 H   0  0  0  0  0  0  0  0  0  0  0  0
    3.7874    1.3795    2.8389 H   0  0  0  0  0  0  0  0  0  0  0  0
    0.4290   -0.4801    2.4104 H   0  0  0  0  0  0  0  0  0  0  0  0
    1.2932   -1.4897    1.3104 H   0  0  0  0  0  0  0  0  0  0  0  0
    1.3408    0.2571    1.0966 H   0  0  0  0  0  0  0  0  0  0  0  0
    2.0107   -2.4220    3.3965 H   0  0  0  0  0  0  0  0  0  0  0  0
    1.4900   -1.2065    4.4683 H   0  0  0  0  0  0  0  0  0  0  0  0
    3.7817   -2.8937   -1.2475 H   0  0  0  0  0  0  0  0  0  0  0  0
    6.1656   -3.6137   -1.3661 H   0  0  0  0  0  0  0  0  0  0  0  0
    6.5709   -2.2014   -2.3237 H   0  0  0  0  0  0  0  0  0  0  0  0
    5.4933   -3.4273   -2.9867 H   0  0  0  0  0  0  0  0  0  0  0  0
    3.0617   -0.6561   -2.0671 H   0  0  0  0  0  0  0  0  0  0  0  0
    3.6583   -1.6431   -3.3895 H   0  0  0  0  0  0  0  0  0  0  0  0
    4.6707   -0.3578   -2.7262 H   0  0  0  0  0  0  0  0  0  0  0  0
    5.6040   -2.1485    4.7943 H   0  0  0  0  0  0  0  0  0  0  0  0
    0.1817    2.1442    2.1309 H   0  0  0  0  0  0  0  0  0  0  0  0
   -0.1148    2.9642    3.6667 H   0  0  0  0  0  0  0  0  0  0  0  0
   -0.0326    1.2120    3.6311 H   0  0  0  0  0  0  0  0  0  0  0  0
    2.1646    3.8220    2.0659 H   0  0  0  0  0  0  0  0  0  0  0  0
    3.4465    3.6619    3.2586 H   0  0  0  0  0  0  0  0  0  0  0  0
    1.8817    4.3212    3.7431 H   0  0  0  0  0  0  0  0  0  0  0  0
  1  2  1  0
  1 29  1  0
  1 30  1  0
  1 31  1  0
  2  3  1  0
  2  4  2  3
  3 32  1  0
  3 33  1  0
  3 34  1  0
  4  5  1  0
  4 35  1  0
  6  5  1  1
  5 36  1  0
  5 37  1  0
  6 16  1  0
  6 25  1  0
  6  7  1  0
  7  8  1  0
  7 38  1  0
  7 39  1  0
  8 25  1  0
  8  9  1  1
  8 10  1  0
  9 40  1  0
  9 41  1  0
  9 42  1  0
 10 11  1  0
 10 43  1  0
 10 44  1  0
 11 12  1  0
 11 45  1  0
 11 46  1  0
 12 26  1  0
 12 13  1  0
 12 47  1  1
 13 14  1  0
 13 26  1  0
 13 48  1  1
 14 15  1  6
 14 16  1  0
 14 17  1  0
 15 49  1  0
 15 50  1  0
 15 51  1  0
 16 52  1  0
 16 53  1  0
 17 18  2  3
 17 24  1  0
 18 19  1  0
 19 20  2  0
 19 21  1  0
 21 22  1  0
 21 23  1  0
 21 54  1  0
 22 55  1  0
 22 56  1  0
 22 57  1  0
 23 58  1  0
 23 59  1  0
 23 60  1  0
 24 25  1  0
 25 61  1  1
 26 27  1  0
 26 28  1  0
 27 62  1  0
 27 63  1  0
 27 64  1  0
 28 65  1  0
 28 66  1  0
 28 67  1  0
M  END
>  <i_m_ct_stereo_status>  (202) 
1

>  <s_m_source_file>  (202) 
/var/tmp/pbs.5076255.sched01/tmpbhhv4xqx/80i1gy0gug.sdf

>  <i_m_source_file_index>  (202) 
12

>  <i_lp_mmshare_version>  (202) 
48012

>  <i_f3d_flags>  (202) 
0

>  <s_epik_input>  (202) 
W0NIM11DKFtDSDNdKT1bQ0hdW0NIMl1bQ0BdMTJbQ0BASF0zW0NAQF0oW0NIMl0xKShbQ0gzXSlbQ0gyXVtDSDJdW0NAQEhdNFtDQEhdKEM0KFtDSDNdKVtDSDNdKVtDQF0oW0NIM10pKFtDSDJdMikvQyhTMyk9Ti9DKD1PKVtDSF0oW0NIM10pW0NIM10=

>  <s_epik_cmdline>  (202) 
J2VwaWtfcHl0aG9uJywgJy1waHQnLCAnMi4wJywgJy1waCcsICc3LjAnLCAnLXRuJywgJzgnLCAnLW1hJywgJzIwMCcsICctaW1hZScsICc8aW5maWxlLm1hZT4nLCAnLW9tYWUnLCAnPG91dGZpbGUubWFlPic=

>  <r_lp_tautomer_probability>  (202) 
1

>  <r_epik_Ionization_Penalty>  (202) 
0

>  <r_epik_Ionization_Penalty_Charging>  (202) 
0

>  <r_epik_Ionization_Penalty_Neutral>  (202) 
0

>  <r_epik_State_Penalty>  (202) 
-0

>  <r_epik_Charging_Adjusted_Penalty>  (202) 
0

>  <i_epik_Tot_Q>  (202) 
0

>  <i_epik_Tot_abs_Q>  (202) 
0

>  <s_epik_Chemistry_Notes>  (202) 
This compound has an imine and may undergo hydrolysis.

>  <s_lp_Force_Field>  (202) 
OPLS3e

>  <r_lp_Energy>  (202) 
76.17

>  <b_lp_Chiralities_Consistent>  (202) 
1

>  <s_lp_Variant>  (202) 
64:0-1

>  <s_i_glide_gridfile>  (202) 
pfpi4k_grid

>  <i_i_glide_lignum>  (202) 
12

>  <i_i_glide_rotatable_bonds>  (202) 
4

>  <r_i_docking_score>  (202) 
-1.85656

>  <r_i_glide_ligand_efficiency>  (202) 
-0.0663059

>  <r_i_glide_ligand_efficiency_sa>  (202) 
-0.201344

>  <r_i_glide_ligand_efficiency_ln>  (202) 
-0.42855

>  <r_i_glide_gscore>  (202) 
-1.85656

>  <r_i_glide_lipo>  (202) 
-0.309307

>  <r_i_glide_hbond>  (202) 
0

>  <r_i_glide_metal>  (202) 
-0

>  <r_i_glide_rewards>  (202) 
-0.685139

>  <r_i_glide_evdw>  (202) 
-24.5021

>  <r_i_glide_ecoul>  (202) 
0.0687978

>  <r_i_glide_erotb>  (202) 
0.364788

>  <r_i_glide_esite>  (202) 
-0.0121224

>  <r_i_glide_emodel>  (202) 
-26.5262

>  <r_i_glide_energy>  (202) 
-24.4333

>  <r_i_glide_einternal>  (202) 
0.72005

>  <r_i_glide_intrahb_reward>  (202) 
-0

>  <i_i_glide_confnum>  (202) 
1

>  <i_i_glide_posenum>  (202) 
22

>  <r_i_glide_eff_state_penalty>  (202) 
0

>  <ligand_id>  (202) 
64

>  <original_smiles>  (202) 
CC(C)=CCC12CC3(C)CCC4C(C(C)(C1)C(=NC(=O)C(C)C)SC32)C4(C)C

>  <smiles>  (202) 
[H]C(=C(C([H])([H])[H])C([H])([H])[H])C([H])([H])C12C([H])([H])C3(C([H])([H])[H])C(=NC(=O)C([H])(C([H])([H])[H])C([H])([H])[H])SC1([H])C(C([H])([H])[H])(C([H])([H])C([H])([H])C1([H])C3([H])C1(C([H])([H])[H])C([H])([H])[H])C2([H])[H]

$$$$
64:0:2
     RDKit          3D

 67 70  0  0  1  0  0  0  0  0999 V2000
    6.5567   -5.0765    5.2090 C   0  0  0  0  0  0  0  0  0  0  0  0
    6.7299   -6.2229    4.2235 C   0  0  0  0  0  0  0  0  0  0  0  0
    7.6634   -5.9010    3.0647 C   0  0  0  0  0  0  0  0  0  0  0  0
    6.1356   -7.4263    4.3237 C   0  0  0  0  0  0  0  0  0  0  0  0
    5.1972   -7.9204    5.4169 C   0  0  0  0  0  0  0  0  0  0  0  0
    3.8497   -8.4643    4.8941 C   0  0  2  0  0  0  0  0  0  0  0  0
    4.0016   -9.7567    4.0613 C   0  0  0  0  0  0  0  0  0  0  0  0
    3.0672  -10.5705    4.9794 C   0  0  2  0  0  0  0  0  0  0  0  0
    3.7389  -11.8105    5.5831 C   0  0  0  0  0  0  0  0  0  0  0  0
    1.6664  -11.0186    4.4708 C   0  0  0  0  0  0  0  0  0  0  0  0
    1.2427  -10.5948    3.0475 C   0  0  0  0  0  0  0  0  0  0  0  0
    1.1671   -9.0869    2.7878 C   0  0  2  0  0  0  0  0  0  0  0  0
    0.6142   -8.2039    3.8994 C   0  0  1  0  0  0  0  0  0  0  0  0
    1.5231   -7.1064    4.5472 C   0  0  2  0  0  0  0  0  0  0  0  0
    1.1568   -5.7044    3.9814 C   0  0  0  0  0  0  0  0  0  0  0  0
    3.0660   -7.2784    4.2574 C   0  0  0  0  0  0  0  0  0  0  0  0
    1.2507   -7.1585    6.0838 C   0  0  0  0  0  0  0  0  0  0  0  0
    0.7181   -6.1648    6.7076 N   0  0  0  0  0  0  0  0  0  0  0  0
    0.4180   -6.1836    8.0688 C   0  0  0  0  0  0  0  0  0  0  0  0
    0.5030   -7.1172    8.8833 O   0  0  0  0  0  0  0  0  0  0  0  0
   -0.0866   -4.8376    8.5923 C   0  0  0  0  0  0  0  0  0  0  0  0
   -0.1896   -4.8340   10.1381 C   0  0  0  0  0  0  0  0  0  0  0  0
   -1.4347   -4.4447    7.9613 C   0  0  0  0  0  0  0  0  0  0  0  0
    1.6820   -8.7579    6.8544 S   0  0  0  0  0  0  0  0  0  0  0  0
    3.1203   -9.3479    5.9111 C   0  0  2  0  0  0  0  0  0  0  0  0
   -0.0909   -8.2904    2.5355 C   0  0  0  0  0  0  0  0  0  0  0  0
   -0.0527   -7.1919    1.4846 C   0  0  0  0  0  0  0  0  0  0  0  0
   -1.4516   -8.9744    2.4834 C   0  0  0  0  0  0  0  0  0  0  0  0
    7.5158   -4.8288    5.6651 H   0  0  0  0  0  0  0  0  0  0  0  0
    5.8556   -5.2827    6.0140 H   0  0  0  0  0  0  0  0  0  0  0  0
    6.1892   -4.1950    4.6848 H   0  0  0  0  0  0  0  0  0  0  0  0
    8.6533   -5.6347    3.4391 H   0  0  0  0  0  0  0  0  0  0  0  0
    7.2758   -5.0610    2.4851 H   0  0  0  0  0  0  0  0  0  0  0  0
    7.7764   -6.7522    2.3915 H   0  0  0  0  0  0  0  0  0  0  0  0
    6.3516   -8.1582    3.5569 H   0  0  0  0  0  0  0  0  0  0  0  0
    5.7517   -8.7126    5.9152 H   0  0  0  0  0  0  0  0  0  0  0  0
    5.0273   -7.1794    6.1922 H   0  0  0  0  0  0  0  0  0  0  0  0
    3.7102   -9.6706    3.0229 H   0  0  0  0  0  0  0  0  0  0  0  0
    5.0141  -10.1485    4.0900 H   0  0  0  0  0  0  0  0  0  0  0  0
    3.1649  -12.2133    6.4133 H   0  0  0  0  0  0  0  0  0  0  0  0
    4.7239  -11.5760    5.9819 H   0  0  0  0  0  0  0  0  0  0  0  0
    3.8706  -12.6018    4.8500 H   0  0  0  0  0  0  0  0  0  0  0  0
    1.5945  -12.1078    4.5040 H   0  0  0  0  0  0  0  0  0  0  0  0
    0.8844  -10.7219    5.1710 H   0  0  0  0  0  0  0  0  0  0  0  0
    1.9745  -11.0132    2.3589 H   0  0  0  0  0  0  0  0  0  0  0  0
    0.2900  -11.0592    2.8024 H   0  0  0  0  0  0  0  0  0  0  0  0
    1.9828   -8.7371    2.1680 H   0  0  0  0  0  0  0  0  0  0  0  0
   -0.0054   -8.7029    4.6393 H   0  0  0  0  0  0  0  0  0  0  0  0
    1.5288   -5.5551    2.9692 H   0  0  0  0  0  0  0  0  0  0  0  0
    1.6143   -4.9051    4.5673 H   0  0  0  0  0  0  0  0  0  0  0  0
    0.0811   -5.5374    3.9789 H   0  0  0  0  0  0  0  0  0  0  0  0
    3.5351   -6.3474    4.5833 H   0  0  0  0  0  0  0  0  0  0  0  0
    3.2514   -7.2662    3.1849 H   0  0  0  0  0  0  0  0  0  0  0  0
    0.6467   -4.0791    8.3145 H   0  0  0  0  0  0  0  0  0  0  0  0
    0.7701   -5.0954   10.5909 H   0  0  0  0  0  0  0  0  0  0  0  0
   -0.9197   -5.5662   10.4945 H   0  0  0  0  0  0  0  0  0  0  0  0
   -0.4853   -3.8601   10.5380 H   0  0  0  0  0  0  0  0  0  0  0  0
   -1.3789   -4.3881    6.8735 H   0  0  0  0  0  0  0  0  0  0  0  0
   -1.7528   -3.4682    8.3209 H   0  0  0  0  0  0  0  0  0  0  0  0
   -2.2239   -5.1527    8.2144 H   0  0  0  0  0  0  0  0  0  0  0  0
    3.8413   -9.5857    6.6916 H   0  0  0  0  0  0  0  0  0  0  0  0
   -0.6919   -6.3651    1.7880 H   0  0  0  0  0  0  0  0  0  0  0  0
   -0.4099   -7.5560    0.5197 H   0  0  0  0  0  0  0  0  0  0  0  0
    0.9633   -6.8344    1.3393 H   0  0  0  0  0  0  0  0  0  0  0  0
   -2.2546   -8.2617    2.6823 H   0  0  0  0  0  0  0  0  0  0  0  0
   -1.5169   -9.7660    3.2314 H   0  0  0  0  0  0  0  0  0  0  0  0
   -1.6234   -9.4264    1.5043 H   0  0  0  0  0  0  0  0  0  0  0  0
  1  2  1  0
  1 29  1  0
  1 30  1  0
  1 31  1  0
  2  3  1  0
  2  4  2  3
  3 32  1  0
  3 33  1  0
  3 34  1  0
  4  5  1  0
  4 35  1  0
  6  5  1  1
  5 36  1  0
  5 37  1  0
  6 16  1  0
  6 25  1  0
  6  7  1  0
  7  8  1  0
  7 38  1  0
  7 39  1  0
  8 25  1  0
  8  9  1  1
  8 10  1  0
  9 40  1  0
  9 41  1  0
  9 42  1  0
 10 11  1  0
 10 43  1  0
 10 44  1  0
 11 12  1  0
 11 45  1  0
 11 46  1  0
 12 26  1  0
 12 13  1  0
 12 47  1  6
 13 14  1  0
 13 26  1  0
 13 48  1  1
 14 15  1  6
 14 16  1  0
 14 17  1  0
 15 49  1  0
 15 50  1  0
 15 51  1  0
 16 52  1  0
 16 53  1  0
 17 18  2  3
 17 24  1  0
 18 19  1  0
 19 20  2  0
 19 21  1  0
 21 22  1  0
 21 23  1  0
 21 54  1  0
 22 55  1  0
 22 56  1  0
 22 57  1  0
 23 58  1  0
 23 59  1  0
 23 60  1  0
 24 25  1  0
 25 61  1  1
 26 27  1  0
 26 28  1  0
 27 62  1  0
 27 63  1  0
 27 64  1  0
 28 65  1  0
 28 66  1  0
 28 67  1  0
M  END
>  <i_m_ct_stereo_status>  (203) 
1

>  <s_m_source_file>  (203) 
/var/tmp/pbs.5076255.sched01/tmpbhhv4xqx/80i1gy0gug.sdf

>  <i_m_source_file_index>  (203) 
12

>  <i_lp_mmshare_version>  (203) 
48012

>  <i_f3d_flags>  (203) 
0

>  <s_epik_input>  (203) 
W0NIM11DKFtDSDNdKT1bQ0hdW0NIMl1bQ0BdMTJbQ0BASF0zW0NAQF0oW0NIMl0xKShbQ0gzXSlbQ0gyXVtDSDJdW0NAQEhdNFtDQEhdKEM0KFtDSDNdKVtDSDNdKVtDQF0oW0NIM10pKFtDSDJdMikvQyhTMyk9Ti9DKD1PKVtDSF0oW0NIM10pW0NIM10=

>  <s_epik_cmdline>  (203) 
J2VwaWtfcHl0aG9uJywgJy1waHQnLCAnMi4wJywgJy1waCcsICc3LjAnLCAnLXRuJywgJzgnLCAnLW1hJywgJzIwMCcsICctaW1hZScsICc8aW5maWxlLm1hZT4nLCAnLW9tYWUnLCAnPG91dGZpbGUubWFlPic=

>  <r_lp_tautomer_probability>  (203) 
1

>  <r_epik_Ionization_Penalty>  (203) 
0

>  <r_epik_Ionization_Penalty_Charging>  (203) 
0

>  <r_epik_Ionization_Penalty_Neutral>  (203) 
0

>  <r_epik_State_Penalty>  (203) 
-0

>  <r_epik_Charging_Adjusted_Penalty>  (203) 
0

>  <i_epik_Tot_Q>  (203) 
0

>  <i_epik_Tot_abs_Q>  (203) 
0

>  <s_epik_Chemistry_Notes>  (203) 
This compound has an imine and may undergo hydrolysis.

>  <s_lp_Force_Field>  (203) 
OPLS3e

>  <r_lp_Energy>  (203) 
76.17

>  <b_lp_Chiralities_Consistent>  (203) 
1

>  <s_lp_Variant>  (203) 
64:0-1

>  <s_i_glide_gridfile>  (203) 
pfpi4k_grid

>  <i_i_glide_lignum>  (203) 
12

>  <i_i_glide_rotatable_bonds>  (203) 
4

>  <r_i_docking_score>  (203) 
-1.83168

>  <r_i_glide_ligand_efficiency>  (203) 
-0.0654172

>  <r_i_glide_ligand_efficiency_sa>  (203) 
-0.198645

>  <r_i_glide_ligand_efficiency_ln>  (203) 
-0.422806

>  <r_i_glide_gscore>  (203) 
-1.83168

>  <r_i_glide_lipo>  (203) 
-0.33917

>  <r_i_glide_hbond>  (203) 
0

>  <r_i_glide_metal>  (203) 
-0

>  <r_i_glide_rewards>  (203) 
-0.670573

>  <r_i_glide_evdw>  (203) 
-21.8727

>  <r_i_glide_ecoul>  (203) 
-0.530121

>  <r_i_glide_erotb>  (203) 
0.364788

>  <r_i_glide_esite>  (203) 
-0.0135726

>  <r_i_glide_emodel>  (203) 
-24.671

>  <r_i_glide_energy>  (203) 
-22.4028

>  <r_i_glide_einternal>  (203) 
0.118985

>  <r_i_glide_intrahb_reward>  (203) 
-0

>  <i_i_glide_confnum>  (203) 
1

>  <i_i_glide_posenum>  (203) 
30

>  <r_i_glide_eff_state_penalty>  (203) 
0

>  <ligand_id>  (203) 
64

>  <original_smiles>  (203) 
CC(C)=CCC12CC3(C)CCC4C(C(C)(C1)C(=NC(=O)C(C)C)SC32)C4(C)C

>  <smiles>  (203) 
[H]C(=C(C([H])([H])[H])C([H])([H])[H])C([H])([H])C12C([H])([H])C3(C([H])([H])[H])C(=NC(=O)C([H])(C([H])([H])[H])C([H])([H])[H])SC1([H])C(C([H])([H])[H])(C([H])([H])C([H])([H])C1([H])C3([H])C1(C([H])([H])[H])C([H])([H])[H])C2([H])[H]

$$$$
65:0:0
     RDKit          3D

 72 77  0  0  1  0  0  0  0  0999 V2000
   -0.9889    0.9391    6.9940 C   0  0  0  0  0  0  0  0  0  0  0  0
   -0.7411    0.2387    5.6416 C   0  0  0  0  0  0  0  0  0  0  0  0
   -1.8857   -0.7743    5.4034 C   0  0  0  0  0  0  0  0  0  0  0  0
   -0.7440    1.3135    4.5181 C   0  0  0  0  0  0  0  0  0  0  0  0
   -0.1643    0.8569    3.1551 C   0  0  1  0  0  0  0  0  0  0  0  0
   -0.3030    1.9242    2.2601 O   0  0  0  0  0  0  0  0  0  0  0  0
    1.2892    0.2701    3.2685 C   0  0  2  0  0  0  0  0  0  0  0  0
    1.7442   -0.2382    1.9703 O   0  0  0  0  0  0  0  0  0  0  0  0
    2.3535   -1.5520    1.7786 C   0  0  2  0  0  0  0  0  0  0  0  0
    1.8780   -2.4853    2.8382 C   0  0  0  0  0  0  0  0  0  0  0  0
    2.1309   -1.9655    4.0348 C   0  0  0  0  0  0  0  0  0  0  0  0
    1.0964   -0.8867    4.2895 C   0  0  1  0  0  0  0  0  0  0  0  0
    0.6374   -0.4760    5.7024 C   0  0  0  0  0  0  0  0  0  0  0  0
    3.6134   -1.6686    4.3534 C   0  0  2  0  0  0  0  0  0  0  0  0
    3.9327   -2.5771    5.5654 C   0  0  0  0  0  0  0  0  0  0  0  0
    3.8219   -0.2227    4.8935 C   0  0  0  0  0  0  0  0  0  0  0  0
    3.6004    0.7760    3.9248 O   0  0  0  0  0  0  0  0  0  0  0  0
    2.3369    1.3208    3.7864 C   0  0  1  0  0  0  0  0  0  0  0  0
    2.4085    2.4287    2.9262 O   0  0  0  0  0  0  0  0  0  0  0  0
    4.5638   -1.9791    3.0672 C   0  0  1  0  0  0  0  0  0  0  0  0
    5.7401   -1.1967    3.2066 O   0  0  0  0  0  0  0  0  0  0  0  0
    5.2293   -3.4061    3.0718 C   0  0  0  0  0  0  0  0  0  0  0  0
    4.4603   -4.5433    2.3916 C   0  0  1  0  0  0  0  0  0  0  0  0
    3.3096   -4.8904    3.1336 O   0  0  0  0  0  0  0  0  0  0  0  0
    4.2795   -4.2254    0.8769 C   0  0  1  0  0  0  0  0  0  0  0  0
    5.3906   -5.0048    0.1180 C   0  0  0  0  0  0  0  0  0  0  0  0
    2.9559   -4.6513    0.2241 C   0  0  0  0  0  0  0  0  0  0  0  0
    2.2842   -5.6409    0.5274 O   0  0  0  0  0  0  0  0  0  0  0  0
    2.5759   -3.7125   -0.9051 C   0  0  0  0  0  0  0  0  0  0  0  0
    3.6960   -2.6641   -0.8884 C   0  0  1  0  0  0  0  0  0  0  0  0
    3.2810   -1.4292   -1.4202 O   0  0  0  0  0  0  0  0  0  0  0  0
    4.3660   -2.6963    0.5261 C   0  0  1  0  0  0  0  0  0  0  0  0
    3.9123   -1.6301    1.6365 C   0  0  1  0  0  0  0  0  0  0  0  0
    4.4231   -0.2559    1.1005 C   0  0  0  0  0  0  0  0  0  0  0  0
   -1.9528    1.4575    7.0086 H   0  0  0  0  0  0  0  0  0  0  0  0
   -0.2155    1.6833    7.2014 H   0  0  0  0  0  0  0  0  0  0  0  0
   -0.9786    0.2244    7.8195 H   0  0  0  0  0  0  0  0  0  0  0  0
   -1.8924   -1.1765    4.3930 H   0  0  0  0  0  0  0  0  0  0  0  0
   -2.8592   -0.3032    5.5509 H   0  0  0  0  0  0  0  0  0  0  0  0
   -1.8195   -1.6217    6.0863 H   0  0  0  0  0  0  0  0  0  0  0  0
   -1.7639    1.6720    4.3677 H   0  0  0  0  0  0  0  0  0  0  0  0
   -0.1820    2.1846    4.8526 H   0  0  0  0  0  0  0  0  0  0  0  0
   -0.8240    0.0935    2.7486 H   0  0  0  0  0  0  0  0  0  0  0  0
   -0.0779    1.6315    1.3863 H   0  0  0  0  0  0  0  0  0  0  0  0
    1.8967   -1.9032    0.8721 H   0  0  0  0  0  0  0  0  0  0  0  0
    0.8555   -2.7032    2.5654 H   0  0  0  0  0  0  0  0  0  0  0  0
    0.1904   -1.4024    3.9760 H   0  0  0  0  0  0  0  0  0  0  0  0
    1.3242    0.2166    6.1706 H   0  0  0  0  0  0  0  0  0  0  0  0
    0.5947   -1.3466    6.3544 H   0  0  0  0  0  0  0  0  0  0  0  0
    4.9732   -2.4917    5.8813 H   0  0  0  0  0  0  0  0  0  0  0  0
    3.7273   -3.6247    5.3506 H   0  0  0  0  0  0  0  0  0  0  0  0
    3.3102   -2.3196    6.4234 H   0  0  0  0  0  0  0  0  0  0  0  0
    3.3002   -0.0228    5.8204 H   0  0  0  0  0  0  0  0  0  0  0  0
    4.8568   -0.0997    5.2064 H   0  0  0  0  0  0  0  0  0  0  0  0
    2.0542    1.7379    4.7466 H   0  0  0  0  0  0  0  0  0  0  0  0
    2.6937    2.1085    2.0847 H   0  0  0  0  0  0  0  0  0  0  0  0
    6.1104   -1.3900    4.0530 H   0  0  0  0  0  0  0  0  0  0  0  0
    6.1591   -3.3463    2.4965 H   0  0  0  0  0  0  0  0  0  0  0  0
    5.5765   -3.7206    4.0596 H   0  0  0  0  0  0  0  0  0  0  0  0
    5.0832   -5.4316    2.4896 H   0  0  0  0  0  0  0  0  0  0  0  0
    2.7245   -4.1518    3.1509 H   0  0  0  0  0  0  0  0  0  0  0  0
    6.3860   -4.6353    0.3626 H   0  0  0  0  0  0  0  0  0  0  0  0
    5.2850   -4.9545   -0.9657 H   0  0  0  0  0  0  0  0  0  0  0  0
    5.3713   -6.0654    0.3668 H   0  0  0  0  0  0  0  0  0  0  0  0
    2.5333   -4.2420   -1.8566 H   0  0  0  0  0  0  0  0  0  0  0  0
    1.5887   -3.2994   -0.7195 H   0  0  0  0  0  0  0  0  0  0  0  0
    4.4449   -3.0012   -1.6059 H   0  0  0  0  0  0  0  0  0  0  0  0
    2.3832   -1.2580   -1.1283 H   0  0  0  0  0  0  0  0  0  0  0  0
    5.4212   -2.4802    0.3503 H   0  0  0  0  0  0  0  0  0  0  0  0
    5.4226   -0.3173    0.6643 H   0  0  0  0  0  0  0  0  0  0  0  0
    4.4953    0.5119    1.8587 H   0  0  0  0  0  0  0  0  0  0  0  0
    3.7643    0.1609    0.3465 H   0  0  0  0  0  0  0  0  0  0  0  0
  1  2  1  0
  1 35  1  0
  1 36  1  0
  1 37  1  0
  2 13  1  0
  2  3  1  0
  2  4  1  0
  3 38  1  0
  3 39  1  0
  3 40  1  0
  4  5  1  0
  4 41  1  0
  4 42  1  0
  5  6  1  0
  5  7  1  0
  5 43  1  6
  6 44  1  0
  7 12  1  0
  7 18  1  0
  7  8  1  6
  8  9  1  0
  9 33  1  0
  9 10  1  0
  9 45  1  6
 10 11  2  0
 10 46  1  0
 11 12  1  0
 11 14  1  0
 12 13  1  0
 12 47  1  6
 13 48  1  0
 13 49  1  0
 14 15  1  1
 14 16  1  0
 14 20  1  0
 15 50  1  0
 15 51  1  0
 15 52  1  0
 16 17  1  0
 16 53  1  0
 16 54  1  0
 17 18  1  0
 18 19  1  0
 18 55  1  1
 19 56  1  0
 20 33  1  0
 20 21  1  1
 20 22  1  0
 21 57  1  0
 22 23  1  0
 22 58  1  0
 22 59  1  0
 23 24  1  0
 23 25  1  0
 23 60  1  6
 24 61  1  0
 25 32  1  0
 25 26  1  6
 25 27  1  0
 26 62  1  0
 26 63  1  0
 26 64  1  0
 27 28  2  0
 27 29  1  0
 29 30  1  0
 29 65  1  0
 29 66  1  0
 30 31  1  0
 30 32  1  0
 30 67  1  6
 31 68  1  0
 32 33  1  0
 32 69  1  6
 33 34  1  6
 34 70  1  0
 34 71  1  0
 34 72  1  0
M  END
>  <i_m_ct_stereo_status>  (204) 
1

>  <s_m_source_file>  (204) 
/var/tmp/pbs.5076255.sched01/tmpbhhv4xqx/80i1gy0gug.sdf

>  <i_m_source_file_index>  (204) 
14

>  <i_lp_mmshare_version>  (204) 
48012

>  <i_f3d_flags>  (204) 
0

>  <s_epik_input>  (204) 
W09IXVtDQEBIXTFbQ0gyXUMoW0NIM10pKFtDSDNdKVtDSDJdW0NAQEhdKFtDQF0xMjMpQzRbQ0BdKFtDSDNdKShbQ0gyXU9bQ0BIXTNbT0hdKVtDQF01KFtPSF0pW0NAXShbQ0gzXSkoW0NASF0oTzIpW0NIXT00KVtDQEhdNltDQEBdKFtDSDNdKShbQ0BASF0oW0NIMl01KVtPSF0pQyg9TylbQ0gyXVtDQEhdNltPSF0=

>  <s_epik_cmdline>  (204) 
J2VwaWtfcHl0aG9uJywgJy1waHQnLCAnMi4wJywgJy1waCcsICc3LjAnLCAnLXRuJywgJzgnLCAnLW1hJywgJzIwMCcsICctaW1hZScsICc8aW5maWxlLm1hZT4nLCAnLW9tYWUnLCAnPG91dGZpbGUubWFlPic=

>  <r_lp_tautomer_probability>  (204) 
1

>  <r_epik_Ionization_Penalty>  (204) 
6.96685e-07

>  <r_epik_Ionization_Penalty_Charging>  (204) 
0

>  <r_epik_Ionization_Penalty_Neutral>  (204) 
6.96685e-07

>  <r_epik_State_Penalty>  (204) 
-0

>  <r_epik_Charging_Adjusted_Penalty>  (204) 
0

>  <i_epik_Tot_Q>  (204) 
0

>  <i_epik_Tot_abs_Q>  (204) 
0

>  <s_epik_Chemistry_Notes>  (204) 
This compound contains an acetal/aminal-like group ( X-CH(R)-Y where X, Y are N, S, or O) that may be acid/base labile, releasing an aldehyde.

>  <s_lp_Force_Field>  (204) 
OPLS3e

>  <r_lp_Energy>  (204) 
154.17

>  <b_lp_Chiralities_Consistent>  (204) 
1

>  <s_lp_Variant>  (204) 
65:0-1

>  <s_i_glide_gridfile>  (204) 
pfpi4k_grid

>  <i_i_glide_lignum>  (204) 
14

>  <i_i_glide_rotatable_bonds>  (204) 
5

>  <r_i_docking_score>  (204) 
-2.83597

>  <r_i_glide_ligand_efficiency>  (204) 
-0.0834108

>  <r_i_glide_ligand_efficiency_sa>  (204) 
-0.270219

>  <r_i_glide_ligand_efficiency_ln>  (204) 
-0.626545

>  <r_i_glide_gscore>  (204) 
-2.83597

>  <r_i_glide_lipo>  (204) 
-0.294924

>  <r_i_glide_hbond>  (204) 
-0.16

>  <r_i_glide_metal>  (204) 
-0

>  <r_i_glide_rewards>  (204) 
-0.146079

>  <r_i_glide_evdw>  (204) 
-27.852

>  <r_i_glide_ecoul>  (204) 
-5.37654

>  <r_i_glide_erotb>  (204) 
0

>  <r_i_glide_esite>  (204) 
-0.0358839

>  <r_i_glide_emodel>  (204) 
-38.8626

>  <r_i_glide_energy>  (204) 
-33.2285

>  <r_i_glide_einternal>  (204) 
0.967034

>  <r_i_glide_intrahb_reward>  (204) 
-0

>  <i_i_glide_confnum>  (204) 
2

>  <i_i_glide_posenum>  (204) 
17

>  <r_i_glide_eff_state_penalty>  (204) 
0

>  <ligand_id>  (204) 
65

>  <original_smiles>  (204) 
CC1(C)CC(O)C23OC4C=C(C2C1)C(C)(COC3O)C1(O)CC(O)C2(C)C(=O)CC(O)C2C41C

>  <smiles>  (204) 
[H]OC1([H])OC([H])([H])C2(C([H])([H])[H])C3=C([H])C([H])(OC14C([H])(O[H])C([H])([H])C(C([H])([H])[H])(C([H])([H])[H])C([H])([H])C34[H])C1(C([H])([H])[H])C3([H])C([H])(O[H])C([H])([H])C(=O)C3(C([H])([H])[H])C([H])(O[H])C([H])([H])C21O[H]

$$$$
65:0:1
     RDKit          3D

 72 77  0  0  1  0  0  0  0  0999 V2000
   -1.2654    2.4755    6.0700 C   0  0  0  0  0  0  0  0  0  0  0  0
   -0.6123    1.9127    4.7878 C   0  0  0  0  0  0  0  0  0  0  0  0
   -1.7518    1.6248    3.7888 C   0  0  0  0  0  0  0  0  0  0  0  0
    0.3574    2.9759    4.1908 C   0  0  0  0  0  0  0  0  0  0  0  0
    1.3451    2.4563    3.1068 C   0  0  1  0  0  0  0  0  0  0  0  0
    2.1087    3.5504    2.6381 O   0  0  0  0  0  0  0  0  0  0  0  0
    2.1750    1.2170    3.5965 C   0  0  2  0  0  0  0  0  0  0  0  0
    3.0274    0.7030    2.5139 O   0  0  0  0  0  0  0  0  0  0  0  0
    3.1196   -0.7070    2.1518 C   0  0  2  0  0  0  0  0  0  0  0  0
    1.8626   -1.4087    2.5340 C   0  0  0  0  0  0  0  0  0  0  0  0
    1.6297   -1.2187    3.8363 C   0  0  0  0  0  0  0  0  0  0  0  0
    1.0872    0.1870    3.9948 C   0  0  1  0  0  0  0  0  0  0  0  0
    0.1567    0.6124    5.1538 C   0  0  0  0  0  0  0  0  0  0  0  0
    2.7198   -1.7108    4.8165 C   0  0  2  0  0  0  0  0  0  0  0  0
    2.0133   -2.7875    5.6785 C   0  0  0  0  0  0  0  0  0  0  0  0
    3.1361   -0.6154    5.8449 C   0  0  0  0  0  0  0  0  0  0  0  0
    3.8200    0.4653    5.2523 O   0  0  0  0  0  0  0  0  0  0  0  0
    3.0878    1.5615    4.8262 C   0  0  1  0  0  0  0  0  0  0  0  0
    3.9558    2.6136    4.4960 O   0  0  0  0  0  0  0  0  0  0  0  0
    4.0058   -2.3031    4.0184 C   0  0  1  0  0  0  0  0  0  0  0  0
    5.1235   -2.2455    4.8992 O   0  0  0  0  0  0  0  0  0  0  0  0
    4.0030   -3.8651    3.8182 C   0  0  0  0  0  0  0  0  0  0  0  0
    3.3473   -4.4008    2.5392 C   0  0  1  0  0  0  0  0  0  0  0  0
    1.9437   -4.2336    2.5923 O   0  0  0  0  0  0  0  0  0  0  0  0
    4.1043   -3.8648    1.2861 C   0  0  1  0  0  0  0  0  0  0  0  0
    5.0754   -4.9906    0.8375 C   0  0  0  0  0  0  0  0  0  0  0  0
    3.2594   -3.5399    0.0479 C   0  0  0  0  0  0  0  0  0  0  0  0
    2.2514   -4.1498   -0.3013 O   0  0  0  0  0  0  0  0  0  0  0  0
    3.8742   -2.4130   -0.7594 C   0  0  0  0  0  0  0  0  0  0  0  0
    5.1134   -2.0170    0.0689 C   0  0  1  0  0  0  0  0  0  0  0  0
    5.4795   -0.6662   -0.1375 O   0  0  0  0  0  0  0  0  0  0  0  0
    4.9070   -2.5348    1.5374 C   0  0  1  0  0  0  0  0  0  0  0  0
    4.3683   -1.5190    2.6572 C   0  0  1  0  0  0  0  0  0  0  0  0
    5.5409   -0.5121    2.8757 C   0  0  0  0  0  0  0  0  0  0  0  0
   -1.8292    3.3841    5.8629 H   0  0  0  0  0  0  0  0  0  0  0  0
   -0.5076    2.7208    6.8178 H   0  0  0  0  0  0  0  0  0  0  0  0
   -1.9484    1.7539    6.5164 H   0  0  0  0  0  0  0  0  0  0  0  0
   -1.3938    1.3755    2.7898 H   0  0  0  0  0  0  0  0  0  0  0  0
   -2.4244    2.4770    3.6739 H   0  0  0  0  0  0  0  0  0  0  0  0
   -2.3427    0.7787    4.1412 H   0  0  0  0  0  0  0  0  0  0  0  0
   -0.2319    3.7895    3.7692 H   0  0  0  0  0  0  0  0  0  0  0  0
    0.9310    3.4242    5.0003 H   0  0  0  0  0  0  0  0  0  0  0  0
    0.7714    2.1491    2.2337 H   0  0  0  0  0  0  0  0  0  0  0  0
    1.5721    4.0252    2.0092 H   0  0  0  0  0  0  0  0  0  0  0  0
    3.1312   -0.6696    1.0708 H   0  0  0  0  0  0  0  0  0  0  0  0
    1.1330   -1.0750    1.8069 H   0  0  0  0  0  0  0  0  0  0  0  0
    0.3592    0.2161    3.1870 H   0  0  0  0  0  0  0  0  0  0  0  0
    0.6972    0.8202    6.0688 H   0  0  0  0  0  0  0  0  0  0  0  0
   -0.5338   -0.1916    5.3943 H   0  0  0  0  0  0  0  0  0  0  0  0
    2.6865   -3.2522    6.3996 H   0  0  0  0  0  0  0  0  0  0  0  0
    1.5811   -3.5775    5.0624 H   0  0  0  0  0  0  0  0  0  0  0  0
    1.1810   -2.3584    6.2394 H   0  0  0  0  0  0  0  0  0  0  0  0
    2.3271   -0.2962    6.4904 H   0  0  0  0  0  0  0  0  0  0  0  0
    3.8193   -1.0428    6.5736 H   0  0  0  0  0  0  0  0  0  0  0  0
    2.5293    1.9286    5.6792 H   0  0  0  0  0  0  0  0  0  0  0  0
    4.2453    2.4744    3.5989 H   0  0  0  0  0  0  0  0  0  0  0  0
    4.9089   -2.7263    5.6779 H   0  0  0  0  0  0  0  0  0  0  0  0
    5.0394   -4.2028    3.7321 H   0  0  0  0  0  0  0  0  0  0  0  0
    3.6468   -4.4148    4.6915 H   0  0  0  0  0  0  0  0  0  0  0  0
    3.4602   -5.4846    2.5789 H   0  0  0  0  0  0  0  0  0  0  0  0
    1.7491   -3.3119    2.5531 H   0  0  0  0  0  0  0  0  0  0  0  0
    5.8524   -5.1783    1.5767 H   0  0  0  0  0  0  0  0  0  0  0  0
    5.5712   -4.7749   -0.1084 H   0  0  0  0  0  0  0  0  0  0  0  0
    4.5424   -5.9298    0.6811 H   0  0  0  0  0  0  0  0  0  0  0  0
    4.1480   -2.7564   -1.7549 H   0  0  0  0  0  0  0  0  0  0  0  0
    3.1521   -1.6069   -0.8689 H   0  0  0  0  0  0  0  0  0  0  0  0
    5.9532   -2.5790   -0.3472 H   0  0  0  0  0  0  0  0  0  0  0  0
    4.7490   -0.1114    0.0853 H   0  0  0  0  0  0  0  0  0  0  0  0
    5.8953   -2.8330    1.8864 H   0  0  0  0  0  0  0  0  0  0  0  0
    6.5182   -0.9945    2.8759 H   0  0  0  0  0  0  0  0  0  0  0  0
    5.5010    0.0339    3.8113 H   0  0  0  0  0  0  0  0  0  0  0  0
    5.5649    0.2464    2.1042 H   0  0  0  0  0  0  0  0  0  0  0  0
  1  2  1  0
  1 35  1  0
  1 36  1  0
  1 37  1  0
  2 13  1  0
  2  3  1  0
  2  4  1  0
  3 38  1  0
  3 39  1  0
  3 40  1  0
  4  5  1  0
  4 41  1  0
  4 42  1  0
  5  6  1  0
  5  7  1  0
  5 43  1  6
  6 44  1  0
  7 12  1  0
  7 18  1  0
  7  8  1  6
  8  9  1  0
  9 33  1  0
  9 10  1  0
  9 45  1  6
 10 11  2  0
 10 46  1  0
 11 12  1  0
 11 14  1  0
 12 13  1  0
 12 47  1  6
 13 48  1  0
 13 49  1  0
 14 15  1  1
 14 16  1  0
 14 20  1  0
 15 50  1  0
 15 51  1  0
 15 52  1  0
 16 17  1  0
 16 53  1  0
 16 54  1  0
 17 18  1  0
 18 19  1  0
 18 55  1  1
 19 56  1  0
 20 33  1  0
 20 21  1  1
 20 22  1  0
 21 57  1  0
 22 23  1  0
 22 58  1  0
 22 59  1  0
 23 24  1  0
 23 25  1  0
 23 60  1  1
 24 61  1  0
 25 32  1  0
 25 26  1  6
 25 27  1  0
 26 62  1  0
 26 63  1  0
 26 64  1  0
 27 28  2  0
 27 29  1  0
 29 30  1  0
 29 65  1  0
 29 66  1  0
 30 31  1  0
 30 32  1  0
 30 67  1  6
 31 68  1  0
 32 33  1  0
 32 69  1  1
 33 34  1  1
 34 70  1  0
 34 71  1  0
 34 72  1  0
M  END
>  <i_m_ct_stereo_status>  (205) 
1

>  <s_m_source_file>  (205) 
/var/tmp/pbs.5076255.sched01/tmpbhhv4xqx/80i1gy0gug.sdf

>  <i_m_source_file_index>  (205) 
14

>  <i_lp_mmshare_version>  (205) 
48012

>  <i_f3d_flags>  (205) 
0

>  <s_epik_input>  (205) 
W09IXVtDQEBIXTFbQ0gyXUMoW0NIM10pKFtDSDNdKVtDSDJdW0NAQEhdKFtDQF0xMjMpQzRbQ0BdKFtDSDNdKShbQ0gyXU9bQ0BIXTNbT0hdKVtDQF01KFtPSF0pW0NAXShbQ0gzXSkoW0NASF0oTzIpW0NIXT00KVtDQEhdNltDQEBdKFtDSDNdKShbQ0BASF0oW0NIMl01KVtPSF0pQyg9TylbQ0gyXVtDQEhdNltPSF0=

>  <s_epik_cmdline>  (205) 
J2VwaWtfcHl0aG9uJywgJy1waHQnLCAnMi4wJywgJy1waCcsICc3LjAnLCAnLXRuJywgJzgnLCAnLW1hJywgJzIwMCcsICctaW1hZScsICc8aW5maWxlLm1hZT4nLCAnLW9tYWUnLCAnPG91dGZpbGUubWFlPic=

>  <r_lp_tautomer_probability>  (205) 
1

>  <r_epik_Ionization_Penalty>  (205) 
6.96685e-07

>  <r_epik_Ionization_Penalty_Charging>  (205) 
0

>  <r_epik_Ionization_Penalty_Neutral>  (205) 
6.96685e-07

>  <r_epik_State_Penalty>  (205) 
-0

>  <r_epik_Charging_Adjusted_Penalty>  (205) 
0

>  <i_epik_Tot_Q>  (205) 
0

>  <i_epik_Tot_abs_Q>  (205) 
0

>  <s_epik_Chemistry_Notes>  (205) 
This compound contains an acetal/aminal-like group ( X-CH(R)-Y where X, Y are N, S, or O) that may be acid/base labile, releasing an aldehyde.

>  <s_lp_Force_Field>  (205) 
OPLS3e

>  <r_lp_Energy>  (205) 
154.17

>  <b_lp_Chiralities_Consistent>  (205) 
1

>  <s_lp_Variant>  (205) 
65:0-1

>  <s_i_glide_gridfile>  (205) 
pfpi4k_grid

>  <i_i_glide_lignum>  (205) 
14

>  <i_i_glide_rotatable_bonds>  (205) 
5

>  <r_i_docking_score>  (205) 
-2.70738

>  <r_i_glide_ligand_efficiency>  (205) 
-0.0796289

>  <r_i_glide_ligand_efficiency_sa>  (205) 
-0.257967

>  <r_i_glide_ligand_efficiency_ln>  (205) 
-0.598137

>  <r_i_glide_gscore>  (205) 
-2.70738

>  <r_i_glide_lipo>  (205) 
-0.261125

>  <r_i_glide_hbond>  (205) 
0

>  <r_i_glide_metal>  (205) 
-0

>  <r_i_glide_rewards>  (205) 
-0.146079

>  <r_i_glide_evdw>  (205) 
-26.6831

>  <r_i_glide_ecoul>  (205) 
-6.41626

>  <r_i_glide_erotb>  (205) 
0

>  <r_i_glide_esite>  (205) 
-0.00358234

>  <r_i_glide_emodel>  (205) 
-38.3161

>  <r_i_glide_energy>  (205) 
-33.0994

>  <r_i_glide_einternal>  (205) 
1.03478

>  <r_i_glide_intrahb_reward>  (205) 
-0

>  <i_i_glide_confnum>  (205) 
1

>  <i_i_glide_posenum>  (205) 
37

>  <r_i_glide_eff_state_penalty>  (205) 
0

>  <ligand_id>  (205) 
65

>  <original_smiles>  (205) 
CC1(C)CC(O)C23OC4C=C(C2C1)C(C)(COC3O)C1(O)CC(O)C2(C)C(=O)CC(O)C2C41C

>  <smiles>  (205) 
[H]OC1([H])OC([H])([H])C2(C([H])([H])[H])C3=C([H])C([H])(OC14C([H])(O[H])C([H])([H])C(C([H])([H])[H])(C([H])([H])[H])C([H])([H])C34[H])C1(C([H])([H])[H])C3([H])C([H])(O[H])C([H])([H])C(=O)C3(C([H])([H])[H])C([H])(O[H])C([H])([H])C21O[H]

$$$$
65:0:2
     RDKit          3D

 72 77  0  0  1  0  0  0  0  0999 V2000
   -1.2127    2.3494    6.0908 C   0  0  0  0  0  0  0  0  0  0  0  0
   -0.5783    1.7949    4.7982 C   0  0  0  0  0  0  0  0  0  0  0  0
   -1.7249    1.5391    3.8020 C   0  0  0  0  0  0  0  0  0  0  0  0
    0.4067    2.8521    4.2116 C   0  0  0  0  0  0  0  0  0  0  0  0
    1.3834    2.3331    3.1176 C   0  0  1  0  0  0  0  0  0  0  0  0
    2.1606    3.4227    2.6641 O   0  0  0  0  0  0  0  0  0  0  0  0
    2.1979    1.0745    3.5872 C   0  0  2  0  0  0  0  0  0  0  0  0
    3.0365    0.5659    2.4902 O   0  0  0  0  0  0  0  0  0  0  0  0
    3.1053   -0.8399    2.1023 C   0  0  2  0  0  0  0  0  0  0  0  0
    1.8392   -1.5282    2.4785 C   0  0  0  0  0  0  0  0  0  0  0  0
    1.6116   -1.3556    3.7839 C   0  0  0  0  0  0  0  0  0  0  0  0
    1.0917    0.0570    3.9696 C   0  0  1  0  0  0  0  0  0  0  0  0
    0.1738    0.4767    5.1392 C   0  0  0  0  0  0  0  0  0  0  0  0
    2.6944   -1.8826    4.7579 C   0  0  2  0  0  0  0  0  0  0  0  0
    1.9763   -2.9604    5.6005 C   0  0  0  0  0  0  0  0  0  0  0  0
    3.1335   -0.8097    5.7993 C   0  0  0  0  0  0  0  0  0  0  0  0
    3.8321    0.2672    5.2209 O   0  0  0  0  0  0  0  0  0  0  0  0
    3.1245    1.3833    4.8148 C   0  0  1  0  0  0  0  0  0  0  0  0
    4.0094    2.4156    4.5068 O   0  0  0  0  0  0  0  0  0  0  0  0
    3.9737   -2.4760    3.9483 C   0  0  1  0  0  0  0  0  0  0  0  0
    5.0795   -2.4517    4.8430 O   0  0  0  0  0  0  0  0  0  0  0  0
    3.9467   -4.0344    3.7205 C   0  0  0  0  0  0  0  0  0  0  0  0
    3.2776   -4.5399    2.4382 C   0  0  1  0  0  0  0  0  0  0  0  0
    1.8769   -4.3584    2.4911 O   0  0  0  0  0  0  0  0  0  0  0  0
    4.0458   -3.9952    1.1944 C   0  0  1  0  0  0  0  0  0  0  0  0
    4.9881   -5.1346    0.7174 C   0  0  0  0  0  0  0  0  0  0  0  0
    3.2069   -3.6466   -0.0389 C   0  0  0  0  0  0  0  0  0  0  0  0
    2.2101   -4.2634   -0.3987 O   0  0  0  0  0  0  0  0  0  0  0  0
    3.8228   -2.5089   -0.8320 C   0  0  0  0  0  0  0  0  0  0  0  0
    5.0697   -2.1442   -0.0065 C   0  0  1  0  0  0  0  0  0  0  0  0
    5.4539   -0.7983   -0.1917 O   0  0  0  0  0  0  0  0  0  0  0  0
    4.8646   -2.6807    1.4547 C   0  0  1  0  0  0  0  0  0  0  0  0
    4.3458   -1.6737    2.5927 C   0  0  1  0  0  0  0  0  0  0  0  0
    5.5279   -0.6741    2.8181 C   0  0  0  0  0  0  0  0  0  0  0  0
   -1.7656    3.2710    5.8992 H   0  0  0  0  0  0  0  0  0  0  0  0
   -0.4510    2.5709    6.8399 H   0  0  0  0  0  0  0  0  0  0  0  0
   -1.9100    1.6325    6.5284 H   0  0  0  0  0  0  0  0  0  0  0  0
   -1.3790    1.2970    2.7970 H   0  0  0  0  0  0  0  0  0  0  0  0
   -2.3856    2.4031    3.7077 H   0  0  0  0  0  0  0  0  0  0  0  0
   -2.3263    0.7005    4.1475 H   0  0  0  0  0  0  0  0  0  0  0  0
   -0.1729    3.6808    3.8041 H   0  0  0  0  0  0  0  0  0  0  0  0
    0.9915    3.2792    5.0254 H   0  0  0  0  0  0  0  0  0  0  0  0
    0.7999    2.0487    2.2411 H   0  0  0  0  0  0  0  0  0  0  0  0
    1.6261    3.9195    2.0494 H   0  0  0  0  0  0  0  0  0  0  0  0
    3.1062   -0.7875    1.0227 H   0  0  0  0  0  0  0  0  0  0  0  0
    1.1078   -1.1730    1.7628 H   0  0  0  0  0  0  0  0  0  0  0  0
    0.3620    0.1097    3.1649 H   0  0  0  0  0  0  0  0  0  0  0  0
    0.7202    0.6599    6.0559 H   0  0  0  0  0  0  0  0  0  0  0  0
   -0.5303   -0.3199    5.3672 H   0  0  0  0  0  0  0  0  0  0  0  0
    2.6510   -3.4416    6.3099 H   0  0  0  0  0  0  0  0  0  0  0  0
    1.5310   -3.7332    4.9765 H   0  0  0  0  0  0  0  0  0  0  0  0
    1.1585   -2.5244    6.1722 H   0  0  0  0  0  0  0  0  0  0  0  0
    2.3303   -0.4900    6.4522 H   0  0  0  0  0  0  0  0  0  0  0  0
    3.8100   -1.2608    6.5207 H   0  0  0  0  0  0  0  0  0  0  0  0
    2.5707    1.7423    5.6793 H   0  0  0  0  0  0  0  0  0  0  0  0
    4.2842    2.2997    3.6006 H   0  0  0  0  0  0  0  0  0  0  0  0
    5.8079   -2.8787    4.4226 H   0  0  0  0  0  0  0  0  0  0  0  0
    4.9741   -4.3921    3.6275 H   0  0  0  0  0  0  0  0  0  0  0  0
    3.5819   -4.5886    4.5857 H   0  0  0  0  0  0  0  0  0  0  0  0
    3.3689   -5.6257    2.4541 H   0  0  0  0  0  0  0  0  0  0  0  0
    1.6907   -3.4285    2.5020 H   0  0  0  0  0  0  0  0  0  0  0  0
    5.7643   -5.3503    1.4499 H   0  0  0  0  0  0  0  0  0  0  0  0
    5.4808   -4.9135   -0.2290 H   0  0  0  0  0  0  0  0  0  0  0  0
    4.4336   -6.0589    0.5490 H   0  0  0  0  0  0  0  0  0  0  0  0
    4.0833   -2.8426   -1.8370 H   0  0  0  0  0  0  0  0  0  0  0  0
    3.1058   -1.6932   -0.9285 H   0  0  0  0  0  0  0  0  0  0  0  0
    5.8970   -2.7113   -0.4396 H   0  0  0  0  0  0  0  0  0  0  0  0
    4.7345   -0.2385    0.0676 H   0  0  0  0  0  0  0  0  0  0  0  0
    5.8528   -3.0014    1.7927 H   0  0  0  0  0  0  0  0  0  0  0  0
    6.4991   -1.1696    2.7979 H   0  0  0  0  0  0  0  0  0  0  0  0
    5.4994   -0.1538    3.7674 H   0  0  0  0  0  0  0  0  0  0  0  0
    5.5618    0.1116    2.0678 H   0  0  0  0  0  0  0  0  0  0  0  0
  1  2  1  0
  1 35  1  0
  1 36  1  0
  1 37  1  0
  2 13  1  0
  2  3  1  0
  2  4  1  0
  3 38  1  0
  3 39  1  0
  3 40  1  0
  4  5  1  0
  4 41  1  0
  4 42  1  0
  5  6  1  0
  5  7  1  0
  5 43  1  6
  6 44  1  0
  7 12  1  0
  7 18  1  0
  7  8  1  6
  8  9  1  0
  9 33  1  0
  9 10  1  0
  9 45  1  6
 10 11  2  0
 10 46  1  0
 11 12  1  0
 11 14  1  0
 12 13  1  0
 12 47  1  6
 13 48  1  0
 13 49  1  0
 14 15  1  1
 14 16  1  0
 14 20  1  0
 15 50  1  0
 15 51  1  0
 15 52  1  0
 16 17  1  0
 16 53  1  0
 16 54  1  0
 17 18  1  0
 18 19  1  0
 18 55  1  1
 19 56  1  0
 20 33  1  0
 20 21  1  1
 20 22  1  0
 21 57  1  0
 22 23  1  0
 22 58  1  0
 22 59  1  0
 23 24  1  0
 23 25  1  0
 23 60  1  1
 24 61  1  0
 25 32  1  0
 25 26  1  6
 25 27  1  0
 26 62  1  0
 26 63  1  0
 26 64  1  0
 27 28  2  0
 27 29  1  0
 29 30  1  0
 29 65  1  0
 29 66  1  0
 30 31  1  0
 30 32  1  0
 30 67  1  6
 31 68  1  0
 32 33  1  0
 32 69  1  1
 33 34  1  1
 34 70  1  0
 34 71  1  0
 34 72  1  0
M  END
>  <i_m_ct_stereo_status>  (206) 
1

>  <s_m_source_file>  (206) 
/var/tmp/pbs.5076255.sched01/tmpbhhv4xqx/80i1gy0gug.sdf

>  <i_m_source_file_index>  (206) 
14

>  <i_lp_mmshare_version>  (206) 
48012

>  <i_f3d_flags>  (206) 
0

>  <s_epik_input>  (206) 
W09IXVtDQEBIXTFbQ0gyXUMoW0NIM10pKFtDSDNdKVtDSDJdW0NAQEhdKFtDQF0xMjMpQzRbQ0BdKFtDSDNdKShbQ0gyXU9bQ0BIXTNbT0hdKVtDQF01KFtPSF0pW0NAXShbQ0gzXSkoW0NASF0oTzIpW0NIXT00KVtDQEhdNltDQEBdKFtDSDNdKShbQ0BASF0oW0NIMl01KVtPSF0pQyg9TylbQ0gyXVtDQEhdNltPSF0=

>  <s_epik_cmdline>  (206) 
J2VwaWtfcHl0aG9uJywgJy1waHQnLCAnMi4wJywgJy1waCcsICc3LjAnLCAnLXRuJywgJzgnLCAnLW1hJywgJzIwMCcsICctaW1hZScsICc8aW5maWxlLm1hZT4nLCAnLW9tYWUnLCAnPG91dGZpbGUubWFlPic=

>  <r_lp_tautomer_probability>  (206) 
1

>  <r_epik_Ionization_Penalty>  (206) 
6.96685e-07

>  <r_epik_Ionization_Penalty_Charging>  (206) 
0

>  <r_epik_Ionization_Penalty_Neutral>  (206) 
6.96685e-07

>  <r_epik_State_Penalty>  (206) 
-0

>  <r_epik_Charging_Adjusted_Penalty>  (206) 
0

>  <i_epik_Tot_Q>  (206) 
0

>  <i_epik_Tot_abs_Q>  (206) 
0

>  <s_epik_Chemistry_Notes>  (206) 
This compound contains an acetal/aminal-like group ( X-CH(R)-Y where X, Y are N, S, or O) that may be acid/base labile, releasing an aldehyde.

>  <s_lp_Force_Field>  (206) 
OPLS3e

>  <r_lp_Energy>  (206) 
154.17

>  <b_lp_Chiralities_Consistent>  (206) 
1

>  <s_lp_Variant>  (206) 
65:0-1

>  <s_i_glide_gridfile>  (206) 
pfpi4k_grid

>  <i_i_glide_lignum>  (206) 
14

>  <i_i_glide_rotatable_bonds>  (206) 
5

>  <r_i_docking_score>  (206) 
-2.65422

>  <r_i_glide_ligand_efficiency>  (206) 
-0.0780654

>  <r_i_glide_ligand_efficiency_sa>  (206) 
-0.252901

>  <r_i_glide_ligand_efficiency_ln>  (206) 
-0.586392

>  <r_i_glide_gscore>  (206) 
-2.65422

>  <r_i_glide_lipo>  (206) 
-0.239724

>  <r_i_glide_hbond>  (206) 
0

>  <r_i_glide_metal>  (206) 
-0

>  <r_i_glide_rewards>  (206) 
-0.146079

>  <r_i_glide_evdw>  (206) 
-27.2989

>  <r_i_glide_ecoul>  (206) 
-5.98615

>  <r_i_glide_erotb>  (206) 
0

>  <r_i_glide_esite>  (206) 
-0.0055505

>  <r_i_glide_emodel>  (206) 
-38.3738

>  <r_i_glide_energy>  (206) 
-33.2851

>  <r_i_glide_einternal>  (206) 
1.02389

>  <r_i_glide_intrahb_reward>  (206) 
-0

>  <i_i_glide_confnum>  (206) 
1

>  <i_i_glide_posenum>  (206) 
1

>  <r_i_glide_eff_state_penalty>  (206) 
0

>  <ligand_id>  (206) 
65

>  <original_smiles>  (206) 
CC1(C)CC(O)C23OC4C=C(C2C1)C(C)(COC3O)C1(O)CC(O)C2(C)C(=O)CC(O)C2C41C

>  <smiles>  (206) 
[H]OC1([H])OC([H])([H])C2(C([H])([H])[H])C3=C([H])C([H])(OC14C([H])(O[H])C([H])([H])C(C([H])([H])[H])(C([H])([H])[H])C([H])([H])C34[H])C1(C([H])([H])[H])C3([H])C([H])(O[H])C([H])([H])C(=O)C3(C([H])([H])[H])C([H])(O[H])C([H])([H])C21O[H]

$$$$
66:0:0
     RDKit          3D

 52 56  0  0  1  0  0  0  0  0999 V2000
    2.6763   -6.4314    1.6760 C   0  0  0  0  0  0  0  0  0  0  0  0
    3.7418   -5.5452    1.4079 O   0  0  0  0  0  0  0  0  0  0  0  0
    3.5566   -4.6844    0.2914 C   0  0  0  0  0  0  0  0  0  0  0  0
    4.7161   -3.6434    0.1694 C   0  0  2  0  0  0  0  0  0  0  0  0
    6.0844   -4.3528    0.3372 C   0  0  0  0  0  0  0  0  0  0  0  0
    7.0111   -3.2012    0.6228 C   0  0  1  0  0  0  0  0  0  0  0  0
    7.1344   -2.1788   -0.4928 C   0  0  2  0  0  0  0  0  0  0  0  0
    6.9182   -1.0988    0.5542 C   0  0  0  0  0  0  0  0  0  0  0  0
    6.2375   -2.1591    1.4131 C   0  0  1  0  0  0  0  0  0  0  0  0
    4.7631   -2.5824    1.3536 C   0  0  2  0  0  0  0  0  0  0  0  0
    4.4412   -3.2030    2.7422 C   0  0  0  0  0  0  0  0  0  0  0  0
    3.7568   -1.4198    1.1897 C   0  0  1  0  0  0  0  0  0  0  0  0
    4.0461   -0.3713    2.0995 O   0  0  0  0  0  0  0  0  0  0  0  0
    3.6147   -0.8077   -0.1993 C   0  0  0  0  0  0  0  0  0  0  0  0
    3.5859   -1.8366   -1.3566 C   0  0  1  0  0  0  0  0  0  0  0  0
    3.4919   -1.1663   -2.6854 N   0  0  0  0  0  0  0  0  0  0  0  0
    4.2204   -0.1081   -3.1237 C   0  0  0  0  0  0  0  0  0  0  0  0
    3.8096    0.2476   -4.3638 C   0  0  0  0  0  0  0  0  0  0  0  0
    2.8547   -0.6624   -4.6925 N   0  0  0  0  0  0  0  0  0  0  0  0
    2.6719   -1.5329   -3.6768 C   0  0  0  0  0  0  0  0  0  0  0  0
    4.7384   -2.9064   -1.2609 C   0  0  2  0  0  0  0  0  0  0  0  0
    4.4422   -3.8721   -2.4237 C   0  0  0  0  0  0  0  0  0  0  0  0
    6.1723   -2.3784   -1.6495 C   0  0  0  0  0  0  0  0  0  0  0  0
    2.8916   -6.9730    2.5984 H   0  0  0  0  0  0  0  0  0  0  0  0
    2.5786   -7.1674    0.8803 H   0  0  0  0  0  0  0  0  0  0  0  0
    1.7318   -5.9010    1.8085 H   0  0  0  0  0  0  0  0  0  0  0  0
    3.5662   -5.3764   -0.5473 H   0  0  0  0  0  0  0  0  0  0  0  0
    2.5916   -4.1709    0.3337 H   0  0  0  0  0  0  0  0  0  0  0  0
    6.1139   -5.0572    1.1655 H   0  0  0  0  0  0  0  0  0  0  0  0
    6.3487   -4.9160   -0.5473 H   0  0  0  0  0  0  0  0  0  0  0  0
    7.9860   -3.4272    1.0608 H   0  0  0  0  0  0  0  0  0  0  0  0
    8.1728   -2.1180   -0.8029 H   0  0  0  0  0  0  0  0  0  0  0  0
    7.8714   -0.7714    0.9841 H   0  0  0  0  0  0  0  0  0  0  0  0
    6.3028   -0.2559    0.2643 H   0  0  0  0  0  0  0  0  0  0  0  0
    6.6187   -2.0706    2.4172 H   0  0  0  0  0  0  0  0  0  0  0  0
    4.5937   -2.5071    3.5696 H   0  0  0  0  0  0  0  0  0  0  0  0
    5.0679   -4.0666    2.9616 H   0  0  0  0  0  0  0  0  0  0  0  0
    3.3989   -3.5169    2.8108 H   0  0  0  0  0  0  0  0  0  0  0  0
    2.7701   -1.7960    1.4506 H   0  0  0  0  0  0  0  0  0  0  0  0
    4.9342   -0.0809    1.9572 H   0  0  0  0  0  0  0  0  0  0  0  0
    2.6871   -0.2694   -0.1587 H   0  0  0  0  0  0  0  0  0  0  0  0
    4.3877   -0.0661   -0.3585 H   0  0  0  0  0  0  0  0  0  0  0  0
    2.6392   -2.3691   -1.2331 H   0  0  0  0  0  0  0  0  0  0  0  0
    4.9740    0.3014   -2.4909 H   0  0  0  0  0  0  0  0  0  0  0  0
    4.1094    1.0645   -5.0018 H   0  0  0  0  0  0  0  0  0  0  0  0
    1.9562   -2.3354   -3.6564 H   0  0  0  0  0  0  0  0  0  0  0  0
    4.6349   -3.4399   -3.4052 H   0  0  0  0  0  0  0  0  0  0  0  0
    3.3941   -4.1373   -2.4179 H   0  0  0  0  0  0  0  0  0  0  0  0
    5.0277   -4.7864   -2.3650 H   0  0  0  0  0  0  0  0  0  0  0  0
    6.1365   -1.4742   -2.2294 H   0  0  0  0  0  0  0  0  0  0  0  0
    6.6445   -3.0948   -2.3329 H   0  0  0  0  0  0  0  0  0  0  0  0
    2.3176   -0.6904   -5.5461 H   0  0  0  0  0  0  0  0  0  0  0  0
  1  2  1  0
  1 24  1  0
  1 25  1  0
  1 26  1  0
  2  3  1  0
  4  3  1  1
  3 27  1  0
  3 28  1  0
  4 10  1  0
  4 21  1  0
  4  5  1  0
  5  6  1  0
  5 29  1  0
  5 30  1  0
  6  9  1  0
  6  7  1  0
  6 31  1  1
  7 23  1  0
  7  8  1  0
  7 32  1  6
  8  9  1  0
  8 33  1  0
  8 34  1  0
  9 10  1  0
  9 35  1  1
 10 11  1  1
 10 12  1  0
 11 36  1  0
 11 37  1  0
 11 38  1  0
 12 13  1  0
 12 14  1  0
 12 39  1  1
 13 40  1  0
 14 15  1  0
 14 41  1  0
 14 42  1  0
 15 16  1  0
 15 21  1  0
 15 43  1  1
 16 20  1  0
 16 17  1  0
 17 18  2  0
 17 44  1  0
 18 19  1  0
 18 45  1  0
 19 20  2  0
 19 52  1  0
 20 46  1  0
 21 22  1  6
 21 23  1  0
 22 47  1  0
 22 48  1  0
 22 49  1  0
 23 50  1  0
 23 51  1  0
M  CHG  1  19   1
M  END
>  <i_m_ct_stereo_status>  (207) 
1

>  <s_m_source_file>  (207) 
/var/tmp/pbs.5076255.sched01/tmpbhhv4xqx/80i1gy0gug.sdf

>  <i_m_source_file_index>  (207) 
15

>  <i_lp_mmshare_version>  (207) 
48012

>  <i_f3d_flags>  (207) 
0

>  <s_epik_input>  (207) 
W0NIM11PW0NIMl1bQ0BAXTEyW0NAQF0zKFtDSDNdKVtDQEhdNFtDQEBIXShbQ0gyXTEpW0NASF0oW0NIMl00KVtDSDJdW0NAXTIoW0NIM10pW0NAQEhdKFtDSDJdW0NAQEhdM1tPSF0pbjVbY0hdW2NIXW5bY0hdNQ==

>  <s_epik_cmdline>  (207) 
J2VwaWtfcHl0aG9uJywgJy1waHQnLCAnMi4wJywgJy1waCcsICc3LjAnLCAnLXRuJywgJzgnLCAnLW1hJywgJzIwMCcsICctaW1hZScsICc8aW5maWxlLm1hZT4nLCAnLW9tYWUnLCAnPG91dGZpbGUubWFlPic=

>  <r_lp_tautomer_probability>  (207) 
1

>  <r_epik_Ionization_Penalty>  (207) 
0.121304

>  <r_epik_Ionization_Penalty_Charging>  (207) 
0

>  <r_epik_Ionization_Penalty_Neutral>  (207) 
0.121304

>  <r_epik_State_Penalty>  (207) 
0.110832

>  <r_epik_Charging_Adjusted_Penalty>  (207) 
0.110832

>  <i_epik_Tot_Q>  (207) 
1

>  <i_epik_Tot_abs_Q>  (207) 
1

>  <s_lp_Force_Field>  (207) 
OPLS3e

>  <r_lp_Energy>  (207) 
64.454

>  <b_lp_Chiralities_Consistent>  (207) 
1

>  <s_lp_Variant>  (207) 
66:0-1

>  <s_i_glide_gridfile>  (207) 
pfpi4k_grid

>  <i_i_glide_lignum>  (207) 
15

>  <i_i_glide_rotatable_bonds>  (207) 
4

>  <r_i_docking_score>  (207) 
-3.33346

>  <r_i_glide_ligand_efficiency>  (207) 
-0.144933

>  <r_i_glide_ligand_efficiency_sa>  (207) 
-0.41217

>  <r_i_glide_ligand_efficiency_ln>  (207) 
-0.80606

>  <r_i_glide_gscore>  (207) 
-3.33346

>  <r_i_glide_lipo>  (207) 
-0.672822

>  <r_i_glide_hbond>  (207) 
0

>  <r_i_glide_metal>  (207) 
-0

>  <r_i_glide_rewards>  (207) 
-1.4419

>  <r_i_glide_evdw>  (207) 
-14.0995

>  <r_i_glide_ecoul>  (207) 
-5.60398

>  <r_i_glide_erotb>  (207) 
0.369766

>  <r_i_glide_esite>  (207) 
-0.0429313

>  <r_i_glide_emodel>  (207) 
-20.654

>  <r_i_glide_energy>  (207) 
-19.7035

>  <r_i_glide_einternal>  (207) 
2.15619

>  <r_i_glide_intrahb_reward>  (207) 
-0

>  <i_i_glide_confnum>  (207) 
2

>  <i_i_glide_posenum>  (207) 
35

>  <r_i_glide_eff_state_penalty>  (207) 
0

>  <ligand_id>  (207) 
66

>  <original_smiles>  (207) 
COCC12CC3C4CC3C1(C)C(O)CC(n1ccnc1)C2(C)C4

>  <smiles>  (207) 
[H]OC1([H])C([H])([H])C([H])(n2c([H])c([H])[n+]([H])c2[H])C2(C([H])([H])[H])C([H])([H])C3([H])C([H])([H])C4([H])C3([H])C([H])([H])C2(C([H])([H])OC([H])([H])[H])C14C([H])([H])[H]

$$$$
66:0:1
     RDKit          3D

 52 56  0  0  1  0  0  0  0  0999 V2000
    2.5028   -6.3315    2.0077 C   0  0  0  0  0  0  0  0  0  0  0  0
    3.6197   -5.5135    1.6971 O   0  0  0  0  0  0  0  0  0  0  0  0
    3.4413   -4.6525    0.5840 C   0  0  0  0  0  0  0  0  0  0  0  0
    4.7227   -3.7787    0.3419 C   0  0  2  0  0  0  0  0  0  0  0  0
    5.9913   -4.6683    0.3927 C   0  0  0  0  0  0  0  0  0  0  0  0
    7.0752   -3.6267    0.5642 C   0  0  1  0  0  0  0  0  0  0  0  0
    7.2644   -2.6411   -0.5772 C   0  0  2  0  0  0  0  0  0  0  0  0
    7.2420   -1.5368    0.4647 C   0  0  0  0  0  0  0  0  0  0  0  0
    6.4938   -2.4918    1.3753 C   0  0  1  0  0  0  0  0  0  0  0  0
    4.9877   -2.7098    1.4798 C   0  0  2  0  0  0  0  0  0  0  0  0
    4.7357   -3.2704    2.9138 C   0  0  0  0  0  0  0  0  0  0  0  0
    4.1484   -1.4177    1.4044 C   0  0  1  0  0  0  0  0  0  0  0  0
    4.6799   -0.4296    2.2702 O   0  0  0  0  0  0  0  0  0  0  0  0
    3.9930   -0.7958    0.0160 C   0  0  0  0  0  0  0  0  0  0  0  0
    3.7424   -1.8552   -1.0810 C   0  0  1  0  0  0  0  0  0  0  0  0
    3.5333   -1.2563   -2.4343 N   0  0  0  0  0  0  0  0  0  0  0  0
    2.6191   -1.5984   -3.4108 C   0  0  0  0  0  0  0  0  0  0  0  0
    2.7390   -0.6293   -4.3932 C   0  0  0  0  0  0  0  0  0  0  0  0
    3.8039    0.1364   -4.0439 N   0  0  0  0  0  0  0  0  0  0  0  0
    4.2708   -0.2484   -2.8715 C   0  0  0  0  0  0  0  0  0  0  0  0
    4.7446   -3.0496   -1.0857 C   0  0  2  0  0  0  0  0  0  0  0  0
    4.2165   -3.9649   -2.1737 C   0  0  0  0  0  0  0  0  0  0  0  0
    6.1710   -2.6927   -1.6313 C   0  0  0  0  0  0  0  0  0  0  0  0
    2.7267   -6.8906    2.9156 H   0  0  0  0  0  0  0  0  0  0  0  0
    2.2897   -7.0520    1.2166 H   0  0  0  0  0  0  0  0  0  0  0  0
    1.6140   -5.7331    2.2058 H   0  0  0  0  0  0  0  0  0  0  0  0
    3.2538   -5.3282   -0.2497 H   0  0  0  0  0  0  0  0  0  0  0  0
    2.5619   -4.0146    0.7239 H   0  0  0  0  0  0  0  0  0  0  0  0
    6.0105   -5.3421    1.2386 H   0  0  0  0  0  0  0  0  0  0  0  0
    6.1084   -5.2864   -0.4882 H   0  0  0  0  0  0  0  0  0  0  0  0
    8.0470   -3.9508    0.9410 H   0  0  0  0  0  0  0  0  0  0  0  0
    8.2690   -2.7110   -0.9813 H   0  0  0  0  0  0  0  0  0  0  0  0
    8.2525   -1.3521    0.8466 H   0  0  0  0  0  0  0  0  0  0  0  0
    6.7547   -0.6076    0.2214 H   0  0  0  0  0  0  0  0  0  0  0  0
    6.9229   -2.4634    2.3611 H   0  0  0  0  0  0  0  0  0  0  0  0
    5.0647   -2.5852    3.7019 H   0  0  0  0  0  0  0  0  0  0  0  0
    5.2686   -4.2034    3.1008 H   0  0  0  0  0  0  0  0  0  0  0  0
    3.6764   -3.4425    3.0991 H   0  0  0  0  0  0  0  0  0  0  0  0
    3.1471   -1.6649    1.7535 H   0  0  0  0  0  0  0  0  0  0  0  0
    5.6167   -0.3576    2.1057 H   0  0  0  0  0  0  0  0  0  0  0  0
    3.1170   -0.1480    0.0916 H   0  0  0  0  0  0  0  0  0  0  0  0
    4.8337   -0.1517   -0.2137 H   0  0  0  0  0  0  0  0  0  0  0  0
    2.7668   -2.2575   -0.8317 H   0  0  0  0  0  0  0  0  0  0  0  0
    1.8994   -2.4198   -3.2817 H   0  0  0  0  0  0  0  0  0  0  0  0
    2.1709   -0.3297   -5.2749 H   0  0  0  0  0  0  0  0  0  0  0  0
    5.0993    0.1678   -2.3406 H   0  0  0  0  0  0  0  0  0  0  0  0
    4.3782   -3.5704   -3.1853 H   0  0  0  0  0  0  0  0  0  0  0  0
    3.1510   -4.0813   -2.0160 H   0  0  0  0  0  0  0  0  0  0  0  0
    4.7429   -4.9170   -2.1148 H   0  0  0  0  0  0  0  0  0  0  0  0
    6.1674   -1.7811   -2.2103 H   0  0  0  0  0  0  0  0  0  0  0  0
    6.4759   -3.4616   -2.3559 H   0  0  0  0  0  0  0  0  0  0  0  0
    4.0797    0.9782   -4.5489 H   0  0  0  0  0  0  0  0  0  0  0  0
  1  2  1  0
  1 24  1  0
  1 25  1  0
  1 26  1  0
  2  3  1  0
  4  3  1  1
  3 27  1  0
  3 28  1  0
  4 10  1  0
  4 21  1  0
  4  5  1  0
  5  6  1  0
  5 29  1  0
  5 30  1  0
  6  9  1  0
  6  7  1  0
  6 31  1  1
  7 23  1  0
  7  8  1  0
  7 32  1  6
  8  9  1  0
  8 33  1  0
  8 34  1  0
  9 10  1  0
  9 35  1  1
 10 11  1  1
 10 12  1  0
 11 36  1  0
 11 37  1  0
 11 38  1  0
 12 13  1  0
 12 14  1  0
 12 39  1  1
 13 40  1  0
 14 15  1  0
 14 41  1  0
 14 42  1  0
 15 16  1  0
 15 21  1  0
 15 43  1  1
 16 20  1  0
 16 17  1  0
 17 18  2  0
 17 44  1  0
 18 19  1  0
 18 45  1  0
 19 20  2  0
 19 52  1  0
 20 46  1  0
 21 22  1  6
 21 23  1  0
 22 47  1  0
 22 48  1  0
 22 49  1  0
 23 50  1  0
 23 51  1  0
M  CHG  1  19   1
M  END
>  <i_m_ct_stereo_status>  (208) 
1

>  <s_m_source_file>  (208) 
/var/tmp/pbs.5076255.sched01/tmpbhhv4xqx/80i1gy0gug.sdf

>  <i_m_source_file_index>  (208) 
15

>  <i_lp_mmshare_version>  (208) 
48012

>  <i_f3d_flags>  (208) 
0

>  <s_epik_input>  (208) 
W0NIM11PW0NIMl1bQ0BAXTEyW0NAQF0zKFtDSDNdKVtDQEhdNFtDQEBIXShbQ0gyXTEpW0NASF0oW0NIMl00KVtDSDJdW0NAXTIoW0NIM10pW0NAQEhdKFtDSDJdW0NAQEhdM1tPSF0pbjVbY0hdW2NIXW5bY0hdNQ==

>  <s_epik_cmdline>  (208) 
J2VwaWtfcHl0aG9uJywgJy1waHQnLCAnMi4wJywgJy1waCcsICc3LjAnLCAnLXRuJywgJzgnLCAnLW1hJywgJzIwMCcsICctaW1hZScsICc8aW5maWxlLm1hZT4nLCAnLW9tYWUnLCAnPG91dGZpbGUubWFlPic=

>  <r_lp_tautomer_probability>  (208) 
1

>  <r_epik_Ionization_Penalty>  (208) 
0.121304

>  <r_epik_Ionization_Penalty_Charging>  (208) 
0

>  <r_epik_Ionization_Penalty_Neutral>  (208) 
0.121304

>  <r_epik_State_Penalty>  (208) 
0.110832

>  <r_epik_Charging_Adjusted_Penalty>  (208) 
0.110832

>  <i_epik_Tot_Q>  (208) 
1

>  <i_epik_Tot_abs_Q>  (208) 
1

>  <s_lp_Force_Field>  (208) 
OPLS3e

>  <r_lp_Energy>  (208) 
64.454

>  <b_lp_Chiralities_Consistent>  (208) 
1

>  <s_lp_Variant>  (208) 
66:0-1

>  <s_i_glide_gridfile>  (208) 
pfpi4k_grid

>  <i_i_glide_lignum>  (208) 
15

>  <i_i_glide_rotatable_bonds>  (208) 
4

>  <r_i_docking_score>  (208) 
-2.89216

>  <r_i_glide_ligand_efficiency>  (208) 
-0.125746

>  <r_i_glide_ligand_efficiency_sa>  (208) 
-0.357606

>  <r_i_glide_ligand_efficiency_ln>  (208) 
-0.699352

>  <r_i_glide_gscore>  (208) 
-2.89216

>  <r_i_glide_lipo>  (208) 
-0.634988

>  <r_i_glide_hbond>  (208) 
0

>  <r_i_glide_metal>  (208) 
-0

>  <r_i_glide_rewards>  (208) 
-1.45534

>  <r_i_glide_evdw>  (208) 
-9.38681

>  <r_i_glide_ecoul>  (208) 
-4.2787

>  <r_i_glide_erotb>  (208) 
0.369766

>  <r_i_glide_esite>  (208) 
-0.0604582

>  <r_i_glide_emodel>  (208) 
-14.305

>  <r_i_glide_energy>  (208) 
-13.6655

>  <r_i_glide_einternal>  (208) 
2.03377

>  <r_i_glide_intrahb_reward>  (208) 
-0

>  <i_i_glide_confnum>  (208) 
2

>  <i_i_glide_posenum>  (208) 
10

>  <r_i_glide_eff_state_penalty>  (208) 
0

>  <ligand_id>  (208) 
66

>  <original_smiles>  (208) 
COCC12CC3C4CC3C1(C)C(O)CC(n1ccnc1)C2(C)C4

>  <smiles>  (208) 
[H]OC1([H])C([H])([H])C([H])(n2c([H])c([H])[n+]([H])c2[H])C2(C([H])([H])[H])C([H])([H])C3([H])C([H])([H])C4([H])C3([H])C([H])([H])C2(C([H])([H])OC([H])([H])[H])C14C([H])([H])[H]

$$$$
66:0:2
     RDKit          3D

 52 56  0  0  1  0  0  0  0  0999 V2000
    2.3535   -6.5280    1.7274 C   0  0  0  0  0  0  0  0  0  0  0  0
    3.4465   -5.6399    1.5996 O   0  0  0  0  0  0  0  0  0  0  0  0
    3.3840   -4.7680    0.4798 C   0  0  0  0  0  0  0  0  0  0  0  0
    4.6199   -3.8065    0.4288 C   0  0  2  0  0  0  0  0  0  0  0  0
    5.9323   -4.6159    0.6224 C   0  0  0  0  0  0  0  0  0  0  0  0
    6.9154   -3.5236    0.9884 C   0  0  1  0  0  0  0  0  0  0  0  0
    7.1709   -2.4971   -0.1027 C   0  0  2  0  0  0  0  0  0  0  0  0
    6.9274   -1.4085    0.9329 C   0  0  0  0  0  0  0  0  0  0  0  0
    6.1664   -2.4434    1.7623 C   0  0  1  0  0  0  0  0  0  0  0  0
    4.6725   -2.7685    1.6378 C   0  0  2  0  0  0  0  0  0  0  0  0
    4.2598   -3.3960    3.0026 C   0  0  0  0  0  0  0  0  0  0  0  0
    3.7565   -1.5258    1.4654 C   0  0  1  0  0  0  0  0  0  0  0  0
    4.0841   -0.5226    2.4156 O   0  0  0  0  0  0  0  0  0  0  0  0
    3.7520   -0.8672    0.0872 C   0  0  0  0  0  0  0  0  0  0  0  0
    3.7034   -1.8900   -1.0504 C   0  0  1  0  0  0  0  0  0  0  0  0
    3.6001   -1.2299   -2.3691 N   0  0  0  0  0  0  0  0  0  0  0  0
    2.6784   -1.4707   -3.3715 C   0  0  0  0  0  0  0  0  0  0  0  0
    2.9202   -0.5189   -4.3525 C   0  0  0  0  0  0  0  0  0  0  0  0
    4.0254    0.1339   -3.9800 N   0  0  0  0  0  0  0  0  0  0  0  0
    4.4258   -0.2579   -2.7836 C   0  0  0  0  0  0  0  0  0  0  0  0
    4.7612   -3.0345   -0.9748 C   0  0  2  0  0  0  0  0  0  0  0  0
    4.4281   -3.9465   -2.1637 C   0  0  0  0  0  0  0  0  0  0  0  0
    6.2455   -2.6018   -1.3011 C   0  0  0  0  0  0  0  0  0  0  0  0
    2.4710   -7.0829    2.6572 H   0  0  0  0  0  0  0  0  0  0  0  0
    2.3079   -7.2500    0.9122 H   0  0  0  0  0  0  0  0  0  0  0  0
    1.4080   -5.9917    1.7878 H   0  0  0  0  0  0  0  0  0  0  0  0
    3.3711   -5.4421   -0.3754 H   0  0  0  0  0  0  0  0  0  0  0  0
    2.4481   -4.2000    0.4811 H   0  0  0  0  0  0  0  0  0  0  0  0
    5.8689   -5.3405    1.4319 H   0  0  0  0  0  0  0  0  0  0  0  0
    6.2189   -5.1803   -0.2679 H   0  0  0  0  0  0  0  0  0  0  0  0
    7.8509   -3.8217    1.4576 H   0  0  0  0  0  0  0  0  0  0  0  0
    8.2244   -2.4780   -0.3699 H   0  0  0  0  0  0  0  0  0  0  0  0
    7.8505   -1.0667    1.3926 H   0  0  0  0  0  0  0  0  0  0  0  0
    6.3734   -0.5278    0.6455 H   0  0  0  0  0  0  0  0  0  0  0  0
    6.4794   -2.3827    2.7958 H   0  0  0  0  0  0  0  0  0  0  0  0
    4.4425   -2.7303    3.8490 H   0  0  0  0  0  0  0  0  0  0  0  0
    4.8188   -4.3025    3.2206 H   0  0  0  0  0  0  0  0  0  0  0  0
    3.1991   -3.6345    3.0337 H   0  0  0  0  0  0  0  0  0  0  0  0
    2.7346   -1.8536    1.6659 H   0  0  0  0  0  0  0  0  0  0  0  0
    3.9529   -0.8811    3.2818 H   0  0  0  0  0  0  0  0  0  0  0  0
    2.8357   -0.2644    0.0738 H   0  0  0  0  0  0  0  0  0  0  0  0
    4.5583   -0.1459   -0.0337 H   0  0  0  0  0  0  0  0  0  0  0  0
    2.7306   -2.3556   -0.9354 H   0  0  0  0  0  0  0  0  0  0  0  0
    1.8879   -2.2363   -3.2711 H   0  0  0  0  0  0  0  0  0  0  0  0
    2.3968   -0.2540   -5.2575 H   0  0  0  0  0  0  0  0  0  0  0  0
    5.2740    0.1230   -2.2723 H   0  0  0  0  0  0  0  0  0  0  0  0
    4.6704   -3.4850   -3.1232 H   0  0  0  0  0  0  0  0  0  0  0  0
    3.3581   -4.1433   -2.1625 H   0  0  0  0  0  0  0  0  0  0  0  0
    4.9899   -4.8799   -2.1069 H   0  0  0  0  0  0  0  0  0  0  0  0
    6.3050   -1.6848   -1.8641 H   0  0  0  0  0  0  0  0  0  0  0  0
    6.6883   -3.3466   -1.9774 H   0  0  0  0  0  0  0  0  0  0  0  0
    4.4955    0.8642   -4.5127 H   0  0  0  0  0  0  0  0  0  0  0  0
  1  2  1  0
  1 24  1  0
  1 25  1  0
  1 26  1  0
  2  3  1  0
  4  3  1  6
  3 27  1  0
  3 28  1  0
  4 10  1  0
  4 21  1  0
  4  5  1  0
  5  6  1  0
  5 29  1  0
  5 30  1  0
  6  9  1  0
  6  7  1  0
  6 31  1  1
  7 23  1  0
  7  8  1  0
  7 32  1  6
  8  9  1  0
  8 33  1  0
  8 34  1  0
  9 10  1  0
  9 35  1  1
 10 11  1  1
 10 12  1  0
 11 36  1  0
 11 37  1  0
 11 38  1  0
 12 13  1  0
 12 14  1  0
 12 39  1  1
 13 40  1  0
 14 15  1  0
 14 41  1  0
 14 42  1  0
 15 16  1  0
 15 21  1  0
 15 43  1  1
 16 20  1  0
 16 17  1  0
 17 18  2  0
 17 44  1  0
 18 19  1  0
 18 45  1  0
 19 20  2  0
 19 52  1  0
 20 46  1  0
 21 22  1  6
 21 23  1  0
 22 47  1  0
 22 48  1  0
 22 49  1  0
 23 50  1  0
 23 51  1  0
M  CHG  1  19   1
M  END
>  <i_m_ct_stereo_status>  (209) 
1

>  <s_m_source_file>  (209) 
/var/tmp/pbs.5076255.sched01/tmpbhhv4xqx/80i1gy0gug.sdf

>  <i_m_source_file_index>  (209) 
15

>  <i_lp_mmshare_version>  (209) 
48012

>  <i_f3d_flags>  (209) 
0

>  <s_epik_input>  (209) 
W0NIM11PW0NIMl1bQ0BAXTEyW0NAQF0zKFtDSDNdKVtDQEhdNFtDQEBIXShbQ0gyXTEpW0NASF0oW0NIMl00KVtDSDJdW0NAXTIoW0NIM10pW0NAQEhdKFtDSDJdW0NAQEhdM1tPSF0pbjVbY0hdW2NIXW5bY0hdNQ==

>  <s_epik_cmdline>  (209) 
J2VwaWtfcHl0aG9uJywgJy1waHQnLCAnMi4wJywgJy1waCcsICc3LjAnLCAnLXRuJywgJzgnLCAnLW1hJywgJzIwMCcsICctaW1hZScsICc8aW5maWxlLm1hZT4nLCAnLW9tYWUnLCAnPG91dGZpbGUubWFlPic=

>  <r_lp_tautomer_probability>  (209) 
1

>  <r_epik_Ionization_Penalty>  (209) 
0.121304

>  <r_epik_Ionization_Penalty_Charging>  (209) 
0

>  <r_epik_Ionization_Penalty_Neutral>  (209) 
0.121304

>  <r_epik_State_Penalty>  (209) 
0.110832

>  <r_epik_Charging_Adjusted_Penalty>  (209) 
0.110832

>  <i_epik_Tot_Q>  (209) 
1

>  <i_epik_Tot_abs_Q>  (209) 
1

>  <s_lp_Force_Field>  (209) 
OPLS3e

>  <r_lp_Energy>  (209) 
64.454

>  <b_lp_Chiralities_Consistent>  (209) 
1

>  <s_lp_Variant>  (209) 
66:0-1

>  <s_i_glide_gridfile>  (209) 
pfpi4k_grid

>  <i_i_glide_lignum>  (209) 
15

>  <i_i_glide_rotatable_bonds>  (209) 
4

>  <r_i_docking_score>  (209) 
-2.8605

>  <r_i_glide_ligand_efficiency>  (209) 
-0.124369

>  <r_i_glide_ligand_efficiency_sa>  (209) 
-0.35369

>  <r_i_glide_ligand_efficiency_ln>  (209) 
-0.691694

>  <r_i_glide_gscore>  (209) 
-2.8605

>  <r_i_glide_lipo>  (209) 
-0.61711

>  <r_i_glide_hbond>  (209) 
0

>  <r_i_glide_metal>  (209) 
-0

>  <r_i_glide_rewards>  (209) 
-1.3846

>  <r_i_glide_evdw>  (209) 
-12.5786

>  <r_i_glide_ecoul>  (209) 
-3.61253

>  <r_i_glide_erotb>  (209) 
0.369766

>  <r_i_glide_esite>  (209) 
-0.057743

>  <r_i_glide_emodel>  (209) 
-16.9454

>  <r_i_glide_energy>  (209) 
-16.1911

>  <r_i_glide_einternal>  (209) 
2.26891

>  <r_i_glide_intrahb_reward>  (209) 
-0

>  <i_i_glide_confnum>  (209) 
2

>  <i_i_glide_posenum>  (209) 
7

>  <r_i_glide_eff_state_penalty>  (209) 
0

>  <ligand_id>  (209) 
66

>  <original_smiles>  (209) 
COCC12CC3C4CC3C1(C)C(O)CC(n1ccnc1)C2(C)C4

>  <smiles>  (209) 
[H]OC1([H])C([H])([H])C([H])(n2c([H])c([H])[n+]([H])c2[H])C2(C([H])([H])[H])C([H])([H])C3([H])C([H])([H])C4([H])C3([H])C([H])([H])C2(C([H])([H])OC([H])([H])[H])C14C([H])([H])[H]

$$$$
67:0:0
     RDKit          3D

 94100  0  0  1  0  0  0  0  0999 V2000
    2.9308   -9.8505    4.9346 C   0  0  0  0  0  0  0  0  0  0  0  0
    2.4414   -8.7448    4.0024 C   0  0  0  0  0  0  0  0  0  0  0  0
    1.7759   -8.7909    2.8162 C   0  0  0  0  0  0  0  0  0  0  0  0
    0.4898   -9.5349    3.0406 C   0  0  0  0  0  0  0  0  0  0  0  0
    0.1275   -8.8085    4.3743 C   0  0  0  0  0  0  0  0  0  0  0  0
    1.3035   -7.7976    4.3739 C   0  0  1  0  0  0  0  0  0  0  0  0
    1.5436   -6.8291    5.5874 C   0  0  2  0  0  0  0  0  0  0  0  0
    0.2029   -6.2109    5.9696 C   0  0  0  0  0  0  0  0  0  0  0  0
    0.0081   -5.9085    7.4777 C   0  0  1  0  0  0  0  0  0  0  0  0
    0.2037   -7.0701    8.2488 O   0  0  0  0  0  0  0  0  0  0  0  0
    0.8432   -4.7302    8.0180 C   0  0  1  0  0  0  0  0  0  0  0  0
    0.5295   -4.4852    9.5140 C   0  0  0  0  0  0  0  0  0  0  0  0
    2.3680   -4.9360    7.8281 C   0  0  0  0  0  0  0  0  0  0  0  0
    2.7775   -4.4721    6.4067 C   0  0  2  0  0  0  0  0  0  0  0  0
    4.2395   -3.9233    6.5451 C   0  0  0  0  0  0  0  0  0  0  0  0
    1.7708   -3.2659    6.2603 C   0  0  1  0  0  0  0  0  0  0  0  0
    1.7291   -2.2179    5.1032 C   0  0  2  0  0  0  0  0  0  0  0  0
    2.6330   -2.4243    3.9922 O   0  0  0  0  0  0  0  0  0  0  0  0
    4.0083   -1.9725    4.1025 C   0  0  0  0  0  0  0  0  0  0  0  0
    4.2965   -0.7182    3.2168 C   0  0  0  0  0  0  0  0  0  0  0  0
    3.5515    0.4856    3.5168 O   0  0  0  0  0  0  0  0  0  0  0  0
    2.0935    0.4769    3.3010 C   0  0  2  0  0  0  0  0  0  0  0  0
    1.6609    0.0232    1.9556 C   0  0  0  0  0  0  0  0  0  0  0  0
    1.6936    1.4733    2.2121 C   0  0  1  0  0  0  0  0  0  0  0  0
    0.4287    2.1094    2.4158 O   0  0  0  0  0  0  0  0  0  0  0  0
    1.2160    0.3641    4.6137 C   0  0  0  0  0  0  0  0  0  0  0  0
    1.2365    1.7678    5.2489 C   0  0  0  0  0  0  0  0  0  0  0  0
   -0.2581   -0.0206    4.2030 C   0  0  0  0  0  0  0  0  0  0  0  0
    1.6605   -0.7125    5.6699 C   0  0  0  0  0  0  0  0  0  0  0  0
    0.6503   -0.6252    6.8332 C   0  0  0  0  0  0  0  0  0  0  0  0
    3.0216   -0.3270    6.3091 C   0  0  0  0  0  0  0  0  0  0  0  0
    0.5362   -3.4956    7.1941 C   0  0  1  0  0  0  0  0  0  0  0  0
   -0.7314   -3.3895    6.5867 O   0  0  0  0  0  0  0  0  0  0  0  0
    2.7172   -5.7357    5.3683 C   0  0  1  0  0  0  0  0  0  0  0  0
    4.0741   -6.4989    5.5281 C   0  0  0  0  0  0  0  0  0  0  0  0
    2.6712   -5.2316    3.9009 C   0  0  0  0  0  0  0  0  0  0  0  0
    2.7173   -6.2888    2.7917 C   0  0  0  0  0  0  0  0  0  0  0  0
    1.4985   -7.2715    2.9763 C   0  0  1  0  0  0  0  0  0  0  0  0
    0.2685   -6.6430    2.2781 C   0  0  0  0  0  0  0  0  0  0  0  0
    0.3216   -6.6640    0.8764 O   0  0  0  0  0  0  0  0  0  0  0  0
    3.3169   -9.4316    5.8698 H   0  0  0  0  0  0  0  0  0  0  0  0
    3.7503  -10.4024    4.4851 H   0  0  0  0  0  0  0  0  0  0  0  0
    2.1692  -10.5735    5.2133 H   0  0  0  0  0  0  0  0  0  0  0  0
   -0.2120   -9.3559    2.2338 H   0  0  0  0  0  0  0  0  0  0  0  0
    0.6440  -10.6040    3.1607 H   0  0  0  0  0  0  0  0  0  0  0  0
   -0.8556   -8.3692    4.2900 H   0  0  0  0  0  0  0  0  0  0  0  0
    0.1348   -9.4840    5.2239 H   0  0  0  0  0  0  0  0  0  0  0  0
    1.8621   -7.4443    6.4079 H   0  0  0  0  0  0  0  0  0  0  0  0
   -0.0259   -5.3545    5.3220 H   0  0  0  0  0  0  0  0  0  0  0  0
   -0.6246   -6.8857    5.7634 H   0  0  0  0  0  0  0  0  0  0  0  0
   -1.0411   -5.6416    7.6337 H   0  0  0  0  0  0  0  0  0  0  0  0
    1.0961   -7.3804    8.0802 H   0  0  0  0  0  0  0  0  0  0  0  0
    1.0606   -3.6161    9.9104 H   0  0  0  0  0  0  0  0  0  0  0  0
    0.8237   -5.3361   10.1235 H   0  0  0  0  0  0  0  0  0  0  0  0
   -0.5351   -4.3048    9.6659 H   0  0  0  0  0  0  0  0  0  0  0  0
    2.8816   -4.2923    8.5424 H   0  0  0  0  0  0  0  0  0  0  0  0
    2.7021   -5.9513    8.0473 H   0  0  0  0  0  0  0  0  0  0  0  0
    4.6898   -3.7640    5.5576 H   0  0  0  0  0  0  0  0  0  0  0  0
    4.9208   -4.6001    7.0321 H   0  0  0  0  0  0  0  0  0  0  0  0
    4.3185   -3.0077    7.1015 H   0  0  0  0  0  0  0  0  0  0  0  0
    2.2782   -2.6200    7.0172 H   0  0  0  0  0  0  0  0  0  0  0  0
    0.7503   -2.4876    4.6367 H   0  0  0  0  0  0  0  0  0  0  0  0
    4.3861   -1.8886    5.0869 H   0  0  0  0  0  0  0  0  0  0  0  0
    4.7069   -2.7635    3.7127 H   0  0  0  0  0  0  0  0  0  0  0  0
    5.3823   -0.4973    3.3942 H   0  0  0  0  0  0  0  0  0  0  0  0
    4.2359   -0.9953    2.1785 H   0  0  0  0  0  0  0  0  0  0  0  0
    2.4138   -0.3999    1.2579 H   0  0  0  0  0  0  0  0  0  0  0  0
    0.7021   -0.5545    1.9050 H   0  0  0  0  0  0  0  0  0  0  0  0
    2.4221    2.1029    1.7151 H   0  0  0  0  0  0  0  0  0  0  0  0
    0.2860    2.8399    1.7033 H   0  0  0  0  0  0  0  0  0  0  0  0
    0.8390    1.8539    6.2795 H   0  0  0  0  0  0  0  0  0  0  0  0
    0.5910    2.4473    4.7646 H   0  0  0  0  0  0  0  0  0  0  0  0
    2.2260    2.1807    5.3468 H   0  0  0  0  0  0  0  0  0  0  0  0
   -0.9284    0.0041    5.0382 H   0  0  0  0  0  0  0  0  0  0  0  0
   -0.3104   -0.9851    3.7208 H   0  0  0  0  0  0  0  0  0  0  0  0
   -0.7362    0.6751    3.5300 H   0  0  0  0  0  0  0  0  0  0  0  0
    0.4012    0.3566    7.2327 H   0  0  0  0  0  0  0  0  0  0  0  0
    1.1150   -0.9956    7.7340 H   0  0  0  0  0  0  0  0  0  0  0  0
   -0.3062   -1.0587    6.6508 H   0  0  0  0  0  0  0  0  0  0  0  0
    2.9704    0.5971    6.8349 H   0  0  0  0  0  0  0  0  0  0  0  0
    3.7939   -0.1345    5.5857 H   0  0  0  0  0  0  0  0  0  0  0  0
    3.4028   -1.0784    6.9852 H   0  0  0  0  0  0  0  0  0  0  0  0
    0.4636   -2.7331    7.9722 H   0  0  0  0  0  0  0  0  0  0  0  0
   -0.7506   -4.0053    5.8399 H   0  0  0  0  0  0  0  0  0  0  0  0
    4.9355   -5.9188    5.2023 H   0  0  0  0  0  0  0  0  0  0  0  0
    4.1770   -7.3866    4.9286 H   0  0  0  0  0  0  0  0  0  0  0  0
    4.2445   -6.8132    6.5588 H   0  0  0  0  0  0  0  0  0  0  0  0
    1.7839   -4.6224    3.7656 H   0  0  0  0  0  0  0  0  0  0  0  0
    3.5367   -4.5972    3.7193 H   0  0  0  0  0  0  0  0  0  0  0  0
    2.6676   -5.8056    1.8226 H   0  0  0  0  0  0  0  0  0  0  0  0
    3.6486   -6.8083    2.8076 H   0  0  0  0  0  0  0  0  0  0  0  0
   -0.6986   -7.1028    2.5694 H   0  0  0  0  0  0  0  0  0  0  0  0
    0.1615   -5.6032    2.5824 H   0  0  0  0  0  0  0  0  0  0  0  0
    0.3569   -7.5777    0.6079 H   0  0  0  0  0  0  0  0  0  0  0  0
  1  2  1  0
  1 41  1  0
  1 42  1  0
  1 43  1  0
  2  6  1  0
  2  3  2  0
  3 38  1  0
  3  4  1  0
  4  5  1  0
  4 44  1  0
  4 45  1  0
  6  5  1  6
  5 46  1  0
  5 47  1  0
  6 38  1  0
  6  7  1  0
  7 34  1  0
  7  8  1  0
  7 48  1  1
  8  9  1  0
  8 49  1  0
  8 50  1  0
  9 10  1  0
  9 11  1  0
  9 51  1  6
 10 52  1  0
 11 32  1  0
 11 12  1  1
 11 13  1  0
 12 53  1  0
 12 54  1  0
 12 55  1  0
 13 14  1  0
 13 56  1  0
 13 57  1  0
 14 15  1  1
 14 16  1  0
 14 34  1  0
 15 58  1  0
 15 59  1  0
 15 60  1  0
 16 17  1  0
 16 32  1  0
 16 61  1  1
 17 29  1  0
 17 18  1  0
 17 62  1  6
 18 19  1  0
 19 20  1  0
 19 63  1  0
 19 64  1  0
 20 21  1  0
 20 65  1  0
 20 66  1  0
 22 21  1  1
 22 24  1  0
 22 23  1  0
 22 26  1  0
 23 24  1  0
 23 67  1  0
 23 68  1  0
 24 25  1  0
 24 69  1  6
 25 70  1  0
 26 27  1  0
 26 28  1  0
 26 29  1  0
 27 71  1  0
 27 72  1  0
 27 73  1  0
 28 74  1  0
 28 75  1  0
 28 76  1  0
 29 30  1  0
 29 31  1  0
 30 77  1  0
 30 78  1  0
 30 79  1  0
 31 80  1  0
 31 81  1  0
 31 82  1  0
 32 33  1  0
 32 83  1  1
 33 84  1  0
 34 35  1  6
 34 36  1  0
 35 85  1  0
 35 86  1  0
 35 87  1  0
 36 37  1  0
 36 88  1  0
 36 89  1  0
 37 38  1  0
 37 90  1  0
 37 91  1  0
 38 39  1  6
 39 40  1  0
 39 92  1  0
 39 93  1  0
 40 94  1  0
M  END
>  <i_m_ct_stereo_status>  (210) 
1

>  <s_m_source_file>  (210) 
/var/tmp/pbs.5076255.sched01/tmpbhhv4xqx/80i1gy0gug.sdf

>  <i_m_source_file_index>  (210) 
17

>  <i_lp_mmshare_version>  (210) 
48012

>  <i_f3d_flags>  (210) 
0

>  <s_epik_input>  (210) 
W0NIM11DMT1DKFtDSDJdW0NIMl0yKVtDQF0zKFtDSDJdW09IXSlbQ0gyXVtDSDJdW0NAQF0oW0NAQEhdNFtDQEBdMTIzKShbQ0gzXSlbQ0BdNShbQ0gzXSlbQ0gyXVtDQF0oW0NIM10pKFtDQEBIXShbQ0gyXTQpW09IXSlbQ0BIXShbT0hdKVtDQEBIXTVbQ0BASF0oQyhbQ0gzXSkoW0NIM10pQzYoW0NIM10pW0NIM10pT1tDSDJdW0NIMl1PW0NAQF02N1tDSDJdW0NASF03W09IXQ==

>  <s_epik_cmdline>  (210) 
J2VwaWtfcHl0aG9uJywgJy1waHQnLCAnMi4wJywgJy1waCcsICc3LjAnLCAnLXRuJywgJzgnLCAnLW1hJywgJzIwMCcsICctaW1hZScsICc8aW5maWxlLm1hZT4nLCAnLW9tYWUnLCAnPG91dGZpbGUubWFlPic=

>  <r_lp_tautomer_probability>  (210) 
1

>  <r_epik_Ionization_Penalty>  (210) 
2.43995e-06

>  <r_epik_Ionization_Penalty_Charging>  (210) 
0

>  <r_epik_Ionization_Penalty_Neutral>  (210) 
2.43995e-06

>  <r_epik_State_Penalty>  (210) 
-0

>  <r_epik_Charging_Adjusted_Penalty>  (210) 
0

>  <i_epik_Tot_Q>  (210) 
0

>  <i_epik_Tot_abs_Q>  (210) 
0

>  <s_lp_Force_Field>  (210) 
OPLS3e

>  <r_lp_Energy>  (210) 
208.964

>  <b_lp_Chiralities_Consistent>  (210) 
1

>  <s_lp_Variant>  (210) 
67:0-1

>  <s_i_glide_gridfile>  (210) 
pfpi4k_grid

>  <i_i_glide_lignum>  (210) 
17

>  <i_i_glide_rotatable_bonds>  (210) 
6

>  <r_i_docking_score>  (210) 
-2.43063

>  <r_i_glide_ligand_efficiency>  (210) 
-0.0607659

>  <r_i_glide_ligand_efficiency_sa>  (210) 
-0.207816

>  <r_i_glide_ligand_efficiency_ln>  (210) 
-0.518383

>  <r_i_glide_gscore>  (210) 
-2.43063

>  <r_i_glide_lipo>  (210) 
-0.0418383

>  <r_i_glide_hbond>  (210) 
-0.32329

>  <r_i_glide_metal>  (210) 
-0

>  <r_i_glide_rewards>  (210) 
0

>  <r_i_glide_evdw>  (210) 
-31.6645

>  <r_i_glide_ecoul>  (210) 
-8.61886

>  <r_i_glide_erotb>  (210) 
0.0548549

>  <r_i_glide_esite>  (210) 
0

>  <r_i_glide_emodel>  (210) 
-41.67

>  <r_i_glide_energy>  (210) 
-40.2833

>  <r_i_glide_einternal>  (210) 
0.820809

>  <r_i_glide_intrahb_reward>  (210) 
-0

>  <i_i_glide_confnum>  (210) 
2

>  <i_i_glide_posenum>  (210) 
1

>  <r_i_glide_eff_state_penalty>  (210) 
0

>  <ligand_id>  (210) 
67

>  <original_smiles>  (210) 
CC1=C2CCC13C1CC(O)C4(C)CC(C)(C(C5OCCOC6(CC6O)C(C)(C)C5(C)C)C4O)C1(C)CCC23CO

>  <smiles>  (210) 
[H]OC([H])([H])C12C3=C(C([H])([H])[H])C1(C([H])([H])C3([H])[H])C1([H])C([H])([H])C([H])(O[H])C3(C([H])([H])[H])C([H])([H])C(C([H])([H])[H])(C([H])(C4([H])OC([H])([H])C([H])([H])OC5(C([H])([H])C5([H])O[H])C(C([H])([H])[H])(C([H])([H])[H])C4(C([H])([H])[H])C([H])([H])[H])C3([H])O[H])C1(C([H])([H])[H])C([H])([H])C2([H])[H]

$$$$
67:0:1
     RDKit          3D

 94100  0  0  1  0  0  0  0  0999 V2000
    3.9678  -11.2550    3.8719 C   0  0  0  0  0  0  0  0  0  0  0  0
    2.9951  -10.0976    3.3850 C   0  0  0  0  0  0  0  0  0  0  0  0
    2.0414  -10.1083    2.5474 C   0  0  0  0  0  0  0  0  0  0  0  0
    1.0074  -11.1708    2.9284 C   0  0  0  0  0  0  0  0  0  0  0  0
    1.0165  -10.8161    4.4219 C   0  0  0  0  0  0  0  0  0  0  0  0
    1.9437   -9.5870    4.3665 C   0  0  1  0  0  0  0  0  0  0  0  0
    2.4076   -8.8177    5.6354 C   0  0  2  0  0  0  0  0  0  0  0  0
    1.1816   -8.6302    6.5502 C   0  0  0  0  0  0  0  0  0  0  0  0
    1.4704   -8.6604    8.0587 C   0  0  1  0  0  0  0  0  0  0  0  0
    2.1082   -9.8825    8.4069 O   0  0  0  0  0  0  0  0  0  0  0  0
    2.2509   -7.4798    8.6086 C   0  0  1  0  0  0  0  0  0  0  0  0
    2.4176   -7.5754   10.1509 C   0  0  0  0  0  0  0  0  0  0  0  0
    3.6271   -7.2495    7.9416 C   0  0  0  0  0  0  0  0  0  0  0  0
    3.4431   -6.4645    6.6242 C   0  0  2  0  0  0  0  0  0  0  0  0
    4.7411   -5.5904    6.4791 C   0  0  0  0  0  0  0  0  0  0  0  0
    2.2802   -5.5288    7.1113 C   0  0  1  0  0  0  0  0  0  0  0  0
    1.6475   -4.3120    6.3190 C   0  0  2  0  0  0  0  0  0  0  0  0
    2.2618   -3.9708    5.0360 O   0  0  0  0  0  0  0  0  0  0  0  0
    3.4529   -3.1571    4.9490 C   0  0  0  0  0  0  0  0  0  0  0  0
    3.1783   -1.7172    4.4706 C   0  0  0  0  0  0  0  0  0  0  0  0
    2.2378   -0.8866    5.2064 O   0  0  0  0  0  0  0  0  0  0  0  0
    0.8715   -1.3014    5.3500 C   0  0  2  0  0  0  0  0  0  0  0  0
    0.1836   -1.5838    4.0225 C   0  0  0  0  0  0  0  0  0  0  0  0
   -0.0609   -0.2302    4.6951 C   0  0  1  0  0  0  0  0  0  0  0  0
   -1.3486    0.0069    5.2927 O   0  0  0  0  0  0  0  0  0  0  0  0
    0.4318   -1.9474    6.6914 C   0  0  0  0  0  0  0  0  0  0  0  0
    0.2975   -0.7670    7.7287 C   0  0  0  0  0  0  0  0  0  0  0  0
   -0.9480   -2.6653    6.5104 C   0  0  0  0  0  0  0  0  0  0  0  0
    1.4106   -3.0390    7.2781 C   0  0  0  0  0  0  0  0  0  0  0  0
    0.7688   -3.4715    8.6309 C   0  0  0  0  0  0  0  0  0  0  0  0
    2.7549   -2.4014    7.7302 C   0  0  0  0  0  0  0  0  0  0  0  0
    1.4853   -6.2284    8.2534 C   0  0  1  0  0  0  0  0  0  0  0  0
    0.0742   -6.3678    8.0796 O   0  0  0  0  0  0  0  0  0  0  0  0
    3.2395   -7.4707    5.3726 C   0  0  1  0  0  0  0  0  0  0  0  0
    4.6798   -7.8966    4.9342 C   0  0  0  0  0  0  0  0  0  0  0  0
    2.6322   -6.7000    4.1595 C   0  0  0  0  0  0  0  0  0  0  0  0
    2.4527   -7.5166    2.8690 C   0  0  0  0  0  0  0  0  0  0  0  0
    1.5644   -8.7430    3.1278 C   0  0  1  0  0  0  0  0  0  0  0  0
    0.0685   -8.3223    3.0089 C   0  0  0  0  0  0  0  0  0  0  0  0
   -0.2810   -7.8591    1.7135 O   0  0  0  0  0  0  0  0  0  0  0  0
    4.5700  -10.9482    4.7144 H   0  0  0  0  0  0  0  0  0  0  0  0
    4.6628  -11.5053    3.0770 H   0  0  0  0  0  0  0  0  0  0  0  0
    3.4790  -12.1790    4.1613 H   0  0  0  0  0  0  0  0  0  0  0  0
    0.0668  -11.0162    2.4106 H   0  0  0  0  0  0  0  0  0  0  0  0
    1.3703  -12.1762    2.7191 H   0  0  0  0  0  0  0  0  0  0  0  0
   -0.0051  -10.6007    4.7460 H   0  0  0  0  0  0  0  0  0  0  0  0
    1.4181  -11.6207    5.0451 H   0  0  0  0  0  0  0  0  0  0  0  0
    3.0872   -9.4955    6.1556 H   0  0  0  0  0  0  0  0  0  0  0  0
    0.6268   -7.7481    6.2188 H   0  0  0  0  0  0  0  0  0  0  0  0
    0.4654   -9.4279    6.4215 H   0  0  0  0  0  0  0  0  0  0  0  0
    0.5117   -8.6999    8.5766 H   0  0  0  0  0  0  0  0  0  0  0  0
    1.6420  -10.5880    8.0732 H   0  0  0  0  0  0  0  0  0  0  0  0
    2.8996   -6.6966   10.5854 H   0  0  0  0  0  0  0  0  0  0  0  0
    3.0314   -8.4310   10.4134 H   0  0  0  0  0  0  0  0  0  0  0  0
    1.4508   -7.6795   10.6456 H   0  0  0  0  0  0  0  0  0  0  0  0
    4.2369   -6.6454    8.6205 H   0  0  0  0  0  0  0  0  0  0  0  0
    4.1679   -8.1725    7.7899 H   0  0  0  0  0  0  0  0  0  0  0  0
    4.8000   -5.1581    5.4904 H   0  0  0  0  0  0  0  0  0  0  0  0
    5.6655   -6.1547    6.5239 H   0  0  0  0  0  0  0  0  0  0  0  0
    4.8616   -4.7956    7.2240 H   0  0  0  0  0  0  0  0  0  0  0  0
    2.8732   -4.9588    7.8071 H   0  0  0  0  0  0  0  0  0  0  0  0
    0.6901   -4.7450    6.0081 H   0  0  0  0  0  0  0  0  0  0  0  0
    4.0720   -3.2154    5.8248 H   0  0  0  0  0  0  0  0  0  0  0  0
    4.1692   -3.5672    4.2238 H   0  0  0  0  0  0  0  0  0  0  0  0
    4.1532   -1.2182    4.4660 H   0  0  0  0  0  0  0  0  0  0  0  0
    2.8808   -1.7569    3.4344 H   0  0  0  0  0  0  0  0  0  0  0  0
    0.7811   -1.5548    3.1241 H   0  0  0  0  0  0  0  0  0  0  0  0
   -0.5660   -2.3497    4.0267 H   0  0  0  0  0  0  0  0  0  0  0  0
    0.3199    0.6707    4.2466 H   0  0  0  0  0  0  0  0  0  0  0  0
   -1.9957    0.2000    4.6618 H   0  0  0  0  0  0  0  0  0  0  0  0
    0.1881   -1.0031    8.7731 H   0  0  0  0  0  0  0  0  0  0  0  0
   -0.6253   -0.2221    7.5758 H   0  0  0  0  0  0  0  0  0  0  0  0
    1.1659   -0.1031    7.7113 H   0  0  0  0  0  0  0  0  0  0  0  0
   -1.3701   -3.0384    7.4270 H   0  0  0  0  0  0  0  0  0  0  0  0
   -0.9139   -3.4814    5.7903 H   0  0  0  0  0  0  0  0  0  0  0  0
   -1.7709   -2.0388    6.1930 H   0  0  0  0  0  0  0  0  0  0  0  0
    0.4142   -2.7667    9.3519 H   0  0  0  0  0  0  0  0  0  0  0  0
    1.5622   -3.8193    9.2730 H   0  0  0  0  0  0  0  0  0  0  0  0
   -0.1022   -4.1174    8.5448 H   0  0  0  0  0  0  0  0  0  0  0  0
    2.6271   -1.6429    8.4950 H   0  0  0  0  0  0  0  0  0  0  0  0
    3.2308   -1.8217    6.9680 H   0  0  0  0  0  0  0  0  0  0  0  0
    3.5071   -3.1113    8.0723 H   0  0  0  0  0  0  0  0  0  0  0  0
    1.5700   -5.7037    9.1918 H   0  0  0  0  0  0  0  0  0  0  0  0
   -0.0850   -6.7617    7.2649 H   0  0  0  0  0  0  0  0  0  0  0  0
    5.2775   -7.0818    4.5300 H   0  0  0  0  0  0  0  0  0  0  0  0
    4.7184   -8.6049    4.1307 H   0  0  0  0  0  0  0  0  0  0  0  0
    5.2362   -8.3539    5.7508 H   0  0  0  0  0  0  0  0  0  0  0  0
    1.6591   -6.3092    4.4514 H   0  0  0  0  0  0  0  0  0  0  0  0
    3.2601   -5.8520    3.9124 H   0  0  0  0  0  0  0  0  0  0  0  0
    2.0261   -6.8678    2.1000 H   0  0  0  0  0  0  0  0  0  0  0  0
    3.4294   -7.7865    2.4708 H   0  0  0  0  0  0  0  0  0  0  0  0
   -0.6507   -9.0887    3.2830 H   0  0  0  0  0  0  0  0  0  0  0  0
   -0.1499   -7.5144    3.7056 H   0  0  0  0  0  0  0  0  0  0  0  0
   -0.2078   -8.5966    1.1216 H   0  0  0  0  0  0  0  0  0  0  0  0
  1  2  1  0
  1 41  1  0
  1 42  1  0
  1 43  1  0
  2  6  1  0
  2  3  2  0
  3 38  1  0
  3  4  1  0
  4  5  1  0
  4 44  1  0
  4 45  1  0
  6  5  1  1
  5 46  1  0
  5 47  1  0
  6 38  1  0
  6  7  1  0
  7 34  1  0
  7  8  1  0
  7 48  1  1
  8  9  1  0
  8 49  1  0
  8 50  1  0
  9 10  1  0
  9 11  1  0
  9 51  1  1
 10 52  1  0
 11 32  1  0
 11 12  1  1
 11 13  1  0
 12 53  1  0
 12 54  1  0
 12 55  1  0
 13 14  1  0
 13 56  1  0
 13 57  1  0
 14 15  1  6
 14 16  1  0
 14 34  1  0
 15 58  1  0
 15 59  1  0
 15 60  1  0
 16 17  1  0
 16 32  1  0
 16 61  1  1
 17 29  1  0
 17 18  1  0
 17 62  1  6
 18 19  1  0
 19 20  1  0
 19 63  1  0
 19 64  1  0
 20 21  1  0
 20 65  1  0
 20 66  1  0
 22 21  1  6
 22 24  1  0
 22 23  1  0
 22 26  1  0
 23 24  1  0
 23 67  1  0
 23 68  1  0
 24 25  1  0
 24 69  1  6
 25 70  1  0
 26 27  1  0
 26 28  1  0
 26 29  1  0
 27 71  1  0
 27 72  1  0
 27 73  1  0
 28 74  1  0
 28 75  1  0
 28 76  1  0
 29 30  1  0
 29 31  1  0
 30 77  1  0
 30 78  1  0
 30 79  1  0
 31 80  1  0
 31 81  1  0
 31 82  1  0
 32 33  1  0
 32 83  1  1
 33 84  1  0
 34 35  1  6
 34 36  1  0
 35 85  1  0
 35 86  1  0
 35 87  1  0
 36 37  1  0
 36 88  1  0
 36 89  1  0
 37 38  1  0
 37 90  1  0
 37 91  1  0
 38 39  1  1
 39 40  1  0
 39 92  1  0
 39 93  1  0
 40 94  1  0
M  END
>  <i_m_ct_stereo_status>  (211) 
1

>  <s_m_source_file>  (211) 
/var/tmp/pbs.5076255.sched01/tmpbhhv4xqx/80i1gy0gug.sdf

>  <i_m_source_file_index>  (211) 
17

>  <i_lp_mmshare_version>  (211) 
48012

>  <i_f3d_flags>  (211) 
0

>  <s_epik_input>  (211) 
W0NIM11DMT1DKFtDSDJdW0NIMl0yKVtDQF0zKFtDSDJdW09IXSlbQ0gyXVtDSDJdW0NAQF0oW0NAQEhdNFtDQEBdMTIzKShbQ0gzXSlbQ0BdNShbQ0gzXSlbQ0gyXVtDQF0oW0NIM10pKFtDQEBIXShbQ0gyXTQpW09IXSlbQ0BIXShbT0hdKVtDQEBIXTVbQ0BASF0oQyhbQ0gzXSkoW0NIM10pQzYoW0NIM10pW0NIM10pT1tDSDJdW0NIMl1PW0NAQF02N1tDSDJdW0NASF03W09IXQ==

>  <s_epik_cmdline>  (211) 
J2VwaWtfcHl0aG9uJywgJy1waHQnLCAnMi4wJywgJy1waCcsICc3LjAnLCAnLXRuJywgJzgnLCAnLW1hJywgJzIwMCcsICctaW1hZScsICc8aW5maWxlLm1hZT4nLCAnLW9tYWUnLCAnPG91dGZpbGUubWFlPic=

>  <r_lp_tautomer_probability>  (211) 
1

>  <r_epik_Ionization_Penalty>  (211) 
2.43995e-06

>  <r_epik_Ionization_Penalty_Charging>  (211) 
0

>  <r_epik_Ionization_Penalty_Neutral>  (211) 
2.43995e-06

>  <r_epik_State_Penalty>  (211) 
-0

>  <r_epik_Charging_Adjusted_Penalty>  (211) 
0

>  <i_epik_Tot_Q>  (211) 
0

>  <i_epik_Tot_abs_Q>  (211) 
0

>  <s_lp_Force_Field>  (211) 
OPLS3e

>  <r_lp_Energy>  (211) 
208.964

>  <b_lp_Chiralities_Consistent>  (211) 
1

>  <s_lp_Variant>  (211) 
67:0-1

>  <s_i_glide_gridfile>  (211) 
pfpi4k_grid

>  <i_i_glide_lignum>  (211) 
17

>  <i_i_glide_rotatable_bonds>  (211) 
6

>  <r_i_docking_score>  (211) 
-2.28475

>  <r_i_glide_ligand_efficiency>  (211) 
-0.0571188

>  <r_i_glide_ligand_efficiency_sa>  (211) 
-0.195344

>  <r_i_glide_ligand_efficiency_ln>  (211) 
-0.487271

>  <r_i_glide_gscore>  (211) 
-2.28475

>  <r_i_glide_lipo>  (211) 
-0.217483

>  <r_i_glide_hbond>  (211) 
-0.456

>  <r_i_glide_metal>  (211) 
-0

>  <r_i_glide_rewards>  (211) 
0

>  <r_i_glide_evdw>  (211) 
-25.8476

>  <r_i_glide_ecoul>  (211) 
-9.89262

>  <r_i_glide_erotb>  (211) 
0.0548549

>  <r_i_glide_esite>  (211) 
0

>  <r_i_glide_emodel>  (211) 
-36.1007

>  <r_i_glide_energy>  (211) 
-35.7402

>  <r_i_glide_einternal>  (211) 
1.1921

>  <r_i_glide_intrahb_reward>  (211) 
-0

>  <i_i_glide_confnum>  (211) 
2

>  <i_i_glide_posenum>  (211) 
17

>  <r_i_glide_eff_state_penalty>  (211) 
0

>  <ligand_id>  (211) 
67

>  <original_smiles>  (211) 
CC1=C2CCC13C1CC(O)C4(C)CC(C)(C(C5OCCOC6(CC6O)C(C)(C)C5(C)C)C4O)C1(C)CCC23CO

>  <smiles>  (211) 
[H]OC([H])([H])C12C3=C(C([H])([H])[H])C1(C([H])([H])C3([H])[H])C1([H])C([H])([H])C([H])(O[H])C3(C([H])([H])[H])C([H])([H])C(C([H])([H])[H])(C([H])(C4([H])OC([H])([H])C([H])([H])OC5(C([H])([H])C5([H])O[H])C(C([H])([H])[H])(C([H])([H])[H])C4(C([H])([H])[H])C([H])([H])[H])C3([H])O[H])C1(C([H])([H])[H])C([H])([H])C2([H])[H]

$$$$
67:0:2
     RDKit          3D

 94100  0  0  1  0  0  0  0  0999 V2000
    2.9451  -10.9824    4.8023 C   0  0  0  0  0  0  0  0  0  0  0  0
    2.5761   -9.8852    3.8284 C   0  0  0  0  0  0  0  0  0  0  0  0
    1.8852   -9.9238    2.6133 C   0  0  0  0  0  0  0  0  0  0  0  0
    0.5612  -10.5368    2.8785 C   0  0  0  0  0  0  0  0  0  0  0  0
    0.2609   -9.6978    4.1805 C   0  0  0  0  0  0  0  0  0  0  0  0
    1.5205   -8.8079    4.1264 C   0  0  1  0  0  0  0  0  0  0  0  0
    1.8629   -7.8105    5.2860 C   0  0  2  0  0  0  0  0  0  0  0  0
    0.5831   -7.0464    5.6396 C   0  0  0  0  0  0  0  0  0  0  0  0
    0.4226   -6.6407    7.1219 C   0  0  1  0  0  0  0  0  0  0  0  0
    0.5069   -7.7763    7.9558 O   0  0  0  0  0  0  0  0  0  0  0  0
    1.3665   -5.5128    7.5848 C   0  0  1  0  0  0  0  0  0  0  0  0
    1.0844   -5.1576    9.0652 C   0  0  0  0  0  0  0  0  0  0  0  0
    2.8663   -5.8782    7.4150 C   0  0  0  0  0  0  0  0  0  0  0  0
    3.3171   -5.5278    5.9737 C   0  0  2  0  0  0  0  0  0  0  0  0
    4.8302   -5.1210    6.0700 C   0  0  0  0  0  0  0  0  0  0  0  0
    2.4287   -4.2448    5.7590 C   0  0  1  0  0  0  0  0  0  0  0  0
    2.4906   -3.2713    4.5291 C   0  0  2  0  0  0  0  0  0  0  0  0
    3.3844   -3.6153    3.4581 O   0  0  0  0  0  0  0  0  0  0  0  0
    4.7770   -3.2768    3.5558 C   0  0  0  0  0  0  0  0  0  0  0  0
    5.1754   -2.0832    2.6072 C   0  0  0  0  0  0  0  0  0  0  0  0
    4.5380   -0.8173    2.8384 O   0  0  0  0  0  0  0  0  0  0  0  0
    3.0965   -0.7176    2.6068 C   0  0  2  0  0  0  0  0  0  0  0  0
    2.6339   -1.2179    1.2712 C   0  0  0  0  0  0  0  0  0  0  0  0
    2.7929    0.2239    1.4523 C   0  0  1  0  0  0  0  0  0  0  0  0
    1.5931    1.0269    1.5567 O   0  0  0  0  0  0  0  0  0  0  0  0
    2.1937   -0.6799    3.9013 C   0  0  0  0  0  0  0  0  0  0  0  0
    2.3301    0.7428    4.4521 C   0  0  0  0  0  0  0  0  0  0  0  0
    0.7026   -0.9638    3.4932 C   0  0  0  0  0  0  0  0  0  0  0  0
    2.5405   -1.7342    5.0261 C   0  0  0  0  0  0  0  0  0  0  0  0
    1.5295   -1.4996    6.1635 C   0  0  0  0  0  0  0  0  0  0  0  0
    3.9230   -1.4278    5.6502 C   0  0  0  0  0  0  0  0  0  0  0  0
    1.1798   -4.3058    6.6859 C   0  0  1  0  0  0  0  0  0  0  0  0
   -0.0572   -4.1205    6.0328 O   0  0  0  0  0  0  0  0  0  0  0  0
    3.1368   -6.8441    5.0053 C   0  0  1  0  0  0  0  0  0  0  0  0
    4.4138   -7.7268    5.2157 C   0  0  0  0  0  0  0  0  0  0  0  0
    3.1499   -6.4193    3.5174 C   0  0  0  0  0  0  0  0  0  0  0  0
    3.0720   -7.5321    2.4636 C   0  0  0  0  0  0  0  0  0  0  0  0
    1.7653   -8.3659    2.7072 C   0  0  1  0  0  0  0  0  0  0  0  0
    0.5783   -7.6676    1.9563 C   0  0  0  0  0  0  0  0  0  0  0  0
    0.1636   -6.4833    2.6044 O   0  0  0  0  0  0  0  0  0  0  0  0
    3.3746  -10.5485    5.7189 H   0  0  0  0  0  0  0  0  0  0  0  0
    3.7102  -11.6340    4.3906 H   0  0  0  0  0  0  0  0  0  0  0  0
    2.1239  -11.6078    5.1226 H   0  0  0  0  0  0  0  0  0  0  0  0
   -0.1339  -10.3624    2.0843 H   0  0  0  0  0  0  0  0  0  0  0  0
    0.6107  -11.6126    3.0769 H   0  0  0  0  0  0  0  0  0  0  0  0
   -0.6706   -9.1713    4.0484 H   0  0  0  0  0  0  0  0  0  0  0  0
    0.2047  -10.3224    5.0581 H   0  0  0  0  0  0  0  0  0  0  0  0
    2.1217   -8.4044    6.1362 H   0  0  0  0  0  0  0  0  0  0  0  0
    0.4454   -6.1863    4.9842 H   0  0  0  0  0  0  0  0  0  0  0  0
   -0.3142   -7.6433    5.4607 H   0  0  0  0  0  0  0  0  0  0  0  0
   -0.5920   -6.2585    7.2482 H   0  0  0  0  0  0  0  0  0  0  0  0
    1.3475   -8.1985    7.7657 H   0  0  0  0  0  0  0  0  0  0  0  0
    1.6975   -4.3227    9.4146 H   0  0  0  0  0  0  0  0  0  0  0  0
    1.2959   -5.9971    9.7235 H   0  0  0  0  0  0  0  0  0  0  0  0
    0.0428   -4.8669    9.2029 H   0  0  0  0  0  0  0  0  0  0  0  0
    3.4423   -5.2471    8.0936 H   0  0  0  0  0  0  0  0  0  0  0  0
    3.1023   -6.9064    7.6919 H   0  0  0  0  0  0  0  0  0  0  0  0
    5.2790   -5.0440    5.0855 H   0  0  0  0  0  0  0  0  0  0  0  0
    5.4407   -5.8318    6.6041 H   0  0  0  0  0  0  0  0  0  0  0  0
    4.9906   -4.1838    6.5890 H   0  0  0  0  0  0  0  0  0  0  0  0
    3.0031   -3.6028    6.4710 H   0  0  0  0  0  0  0  0  0  0  0  0
    1.4914   -3.4827    4.0737 H   0  0  0  0  0  0  0  0  0  0  0  0
    5.1633   -3.1681    4.5567 H   0  0  0  0  0  0  0  0  0  0  0  0
    5.4242   -4.1348    3.2243 H   0  0  0  0  0  0  0  0  0  0  0  0
    6.2746   -1.9483    2.7816 H   0  0  0  0  0  0  0  0  0  0  0  0
    5.1069   -2.4234    1.5849 H   0  0  0  0  0  0  0  0  0  0  0  0
    3.3533   -1.7272    0.6137 H   0  0  0  0  0  0  0  0  0  0  0  0
    1.6279   -1.7110    1.2505 H   0  0  0  0  0  0  0  0  0  0  0  0
    3.5678    0.7720    0.9278 H   0  0  0  0  0  0  0  0  0  0  0  0
    0.9664    0.7467    0.8645 H   0  0  0  0  0  0  0  0  0  0  0  0
    1.9252    0.9150    5.4845 H   0  0  0  0  0  0  0  0  0  0  0  0
    1.7449    1.4429    3.9281 H   0  0  0  0  0  0  0  0  0  0  0  0
    3.3404    1.0804    4.5500 H   0  0  0  0  0  0  0  0  0  0  0  0
    0.0298   -0.8378    4.3113 H   0  0  0  0  0  0  0  0  0  0  0  0
    0.5775   -1.9422    3.0641 H   0  0  0  0  0  0  0  0  0  0  0  0
    0.3055   -0.2653    2.7761 H   0  0  0  0  0  0  0  0  0  0  0  0
    1.3688   -0.4695    6.4994 H   0  0  0  0  0  0  0  0  0  0  0  0
    1.9582   -1.8510    7.0850 H   0  0  0  0  0  0  0  0  0  0  0  0
    0.5475   -1.8401    5.9974 H   0  0  0  0  0  0  0  0  0  0  0  0
    3.9470   -0.4854    6.1220 H   0  0  0  0  0  0  0  0  0  0  0  0
    4.7165   -1.3542    4.9256 H   0  0  0  0  0  0  0  0  0  0  0  0
    4.2310   -2.1791    6.3792 H   0  0  0  0  0  0  0  0  0  0  0  0
    1.1808   -3.5033    7.4153 H   0  0  0  0  0  0  0  0  0  0  0  0
    0.0006   -3.3153    5.5137 H   0  0  0  0  0  0  0  0  0  0  0  0
    5.3231   -7.2510    4.8590 H   0  0  0  0  0  0  0  0  0  0  0  0
    4.4258   -8.6528    4.6649 H   0  0  0  0  0  0  0  0  0  0  0  0
    4.5519   -7.9971    6.2611 H   0  0  0  0  0  0  0  0  0  0  0  0
    2.3375   -5.7208    3.3455 H   0  0  0  0  0  0  0  0  0  0  0  0
    4.0741   -5.8826    3.3000 H   0  0  0  0  0  0  0  0  0  0  0  0
    3.0691   -7.1105    1.4699 H   0  0  0  0  0  0  0  0  0  0  0  0
    3.9485   -8.1467    2.5119 H   0  0  0  0  0  0  0  0  0  0  0  0
    0.8159   -7.3943    0.9380 H   0  0  0  0  0  0  0  0  0  0  0  0
   -0.3322   -8.2878    1.9035 H   0  0  0  0  0  0  0  0  0  0  0  0
    0.2044   -6.6564    3.5437 H   0  0  0  0  0  0  0  0  0  0  0  0
  1  2  1  0
  1 41  1  0
  1 42  1  0
  1 43  1  0
  2  6  1  0
  2  3  2  0
  3 38  1  0
  3  4  1  0
  4  5  1  0
  4 44  1  0
  4 45  1  0
  6  5  1  6
  5 46  1  0
  5 47  1  0
  6 38  1  0
  6  7  1  0
  7 34  1  0
  7  8  1  0
  7 48  1  1
  8  9  1  0
  8 49  1  0
  8 50  1  0
  9 10  1  0
  9 11  1  0
  9 51  1  6
 10 52  1  0
 11 32  1  0
 11 12  1  1
 11 13  1  0
 12 53  1  0
 12 54  1  0
 12 55  1  0
 13 14  1  0
 13 56  1  0
 13 57  1  0
 14 15  1  1
 14 16  1  0
 14 34  1  0
 15 58  1  0
 15 59  1  0
 15 60  1  0
 16 17  1  0
 16 32  1  0
 16 61  1  1
 17 29  1  0
 17 18  1  0
 17 62  1  6
 18 19  1  0
 19 20  1  0
 19 63  1  0
 19 64  1  0
 20 21  1  0
 20 65  1  0
 20 66  1  0
 22 21  1  1
 22 24  1  0
 22 23  1  0
 22 26  1  0
 23 24  1  0
 23 67  1  0
 23 68  1  0
 24 25  1  0
 24 69  1  6
 25 70  1  0
 26 27  1  0
 26 28  1  0
 26 29  1  0
 27 71  1  0
 27 72  1  0
 27 73  1  0
 28 74  1  0
 28 75  1  0
 28 76  1  0
 29 30  1  0
 29 31  1  0
 30 77  1  0
 30 78  1  0
 30 79  1  0
 31 80  1  0
 31 81  1  0
 31 82  1  0
 32 33  1  0
 32 83  1  1
 33 84  1  0
 34 35  1  6
 34 36  1  0
 35 85  1  0
 35 86  1  0
 35 87  1  0
 36 37  1  0
 36 88  1  0
 36 89  1  0
 37 38  1  0
 37 90  1  0
 37 91  1  0
 38 39  1  6
 39 40  1  0
 39 92  1  0
 39 93  1  0
 40 94  1  0
M  END
>  <i_m_ct_stereo_status>  (212) 
1

>  <s_m_source_file>  (212) 
/var/tmp/pbs.5076255.sched01/tmpbhhv4xqx/80i1gy0gug.sdf

>  <i_m_source_file_index>  (212) 
17

>  <i_lp_mmshare_version>  (212) 
48012

>  <i_f3d_flags>  (212) 
0

>  <s_epik_input>  (212) 
W0NIM11DMT1DKFtDSDJdW0NIMl0yKVtDQF0zKFtDSDJdW09IXSlbQ0gyXVtDSDJdW0NAQF0oW0NAQEhdNFtDQEBdMTIzKShbQ0gzXSlbQ0BdNShbQ0gzXSlbQ0gyXVtDQF0oW0NIM10pKFtDQEBIXShbQ0gyXTQpW09IXSlbQ0BIXShbT0hdKVtDQEBIXTVbQ0BASF0oQyhbQ0gzXSkoW0NIM10pQzYoW0NIM10pW0NIM10pT1tDSDJdW0NIMl1PW0NAQF02N1tDSDJdW0NASF03W09IXQ==

>  <s_epik_cmdline>  (212) 
J2VwaWtfcHl0aG9uJywgJy1waHQnLCAnMi4wJywgJy1waCcsICc3LjAnLCAnLXRuJywgJzgnLCAnLW1hJywgJzIwMCcsICctaW1hZScsICc8aW5maWxlLm1hZT4nLCAnLW9tYWUnLCAnPG91dGZpbGUubWFlPic=

>  <r_lp_tautomer_probability>  (212) 
1

>  <r_epik_Ionization_Penalty>  (212) 
2.43995e-06

>  <r_epik_Ionization_Penalty_Charging>  (212) 
0

>  <r_epik_Ionization_Penalty_Neutral>  (212) 
2.43995e-06

>  <r_epik_State_Penalty>  (212) 
-0

>  <r_epik_Charging_Adjusted_Penalty>  (212) 
0

>  <i_epik_Tot_Q>  (212) 
0

>  <i_epik_Tot_abs_Q>  (212) 
0

>  <s_lp_Force_Field>  (212) 
OPLS3e

>  <r_lp_Energy>  (212) 
208.964

>  <b_lp_Chiralities_Consistent>  (212) 
1

>  <s_lp_Variant>  (212) 
67:0-1

>  <s_i_glide_gridfile>  (212) 
pfpi4k_grid

>  <i_i_glide_lignum>  (212) 
17

>  <i_i_glide_rotatable_bonds>  (212) 
6

>  <r_i_docking_score>  (212) 
-1.79219

>  <r_i_glide_ligand_efficiency>  (212) 
-0.0448048

>  <r_i_glide_ligand_efficiency_sa>  (212) 
-0.15323

>  <r_i_glide_ligand_efficiency_ln>  (212) 
-0.382222

>  <r_i_glide_gscore>  (212) 
-1.79219

>  <r_i_glide_lipo>  (212) 
-0.286979

>  <r_i_glide_hbond>  (212) 
-0.155783

>  <r_i_glide_metal>  (212) 
-0

>  <r_i_glide_rewards>  (212) 
0

>  <r_i_glide_evdw>  (212) 
-30.4283

>  <r_i_glide_ecoul>  (212) 
-5.46267

>  <r_i_glide_erotb>  (212) 
0.0548549

>  <r_i_glide_esite>  (212) 
0

>  <r_i_glide_emodel>  (212) 
-34.2375

>  <r_i_glide_energy>  (212) 
-35.891

>  <r_i_glide_einternal>  (212) 
2.92107

>  <r_i_glide_intrahb_reward>  (212) 
-0

>  <i_i_glide_confnum>  (212) 
3

>  <i_i_glide_posenum>  (212) 
36

>  <r_i_glide_eff_state_penalty>  (212) 
0

>  <ligand_id>  (212) 
67

>  <original_smiles>  (212) 
CC1=C2CCC13C1CC(O)C4(C)CC(C)(C(C5OCCOC6(CC6O)C(C)(C)C5(C)C)C4O)C1(C)CCC23CO

>  <smiles>  (212) 
[H]OC([H])([H])C12C3=C(C([H])([H])[H])C1(C([H])([H])C3([H])[H])C1([H])C([H])([H])C([H])(O[H])C3(C([H])([H])[H])C([H])([H])C(C([H])([H])[H])(C([H])(C4([H])OC([H])([H])C([H])([H])OC5(C([H])([H])C5([H])O[H])C(C([H])([H])[H])(C([H])([H])[H])C4(C([H])([H])[H])C([H])([H])[H])C3([H])O[H])C1(C([H])([H])[H])C([H])([H])C2([H])[H]

$$$$
68:0:0
     RDKit          3D

 48 51  0  0  1  0  0  0  0  0999 V2000
    5.6405   -4.8787    3.7912 C   0  0  0  0  0  0  0  0  0  0  0  0
    4.6981   -5.6555    2.8709 C   0  0  2  0  0  0  0  0  0  0  0  0
    5.3283   -6.3410    1.6267 C   0  0  0  0  0  0  0  0  0  0  0  0
    4.4223   -5.8286    0.4690 C   0  0  1  0  0  0  0  0  0  0  0  0
    3.0350   -5.9610    1.1860 C   0  0  0  0  0  0  0  0  0  0  0  0
    1.7843   -5.6486    0.3183 C   0  0  0  0  0  0  0  0  0  0  0  0
    2.6518   -7.3860    1.7177 C   0  0  0  0  0  0  0  0  0  0  0  0
    3.4644   -4.9205    2.2718 C   0  0  2  0  0  0  0  0  0  0  0  0
    3.7800   -3.7121    1.3375 C   0  0  1  0  0  0  0  0  0  0  0  0
    4.3658   -2.3181    1.5857 C   0  0  2  0  0  0  0  0  0  0  0  0
    3.8122   -1.4348    0.4212 C   0  0  0  0  0  0  0  0  0  0  0  0
    3.9224   -2.0542   -1.0162 C   0  0  1  0  0  0  0  0  0  0  0  0
    4.8864   -1.2631   -1.9220 C   0  0  0  0  0  0  0  0  0  0  0  0
    4.0818   -3.6151   -1.0777 C   0  0  1  0  0  0  0  0  0  0  0  0
    4.7574   -4.0390   -2.2402 O   0  0  0  0  0  0  0  0  0  0  0  0
    4.6593   -4.2718    0.2216 C   0  0  2  0  0  0  0  0  0  0  0  0
    6.1010   -3.6881    0.5304 C   0  0  1  0  0  0  0  0  0  0  0  0
    6.9116   -3.4246   -0.5989 O   0  0  0  0  0  0  0  0  0  0  0  0
    5.8835   -2.4753    1.4542 C   0  0  1  0  0  0  0  0  0  0  0  0
    6.5742   -1.3001    1.0619 O   0  0  0  0  0  0  0  0  0  0  0  0
    6.5931   -4.6838    3.3067 H   0  0  0  0  0  0  0  0  0  0  0  0
    5.8677   -5.4630    4.6840 H   0  0  0  0  0  0  0  0  0  0  0  0
    5.2043   -3.9363    4.1251 H   0  0  0  0  0  0  0  0  0  0  0  0
    4.3087   -6.4290    3.5329 H   0  0  0  0  0  0  0  0  0  0  0  0
    6.3973   -6.2121    1.5013 H   0  0  0  0  0  0  0  0  0  0  0  0
    5.2599   -7.4235    1.7050 H   0  0  0  0  0  0  0  0  0  0  0  0
    4.5207   -6.4285   -0.4363 H   0  0  0  0  0  0  0  0  0  0  0  0
    0.8729   -5.8767    0.8668 H   0  0  0  0  0  0  0  0  0  0  0  0
    1.7775   -6.2526   -0.5789 H   0  0  0  0  0  0  0  0  0  0  0  0
    1.6315   -4.6416   -0.0322 H   0  0  0  0  0  0  0  0  0  0  0  0
    1.7170   -7.3497    2.2760 H   0  0  0  0  0  0  0  0  0  0  0  0
    3.3409   -7.8855    2.3905 H   0  0  0  0  0  0  0  0  0  0  0  0
    2.5016   -8.0749    0.8846 H   0  0  0  0  0  0  0  0  0  0  0  0
    2.6908   -4.6970    3.0113 H   0  0  0  0  0  0  0  0  0  0  0  0
    2.7815   -3.4414    1.0200 H   0  0  0  0  0  0  0  0  0  0  0  0
    4.0820   -1.8979    2.5523 H   0  0  0  0  0  0  0  0  0  0  0  0
    2.7598   -1.2355    0.6133 H   0  0  0  0  0  0  0  0  0  0  0  0
    4.2741   -0.4459    0.4397 H   0  0  0  0  0  0  0  0  0  0  0  0
    2.9521   -1.8635   -1.4832 H   0  0  0  0  0  0  0  0  0  0  0  0
    5.9212   -1.3126   -1.5951 H   0  0  0  0  0  0  0  0  0  0  0  0
    4.6007   -0.2120   -1.9513 H   0  0  0  0  0  0  0  0  0  0  0  0
    4.8401   -1.6162   -2.9540 H   0  0  0  0  0  0  0  0  0  0  0  0
    3.0867   -3.9918   -1.2639 H   0  0  0  0  0  0  0  0  0  0  0  0
    4.3957   -4.8934   -2.4685 H   0  0  0  0  0  0  0  0  0  0  0  0
    6.7546   -4.3299    1.1007 H   0  0  0  0  0  0  0  0  0  0  0  0
    6.3378   -3.1099   -1.2865 H   0  0  0  0  0  0  0  0  0  0  0  0
    6.2645   -2.7090    2.4440 H   0  0  0  0  0  0  0  0  0  0  0  0
    6.5408   -0.6794    1.7727 H   0  0  0  0  0  0  0  0  0  0  0  0
  1  2  1  0
  1 21  1  0
  1 22  1  0
  1 23  1  0
  2  8  1  0
  2  3  1  0
  2 24  1  1
  3  4  1  0
  3 25  1  0
  3 26  1  0
 16  4  1  6
  4  5  1  0
  4 27  1  6
  5  6  1  0
  5  7  1  0
  5  8  1  0
  6 28  1  0
  6 29  1  0
  6 30  1  0
  7 31  1  0
  7 32  1  0
  7 33  1  0
  8  9  1  0
  8 34  1  1
  9 16  1  0
  9 10  1  0
  9 35  1  6
 10 19  1  0
 10 11  1  0
 10 36  1  1
 11 12  1  0
 11 37  1  0
 11 38  1  0
 12 13  1  0
 12 14  1  0
 12 39  1  6
 13 40  1  0
 13 41  1  0
 13 42  1  0
 14 15  1  0
 14 16  1  0
 14 43  1  6
 15 44  1  0
 16 17  1  0
 17 18  1  0
 17 19  1  0
 17 45  1  1
 18 46  1  0
 19 20  1  0
 19 47  1  1
 20 48  1  0
M  END
>  <i_m_ct_stereo_status>  (213) 
1

>  <s_m_source_file>  (213) 
/var/tmp/pbs.5076255.sched01/tmpbhhv4xqx/80i1gy0gug.sdf

>  <i_m_source_file_index>  (213) 
18

>  <i_lp_mmshare_version>  (213) 
48012

>  <i_f3d_flags>  (213) 
0

>  <s_epik_input>  (213) 
W0NAQF0xMjNbQ0BIXTRbQ0gyXVtDQEBIXShbQ0gzXSlbQ0BIXShDNChbQ0gzXSlbQ0gzXSlbQ0BIXTFbQ0BASF0oW0NASF0oW09IXSlbQ0BASF0zW09IXSlbQ0gyXVtDQEBIXShbQ0gzXSlbQ0BIXTJbT0hd

>  <s_epik_cmdline>  (213) 
J2VwaWtfcHl0aG9uJywgJy1waHQnLCAnMi4wJywgJy1waCcsICc3LjAnLCAnLXRuJywgJzgnLCAnLW1hJywgJzIwMCcsICctaW1hZScsICc8aW5maWxlLm1hZT4nLCAnLW9tYWUnLCAnPG91dGZpbGUubWFlPic=

>  <r_lp_tautomer_probability>  (213) 
1

>  <r_epik_Ionization_Penalty>  (213) 
2.14229e-06

>  <r_epik_Ionization_Penalty_Charging>  (213) 
0

>  <r_epik_Ionization_Penalty_Neutral>  (213) 
2.14229e-06

>  <r_epik_State_Penalty>  (213) 
-0

>  <r_epik_Charging_Adjusted_Penalty>  (213) 
0

>  <i_epik_Tot_Q>  (213) 
0

>  <i_epik_Tot_abs_Q>  (213) 
0

>  <s_lp_Force_Field>  (213) 
OPLS3e

>  <r_lp_Energy>  (213) 
101.581

>  <b_lp_Chiralities_Consistent>  (213) 
1

>  <s_lp_Variant>  (213) 
68:0-1

>  <s_i_glide_gridfile>  (213) 
pfpi4k_grid

>  <i_i_glide_lignum>  (213) 
18

>  <i_i_glide_rotatable_bonds>  (213) 
3

>  <r_i_docking_score>  (213) 
-3.61241

>  <r_i_glide_ligand_efficiency>  (213) 
-0.18062

>  <r_i_glide_ligand_efficiency_sa>  (213) 
-0.490279

>  <r_i_glide_ligand_efficiency_ln>  (213) 
-0.904066

>  <r_i_glide_gscore>  (213) 
-3.61241

>  <r_i_glide_lipo>  (213) 
-0.402071

>  <r_i_glide_hbond>  (213) 
0

>  <r_i_glide_metal>  (213) 
-0

>  <r_i_glide_rewards>  (213) 
-1.49726

>  <r_i_glide_evdw>  (213) 
-19.7353

>  <r_i_glide_ecoul>  (213) 
-4.84208

>  <r_i_glide_erotb>  (213) 
0

>  <r_i_glide_esite>  (213) 
0

>  <r_i_glide_emodel>  (213) 
-28.7584

>  <r_i_glide_energy>  (213) 
-24.5774

>  <r_i_glide_einternal>  (213) 
1.4735

>  <r_i_glide_intrahb_reward>  (213) 
-0

>  <i_i_glide_confnum>  (213) 
1

>  <i_i_glide_posenum>  (213) 
34

>  <r_i_glide_eff_state_penalty>  (213) 
0

>  <ligand_id>  (213) 
68

>  <original_smiles>  (213) 
CC1CC2C(C)(C)C1C1C3CC(C)C(O)C12C(O)C3O

>  <smiles>  (213) 
[H]OC1([H])C([H])(O[H])C23C([H])(O[H])C([H])(C([H])([H])[H])C([H])([H])C1([H])C2([H])C1([H])C([H])(C([H])([H])[H])C([H])([H])C3([H])C1(C([H])([H])[H])C([H])([H])[H]

$$$$
69:0:0
     RDKit          3D

 34 37  0  0  1  0  0  0  0  0999 V2000
    1.0523   -6.5426    4.0619 O   0  0  0  0  0  0  0  0  0  0  0  0
    0.6267   -6.4020    2.8936 C   0  0  0  0  0  0  0  0  0  0  0  0
   -0.5518   -6.6561    2.5550 O   0  0  0  0  0  0  0  0  0  0  0  0
    1.5332   -5.7888    1.8565 C   0  0  0  0  0  0  0  0  0  0  0  0
    2.5360   -4.8478    2.2341 C   0  0  0  0  0  0  0  0  0  0  0  0
    3.0625   -4.4273    1.0393 C   0  0  0  0  0  0  0  0  0  0  0  0
    4.1519   -3.4848    0.6274 C   0  0  1  0  0  0  0  0  0  0  0  0
    3.5924   -2.3422   -0.2641 C   0  0  0  0  0  0  0  0  0  0  0  0
    4.7232   -1.3931   -0.7140 C   0  0  2  0  0  0  0  0  0  0  0  0
    5.7672   -2.1891   -1.5201 C   0  0  0  0  0  0  0  0  0  0  0  0
    6.3593   -3.2936   -0.6275 C   0  0  1  0  0  0  0  0  0  0  0  0
    7.0244   -2.6758    0.6144 C   0  0  0  0  0  0  0  0  0  0  0  0
    5.9690   -1.8774    1.4038 C   0  0  1  0  0  0  0  0  0  0  0  0
    5.3926   -0.7586    0.5208 C   0  0  0  0  0  0  0  0  0  0  0  0
    4.8401   -2.8300    1.8557 C   0  0  0  0  0  0  0  0  0  0  0  0
    5.2347   -4.2483   -0.1843 C   0  0  0  0  0  0  0  0  0  0  0  0
    2.4001   -5.0317    0.0241 O   0  0  0  0  0  0  0  0  0  0  0  0
    1.4192   -5.8700    0.5431 N   0  0  0  0  0  0  0  0  0  0  0  0
    2.7986   -4.5073    3.2237 H   0  0  0  0  0  0  0  0  0  0  0  0
    3.0982   -2.7525   -1.1472 H   0  0  0  0  0  0  0  0  0  0  0  0
    2.8259   -1.7769    0.2733 H   0  0  0  0  0  0  0  0  0  0  0  0
    4.3101   -0.6041   -1.3416 H   0  0  0  0  0  0  0  0  0  0  0  0
    5.3040   -2.6277   -2.4055 H   0  0  0  0  0  0  0  0  0  0  0  0
    6.5513   -1.5308   -1.8773 H   0  0  0  0  0  0  0  0  0  0  0  0
    7.1087   -3.8458   -1.1907 H   0  0  0  0  0  0  0  0  0  0  0  0
    7.4350   -3.4655    1.2436 H   0  0  0  0  0  0  0  0  0  0  0  0
    7.8580   -2.0357    0.3296 H   0  0  0  0  0  0  0  0  0  0  0  0
    6.4339   -1.4322    2.2832 H   0  0  0  0  0  0  0  0  0  0  0  0
    6.1780   -0.0681    0.2232 H   0  0  0  0  0  0  0  0  0  0  0  0
    4.6626   -0.1731    1.0797 H   0  0  0  0  0  0  0  0  0  0  0  0
    4.1077   -2.2733    2.4475 H   0  0  0  0  0  0  0  0  0  0  0  0
    5.2518   -3.5993    2.5138 H   0  0  0  0  0  0  0  0  0  0  0  0
    5.6528   -5.0643    0.4086 H   0  0  0  0  0  0  0  0  0  0  0  0
    4.7904   -4.7122   -1.0669 H   0  0  0  0  0  0  0  0  0  0  0  0
  1  2  2  0
  2  3  1  0
  2  4  1  0
  4 18  2  0
  4  5  1  0
  5  6  2  0
  5 19  1  0
  7  6  1  1
  6 17  1  0
  7 15  1  0
  7 16  1  0
  7  8  1  0
  8  9  1  0
  8 20  1  0
  8 21  1  0
  9 14  1  0
  9 10  1  0
  9 22  1  6
 10 11  1  0
 10 23  1  0
 10 24  1  0
 11 12  1  0
 11 16  1  0
 11 25  1  6
 12 13  1  0
 12 26  1  0
 12 27  1  0
 13 14  1  0
 13 15  1  0
 13 28  1  1
 14 29  1  0
 14 30  1  0
 15 31  1  0
 15 32  1  0
 16 33  1  0
 16 34  1  0
 17 18  1  0
M  CHG  1   3  -1
M  END
>  <i_m_ct_stereo_status>  (214) 
1

>  <s_m_source_file>  (214) 
/var/tmp/pbs.5076255.sched01/tmpbhhv4xqx/80i1gy0gug.sdf

>  <i_m_source_file_index>  (214) 
19

>  <i_lp_mmshare_version>  (214) 
48012

>  <i_f3d_flags>  (214) 
0

>  <s_epik_input>  (214) 
Tz1DKFtPSF0pYzFbY0hdYyhvbjEpQzIzW0NIMl1bQ0BIXTRbQ0gyXVtDQEBIXShbQ0gyXTMpW0NIMl1bQ0BIXShbQ0gyXTQpW0NIMl0y

>  <s_epik_cmdline>  (214) 
J2VwaWtfcHl0aG9uJywgJy1waHQnLCAnMi4wJywgJy1waCcsICc3LjAnLCAnLXRuJywgJzgnLCAnLW1hJywgJzIwMCcsICctaW1hZScsICc8aW5maWxlLm1hZT4nLCAnLW9tYWUnLCAnPG91dGZpbGUubWFlPic=

>  <r_lp_tautomer_probability>  (214) 
1

>  <r_epik_Ionization_Penalty>  (214) 
6.97501e-05

>  <r_epik_Ionization_Penalty_Charging>  (214) 
6.975e-05

>  <r_epik_Ionization_Penalty_Neutral>  (214) 
1.47765e-10

>  <r_epik_State_Penalty>  (214) 
-0

>  <r_epik_Charging_Adjusted_Penalty>  (214) 
6.975e-05

>  <i_epik_Tot_Q>  (214) 
-1

>  <i_epik_Tot_abs_Q>  (214) 
1

>  <s_lp_Force_Field>  (214) 
OPLS3e

>  <r_lp_Energy>  (214) 
11.7192

>  <b_lp_Chiralities_Consistent>  (214) 
1

>  <s_lp_Variant>  (214) 
69:0-1

>  <s_i_glide_gridfile>  (214) 
pfpi4k_grid

>  <i_i_glide_lignum>  (214) 
19

>  <i_i_glide_rotatable_bonds>  (214) 
2

>  <r_i_docking_score>  (214) 
-3.92596

>  <r_i_glide_ligand_efficiency>  (214) 
-0.218109

>  <r_i_glide_ligand_efficiency_sa>  (214) 
-0.571607

>  <r_i_glide_ligand_efficiency_ln>  (214) 
-1.00915

>  <r_i_glide_gscore>  (214) 
-3.92596

>  <r_i_glide_lipo>  (214) 
-0.600168

>  <r_i_glide_hbond>  (214) 
-0.2

>  <r_i_glide_metal>  (214) 
-0

>  <r_i_glide_rewards>  (214) 
-1.7299

>  <r_i_glide_evdw>  (214) 
-19.0076

>  <r_i_glide_ecoul>  (214) 
-3.38289

>  <r_i_glide_erotb>  (214) 
0.287279

>  <r_i_glide_esite>  (214) 
-0.225362

>  <r_i_glide_emodel>  (214) 
-29.6713

>  <r_i_glide_energy>  (214) 
-22.3905

>  <r_i_glide_einternal>  (214) 
1.82498

>  <r_i_glide_intrahb_reward>  (214) 
-0

>  <i_i_glide_confnum>  (214) 
5

>  <i_i_glide_posenum>  (214) 
4

>  <r_i_glide_eff_state_penalty>  (214) 
0

>  <ligand_id>  (214) 
69

>  <original_smiles>  (214) 
O=C(O)c1cc(C23CC4CC(CC(C4)C2)C3)on1

>  <smiles>  (214) 
[H]c1c(C(=O)[O-])noc1C12C([H])([H])C3([H])C([H])([H])C([H])(C([H])([H])C([H])(C3([H])[H])C1([H])[H])C2([H])[H]

$$$$
69:0:1
     RDKit          3D

 34 37  0  0  1  0  0  0  0  0999 V2000
    1.6215   -6.4846    4.2623 O   0  0  0  0  0  0  0  0  0  0  0  0
    1.0134   -6.3478    3.1781 C   0  0  0  0  0  0  0  0  0  0  0  0
   -0.2012   -6.6257    3.0316 O   0  0  0  0  0  0  0  0  0  0  0  0
    1.7424   -5.7642    1.9996 C   0  0  0  0  0  0  0  0  0  0  0  0
    2.8278   -4.8654    2.1921 C   0  0  0  0  0  0  0  0  0  0  0  0
    3.1499   -4.4657    0.9207 C   0  0  0  0  0  0  0  0  0  0  0  0
    4.1642   -3.5323    0.3340 C   0  0  1  0  0  0  0  0  0  0  0  0
    4.6382   -4.0543   -1.0497 C   0  0  0  0  0  0  0  0  0  0  0  0
    5.6908   -3.1164   -1.6723 C   0  0  2  0  0  0  0  0  0  0  0  0
    6.9102   -3.0440   -0.7378 C   0  0  0  0  0  0  0  0  0  0  0  0
    6.4654   -2.4872    0.6279 C   0  0  1  0  0  0  0  0  0  0  0  0
    5.8565   -1.0823    0.4621 C   0  0  0  0  0  0  0  0  0  0  0  0
    4.6407   -1.1741   -0.4821 C   0  0  1  0  0  0  0  0  0  0  0  0
    5.0819   -1.7126   -1.8572 C   0  0  0  0  0  0  0  0  0  0  0  0
    3.5778   -2.1137    0.1309 C   0  0  0  0  0  0  0  0  0  0  0  0
    5.4074   -3.4212    1.2538 C   0  0  0  0  0  0  0  0  0  0  0  0
    2.2516   -4.9909    0.0492 O   0  0  0  0  0  0  0  0  0  0  0  0
    1.4026   -5.8665    0.7287 N   0  0  0  0  0  0  0  0  0  0  0  0
    3.2678   -4.5348    3.1234 H   0  0  0  0  0  0  0  0  0  0  0  0
    5.0311   -5.0706   -0.9636 H   0  0  0  0  0  0  0  0  0  0  0  0
    3.7959   -4.1157   -1.7391 H   0  0  0  0  0  0  0  0  0  0  0  0
    5.9990   -3.5101   -2.6429 H   0  0  0  0  0  0  0  0  0  0  0  0
    7.3308   -4.0399   -0.6018 H   0  0  0  0  0  0  0  0  0  0  0  0
    7.6929   -2.4319   -1.1794 H   0  0  0  0  0  0  0  0  0  0  0  0
    7.3340   -2.4353    1.2819 H   0  0  0  0  0  0  0  0  0  0  0  0
    5.5454   -0.6944    1.4315 H   0  0  0  0  0  0  0  0  0  0  0  0
    6.5992   -0.3890    0.0742 H   0  0  0  0  0  0  0  0  0  0  0  0
    4.2139   -0.1838   -0.6080 H   0  0  0  0  0  0  0  0  0  0  0  0
    5.8090   -1.0427   -2.3097 H   0  0  0  0  0  0  0  0  0  0  0  0
    4.2307   -1.7537   -2.5364 H   0  0  0  0  0  0  0  0  0  0  0  0
    2.7037   -2.1564   -0.5217 H   0  0  0  0  0  0  0  0  0  0  0  0
    3.2261   -1.6998    1.0794 H   0  0  0  0  0  0  0  0  0  0  0  0
    5.1253   -3.0448    2.2411 H   0  0  0  0  0  0  0  0  0  0  0  0
    5.8395   -4.4124    1.4122 H   0  0  0  0  0  0  0  0  0  0  0  0
  1  2  2  0
  2  3  1  0
  2  4  1  0
  4 18  2  0
  4  5  1  0
  5  6  2  0
  5 19  1  0
  7  6  1  1
  6 17  1  0
  7 15  1  0
  7 16  1  0
  7  8  1  0
  8  9  1  0
  8 20  1  0
  8 21  1  0
  9 14  1  0
  9 10  1  0
  9 22  1  6
 10 11  1  0
 10 23  1  0
 10 24  1  0
 11 12  1  0
 11 16  1  0
 11 25  1  1
 12 13  1  0
 12 26  1  0
 12 27  1  0
 13 14  1  0
 13 15  1  0
 13 28  1  6
 14 29  1  0
 14 30  1  0
 15 31  1  0
 15 32  1  0
 16 33  1  0
 16 34  1  0
 17 18  1  0
M  CHG  1   3  -1
M  END
>  <i_m_ct_stereo_status>  (215) 
1

>  <s_m_source_file>  (215) 
/var/tmp/pbs.5076255.sched01/tmpbhhv4xqx/80i1gy0gug.sdf

>  <i_m_source_file_index>  (215) 
19

>  <i_lp_mmshare_version>  (215) 
48012

>  <i_f3d_flags>  (215) 
0

>  <s_epik_input>  (215) 
Tz1DKFtPSF0pYzFbY0hdYyhvbjEpQzIzW0NIMl1bQ0BIXTRbQ0gyXVtDQEBIXShbQ0gyXTMpW0NIMl1bQ0BIXShbQ0gyXTQpW0NIMl0y

>  <s_epik_cmdline>  (215) 
J2VwaWtfcHl0aG9uJywgJy1waHQnLCAnMi4wJywgJy1waCcsICc3LjAnLCAnLXRuJywgJzgnLCAnLW1hJywgJzIwMCcsICctaW1hZScsICc8aW5maWxlLm1hZT4nLCAnLW9tYWUnLCAnPG91dGZpbGUubWFlPic=

>  <r_lp_tautomer_probability>  (215) 
1

>  <r_epik_Ionization_Penalty>  (215) 
6.97501e-05

>  <r_epik_Ionization_Penalty_Charging>  (215) 
6.975e-05

>  <r_epik_Ionization_Penalty_Neutral>  (215) 
1.47765e-10

>  <r_epik_State_Penalty>  (215) 
-0

>  <r_epik_Charging_Adjusted_Penalty>  (215) 
6.975e-05

>  <i_epik_Tot_Q>  (215) 
-1

>  <i_epik_Tot_abs_Q>  (215) 
1

>  <s_lp_Force_Field>  (215) 
OPLS3e

>  <r_lp_Energy>  (215) 
11.7192

>  <b_lp_Chiralities_Consistent>  (215) 
1

>  <s_lp_Variant>  (215) 
69:0-1

>  <s_i_glide_gridfile>  (215) 
pfpi4k_grid

>  <i_i_glide_lignum>  (215) 
19

>  <i_i_glide_rotatable_bonds>  (215) 
2

>  <r_i_docking_score>  (215) 
-3.72536

>  <r_i_glide_ligand_efficiency>  (215) 
-0.206964

>  <r_i_glide_ligand_efficiency_sa>  (215) 
-0.5424

>  <r_i_glide_ligand_efficiency_ln>  (215) 
-0.957584

>  <r_i_glide_gscore>  (215) 
-3.72536

>  <r_i_glide_lipo>  (215) 
-0.415031

>  <r_i_glide_hbond>  (215) 
-0.2

>  <r_i_glide_metal>  (215) 
-0

>  <r_i_glide_rewards>  (215) 
-1.7299

>  <r_i_glide_evdw>  (215) 
-20.1299

>  <r_i_glide_ecoul>  (215) 
-3.0679

>  <r_i_glide_erotb>  (215) 
0.287279

>  <r_i_glide_esite>  (215) 
-0.20103

>  <r_i_glide_emodel>  (215) 
-28.8521

>  <r_i_glide_energy>  (215) 
-23.1978

>  <r_i_glide_einternal>  (215) 
3.66541

>  <r_i_glide_intrahb_reward>  (215) 
-0

>  <i_i_glide_confnum>  (215) 
2

>  <i_i_glide_posenum>  (215) 
18

>  <r_i_glide_eff_state_penalty>  (215) 
0

>  <ligand_id>  (215) 
69

>  <original_smiles>  (215) 
O=C(O)c1cc(C23CC4CC(CC(C4)C2)C3)on1

>  <smiles>  (215) 
[H]c1c(C(=O)[O-])noc1C12C([H])([H])C3([H])C([H])([H])C([H])(C([H])([H])C([H])(C3([H])[H])C1([H])[H])C2([H])[H]

$$$$
69:0:2
     RDKit          3D

 34 37  0  0  1  0  0  0  0  0999 V2000
    1.7905   -4.5384    4.7251 O   0  0  0  0  0  0  0  0  0  0  0  0
    1.2916   -5.2369    3.8147 C   0  0  0  0  0  0  0  0  0  0  0  0
    0.3337   -6.0213    4.0114 O   0  0  0  0  0  0  0  0  0  0  0  0
    1.8242   -5.1069    2.4176 C   0  0  0  0  0  0  0  0  0  0  0  0
    2.6189   -3.9843    2.0413 C   0  0  0  0  0  0  0  0  0  0  0  0
    2.8627   -4.1796    0.7097 C   0  0  0  0  0  0  0  0  0  0  0  0
    3.6105   -3.4245   -0.3466 C   0  0  1  0  0  0  0  0  0  0  0  0
    3.9993   -2.0069    0.1475 C   0  0  0  0  0  0  0  0  0  0  0  0
    4.7543   -1.2410   -0.9571 C   0  0  2  0  0  0  0  0  0  0  0  0
    3.8675   -1.1198   -2.2137 C   0  0  0  0  0  0  0  0  0  0  0  0
    3.4991   -2.5165   -2.7309 C   0  0  1  0  0  0  0  0  0  0  0  0
    4.7690   -3.2915   -3.0952 C   0  0  0  0  0  0  0  0  0  0  0  0
    5.6578   -3.3938   -1.8407 C   0  0  1  0  0  0  0  0  0  0  0  0
    6.0321   -2.0069   -1.3167 C   0  0  0  0  0  0  0  0  0  0  0  0
    4.9076   -4.1773   -0.7370 C   0  0  0  0  0  0  0  0  0  0  0  0
    2.7326   -3.2606   -1.6171 C   0  0  0  0  0  0  0  0  0  0  0  0
    2.2838   -5.3427    0.3100 O   0  0  0  0  0  0  0  0  0  0  0  0
    1.5834   -5.8984    1.3850 N   0  0  0  0  0  0  0  0  0  0  0  0
    2.9332   -3.1561    2.6591 H   0  0  0  0  0  0  0  0  0  0  0  0
    3.1060   -1.4446    0.4299 H   0  0  0  0  0  0  0  0  0  0  0  0
    4.6276   -2.0715    1.0408 H   0  0  0  0  0  0  0  0  0  0  0  0
    5.0196   -0.2508   -0.5905 H   0  0  0  0  0  0  0  0  0  0  0  0
    2.9286   -0.6389   -1.9615 H   0  0  0  0  0  0  0  0  0  0  0  0
    4.3601   -0.5222   -2.9810 H   0  0  0  0  0  0  0  0  0  0  0  0
    2.8591   -2.4172   -3.6095 H   0  0  0  0  0  0  0  0  0  0  0  0
    4.5083   -4.2863   -3.4571 H   0  0  0  0  0  0  0  0  0  0  0  0
    5.3003   -2.7933   -3.9007 H   0  0  0  0  0  0  0  0  0  0  0  0
    6.5965   -3.8607   -2.1165 H   0  0  0  0  0  0  0  0  0  0  0  0
    6.5811   -1.4796   -2.0849 H   0  0  0  0  0  0  0  0  0  0  0  0
    6.6920   -2.0941   -0.4532 H   0  0  0  0  0  0  0  0  0  0  0  0
    5.5499   -4.3061    0.1377 H   0  0  0  0  0  0  0  0  0  0  0  0
    4.6696   -5.1833   -1.0921 H   0  0  0  0  0  0  0  0  0  0  0  0
    2.4052   -4.2296   -1.9855 H   0  0  0  0  0  0  0  0  0  0  0  0
    1.8180   -2.7254   -1.3876 H   0  0  0  0  0  0  0  0  0  0  0  0
  1  2  2  0
  2  3  1  0
  2  4  1  0
  4 18  2  0
  4  5  1  0
  5  6  2  0
  5 19  1  0
  7  6  1  1
  6 17  1  0
  7 15  1  0
  7 16  1  0
  7  8  1  0
  8  9  1  0
  8 20  1  0
  8 21  1  0
  9 14  1  0
  9 10  1  0
  9 22  1  1
 10 11  1  0
 10 23  1  0
 10 24  1  0
 11 12  1  0
 11 16  1  0
 11 25  1  6
 12 13  1  0
 12 26  1  0
 12 27  1  0
 13 14  1  0
 13 15  1  0
 13 28  1  6
 14 29  1  0
 14 30  1  0
 15 31  1  0
 15 32  1  0
 16 33  1  0
 16 34  1  0
 17 18  1  0
M  CHG  1   3  -1
M  END
>  <i_m_ct_stereo_status>  (216) 
1

>  <s_m_source_file>  (216) 
/var/tmp/pbs.5076255.sched01/tmpbhhv4xqx/80i1gy0gug.sdf

>  <i_m_source_file_index>  (216) 
19

>  <i_lp_mmshare_version>  (216) 
48012

>  <i_f3d_flags>  (216) 
0

>  <s_epik_input>  (216) 
Tz1DKFtPSF0pYzFbY0hdYyhvbjEpQzIzW0NIMl1bQ0BIXTRbQ0gyXVtDQEBIXShbQ0gyXTMpW0NIMl1bQ0BIXShbQ0gyXTQpW0NIMl0y

>  <s_epik_cmdline>  (216) 
J2VwaWtfcHl0aG9uJywgJy1waHQnLCAnMi4wJywgJy1waCcsICc3LjAnLCAnLXRuJywgJzgnLCAnLW1hJywgJzIwMCcsICctaW1hZScsICc8aW5maWxlLm1hZT4nLCAnLW9tYWUnLCAnPG91dGZpbGUubWFlPic=

>  <r_lp_tautomer_probability>  (216) 
1

>  <r_epik_Ionization_Penalty>  (216) 
6.97501e-05

>  <r_epik_Ionization_Penalty_Charging>  (216) 
6.975e-05

>  <r_epik_Ionization_Penalty_Neutral>  (216) 
1.47765e-10

>  <r_epik_State_Penalty>  (216) 
-0

>  <r_epik_Charging_Adjusted_Penalty>  (216) 
6.975e-05

>  <i_epik_Tot_Q>  (216) 
-1

>  <i_epik_Tot_abs_Q>  (216) 
1

>  <s_lp_Force_Field>  (216) 
OPLS3e

>  <r_lp_Energy>  (216) 
11.7192

>  <b_lp_Chiralities_Consistent>  (216) 
1

>  <s_lp_Variant>  (216) 
69:0-1

>  <s_i_glide_gridfile>  (216) 
pfpi4k_grid

>  <i_i_glide_lignum>  (216) 
19

>  <i_i_glide_rotatable_bonds>  (216) 
2

>  <r_i_docking_score>  (216) 
-3.33836

>  <r_i_glide_ligand_efficiency>  (216) 
-0.185464

>  <r_i_glide_ligand_efficiency_sa>  (216) 
-0.486054

>  <r_i_glide_ligand_efficiency_ln>  (216) 
-0.858108

>  <r_i_glide_gscore>  (216) 
-3.33836

>  <r_i_glide_lipo>  (216) 
-0.50218

>  <r_i_glide_hbond>  (216) 
0

>  <r_i_glide_metal>  (216) 
-0

>  <r_i_glide_rewards>  (216) 
-1.7299

>  <r_i_glide_evdw>  (216) 
-19.6681

>  <r_i_glide_ecoul>  (216) 
-1.73005

>  <r_i_glide_erotb>  (216) 
0.287279

>  <r_i_glide_esite>  (216) 
-0.150648

>  <r_i_glide_emodel>  (216) 
-28.017

>  <r_i_glide_energy>  (216) 
-21.3981

>  <r_i_glide_einternal>  (216) 
1.00816

>  <r_i_glide_intrahb_reward>  (216) 
-0

>  <i_i_glide_confnum>  (216) 
4

>  <i_i_glide_posenum>  (216) 
34

>  <r_i_glide_eff_state_penalty>  (216) 
0

>  <ligand_id>  (216) 
69

>  <original_smiles>  (216) 
O=C(O)c1cc(C23CC4CC(CC(C4)C2)C3)on1

>  <smiles>  (216) 
[H]c1c(C(=O)[O-])noc1C12C([H])([H])C3([H])C([H])([H])C([H])(C([H])([H])C([H])(C3([H])[H])C1([H])[H])C2([H])[H]

$$$$
70:0:0
     RDKit          3D

 52 56  0  0  1  0  0  0  0  0999 V2000
    3.6424   -0.4296   -3.8780 C   0  0  0  0  0  0  0  0  0  0  0  0
    3.9833   -1.9166   -3.6728 C   0  0  0  0  0  0  0  0  0  0  0  0
    3.8210   -2.3245   -2.3277 O   0  0  0  0  0  0  0  0  0  0  0  0
    4.7611   -2.0398   -1.4061 C   0  0  0  0  0  0  0  0  0  0  0  0
    5.8169   -1.4572   -1.6578 O   0  0  0  0  0  0  0  0  0  0  0  0
    4.3666   -2.4756   -0.1569 N   0  0  0  0  0  0  0  0  0  0  0  0
    5.1304   -2.3412    1.0702 C   0  0  1  0  0  0  0  0  0  0  0  0
    4.0647   -1.9262    2.0935 C   0  0  0  0  0  0  0  0  0  0  0  0
    2.7438   -2.4742    1.5257 C   0  0  0  0  0  0  0  0  0  0  0  0
    3.1294   -3.1523    0.2052 C   0  0  2  0  0  0  0  0  0  0  0  0
    3.5059   -4.6269    0.3795 C   0  0  0  0  0  0  0  0  0  0  0  0
    4.6189   -4.8208    1.4446 C   0  0  1  0  0  0  0  0  0  0  0  0
    5.2000   -6.1596    1.3471 N   0  0  0  0  0  0  0  0  0  0  0  0
    4.5379   -7.3086    1.7694 C   0  0  0  0  0  0  0  0  0  0  0  0
    3.2000   -7.2714    1.9918 N   0  0  0  0  0  0  0  0  0  0  0  0
    2.5765   -8.4329    2.3235 C   0  0  0  0  0  0  0  0  0  0  0  0
    1.1026   -8.3794    2.4815 C   0  0  0  0  0  0  0  0  0  0  0  0
    0.3226   -9.5295    2.7540 C   0  0  0  0  0  0  0  0  0  0  0  0
   -1.0726   -9.3964    2.8798 C   0  0  0  0  0  0  0  0  0  0  0  0
   -1.6572   -8.1302    2.7530 C   0  0  0  0  0  0  0  0  0  0  0  0
   -0.9438   -7.0284    2.4802 N   0  0  0  0  0  0  0  0  0  0  0  0
    0.3916   -7.1629    2.3493 C   0  0  0  0  0  0  0  0  0  0  0  0
    3.1772   -9.6377    2.5012 N   0  0  0  0  0  0  0  0  0  0  0  0
    4.4975   -9.5831    2.3204 N   0  0  0  0  0  0  0  0  0  0  0  0
    5.3310  -10.6605    2.4932 C   0  0  0  0  0  0  0  0  0  0  0  0
    6.5853  -10.2017    2.2224 C   0  0  0  0  0  0  0  0  0  0  0  0
    6.5689   -8.8564    1.8430 N   0  0  0  0  0  0  0  0  0  0  0  0
    5.2856   -8.4925    1.9425 C   0  0  0  0  0  0  0  0  0  0  0  0
    5.7275   -3.7354    1.3619 C   0  0  0  0  0  0  0  0  0  0  0  0
    3.7647   -0.1310   -4.9206 H   0  0  0  0  0  0  0  0  0  0  0  0
    4.2743    0.2194   -3.2710 H   0  0  0  0  0  0  0  0  0  0  0  0
    2.6145   -0.2241   -3.5873 H   0  0  0  0  0  0  0  0  0  0  0  0
    3.3214   -2.5255   -4.2867 H   0  0  0  0  0  0  0  0  0  0  0  0
    5.0004   -2.1316   -4.0033 H   0  0  0  0  0  0  0  0  0  0  0  0
    5.9200   -1.5930    0.9928 H   0  0  0  0  0  0  0  0  0  0  0  0
    4.2810   -2.3074    3.0926 H   0  0  0  0  0  0  0  0  0  0  0  0
    4.0130   -0.8390    2.1599 H   0  0  0  0  0  0  0  0  0  0  0  0
    2.2440   -3.1581    2.2144 H   0  0  0  0  0  0  0  0  0  0  0  0
    2.0579   -1.6514    1.3189 H   0  0  0  0  0  0  0  0  0  0  0  0
    2.3186   -3.0675   -0.5169 H   0  0  0  0  0  0  0  0  0  0  0  0
    2.5955   -5.1650    0.6378 H   0  0  0  0  0  0  0  0  0  0  0  0
    3.8498   -5.0336   -0.5735 H   0  0  0  0  0  0  0  0  0  0  0  0
    4.1677   -4.7217    2.4342 H   0  0  0  0  0  0  0  0  0  0  0  0
    0.7720  -10.5110    2.8480 H   0  0  0  0  0  0  0  0  0  0  0  0
   -1.6914  -10.2488    3.0897 H   0  0  0  0  0  0  0  0  0  0  0  0
   -2.7208   -7.9853    2.8584 H   0  0  0  0  0  0  0  0  0  0  0  0
    0.8760   -6.2266    2.1329 H   0  0  0  0  0  0  0  0  0  0  0  0
    4.9069  -11.6176    2.7643 H   0  0  0  0  0  0  0  0  0  0  0  0
    7.5015  -10.7716    2.2505 H   0  0  0  0  0  0  0  0  0  0  0  0
    6.4414   -3.9803    0.5729 H   0  0  0  0  0  0  0  0  0  0  0  0
    6.2966   -3.7148    2.2932 H   0  0  0  0  0  0  0  0  0  0  0  0
    6.1675   -6.2712    1.0874 H   0  0  0  0  0  0  0  0  0  0  0  0
  1  2  1  0
  1 30  1  0
  1 31  1  0
  1 32  1  0
  2  3  1  0
  2 33  1  0
  2 34  1  0
  3  4  1  0
  4  5  2  0
  4  6  1  0
  6 10  1  0
  6  7  1  0
  7 29  1  0
  7  8  1  0
  7 35  1  6
  8  9  1  0
  8 36  1  0
  8 37  1  0
  9 10  1  0
  9 38  1  0
  9 39  1  0
 10 11  1  0
 10 40  1  6
 11 12  1  0
 11 41  1  0
 11 42  1  0
 12 13  1  0
 12 29  1  0
 12 43  1  1
 13 14  1  0
 13 52  1  0
 14 28  1  0
 14 15  2  0
 15 16  1  0
 16 17  1  0
 16 23  2  0
 17 22  1  0
 17 18  2  0
 18 19  1  0
 18 44  1  0
 19 20  2  0
 19 45  1  0
 20 21  1  0
 20 46  1  0
 21 22  2  0
 22 47  1  0
 23 24  1  0
 24 28  1  0
 24 25  1  0
 25 26  2  0
 25 48  1  0
 26 27  1  0
 26 49  1  0
 27 28  2  0
 29 50  1  0
 29 51  1  0
M  END
>  <i_m_ct_stereo_status>  (217) 
1

>  <s_m_source_file>  (217) 
/var/tmp/pbs.5076255.sched01/tmpbhhv4xqx/80i1gy0gug.sdf

>  <i_m_source_file_index>  (217) 
20

>  <i_lp_mmshare_version>  (217) 
48012

>  <i_f3d_flags>  (217) 
0

>  <s_epik_input>  (217) 
W0NIM11bQ0gyXU9DKD1PKU4oW0NAQEhdMTIpW0NASF0oW0NIMl1bQ0gyXTEpW0NIMl1bQ0BIXShbQ0gyXTIpL049YyhjKG4zNCluW2NIXVtjSF00KVxbbkhdYyhuMyktYzVbY0hdW2NIXVtjSF1uW2NIXTU=

>  <s_epik_cmdline>  (217) 
J2VwaWtfcHl0aG9uJywgJy1waHQnLCAnMi4wJywgJy1waCcsICc3LjAnLCAnLXRuJywgJzgnLCAnLW1hJywgJzIwMCcsICctaW1hZScsICc8aW5maWxlLm1hZT4nLCAnLW9tYWUnLCAnPG91dGZpbGUubWFlPic=

>  <r_epik_Ionization_Penalty>  (217) 
0.00446042

>  <r_epik_Ionization_Penalty_Charging>  (217) 
6.63042e-05

>  <r_epik_Ionization_Penalty_Neutral>  (217) 
0.00439411

>  <r_epik_State_Penalty>  (217) 
0.00303862

>  <r_epik_Charging_Adjusted_Penalty>  (217) 
0.00310492

>  <i_epik_Tot_Q>  (217) 
0

>  <i_epik_Tot_abs_Q>  (217) 
0

>  <s_epik_Chemistry_Notes>  (217) 
This compound has an ester and may undergo hydrolysis at high or low pH.

>  <s_lp_Force_Field>  (217) 
OPLS3e

>  <r_lp_Energy>  (217) 
26.4329

>  <b_lp_Chiralities_Consistent>  (217) 
1

>  <s_lp_Variant>  (217) 
70:0-1

>  <s_i_glide_gridfile>  (217) 
pfpi4k_grid

>  <i_i_glide_lignum>  (217) 
20

>  <i_i_glide_rotatable_bonds>  (217) 
6

>  <r_i_docking_score>  (217) 
-3.63995

>  <r_i_glide_ligand_efficiency>  (217) 
-0.125515

>  <r_i_glide_ligand_efficiency_sa>  (217) 
-0.385623

>  <r_i_glide_ligand_efficiency_ln>  (217) 
-0.833456

>  <r_i_glide_gscore>  (217) 
-3.63995

>  <r_i_glide_lipo>  (217) 
-0.656079

>  <r_i_glide_hbond>  (217) 
-0.236979

>  <r_i_glide_metal>  (217) 
-0

>  <r_i_glide_rewards>  (217) 
-0.75321

>  <r_i_glide_evdw>  (217) 
-38.6477

>  <r_i_glide_ecoul>  (217) 
-3.99338

>  <r_i_glide_erotb>  (217) 
0.630984

>  <r_i_glide_esite>  (217) 
-0.0932698

>  <r_i_glide_emodel>  (217) 
-52.0731

>  <r_i_glide_energy>  (217) 
-42.6411

>  <r_i_glide_einternal>  (217) 
1.26175

>  <r_i_glide_intrahb_reward>  (217) 
-0

>  <i_i_glide_confnum>  (217) 
3

>  <i_i_glide_posenum>  (217) 
22

>  <r_i_glide_eff_state_penalty>  (217) 
0

>  <ligand_id>  (217) 
70

>  <original_smiles>  (217) 
CCOC(=O)N1C2CCC1CC(N=c1[nH]c(-c3cccnc3)nn3ccnc13)C2

>  <smiles>  (217) 
[H]c1nc([H])c(-c2nc(N([H])C3([H])C([H])([H])C4([H])N(C(=O)OC([H])([H])C([H])([H])[H])C([H])(C([H])([H])C4([H])[H])C3([H])[H])c3nc([H])c([H])n3n2)c([H])c1[H]

$$$$
70:0:1
     RDKit          3D

 52 56  0  0  1  0  0  0  0  0999 V2000
    3.5728   -0.3809   -3.9981 C   0  0  0  0  0  0  0  0  0  0  0  0
    3.8067   -1.8917   -3.8269 C   0  0  0  0  0  0  0  0  0  0  0  0
    3.7093   -2.2893   -2.4690 O   0  0  0  0  0  0  0  0  0  0  0  0
    4.7034   -2.0232   -1.5975 C   0  0  0  0  0  0  0  0  0  0  0  0
    5.7797   -1.4994   -1.9062 O   0  0  0  0  0  0  0  0  0  0  0  0
    4.3311   -2.3995   -0.3126 N   0  0  0  0  0  0  0  0  0  0  0  0
    5.1296   -2.2036    0.8830 C   0  0  1  0  0  0  0  0  0  0  0  0
    4.0924   -1.7287    1.9110 C   0  0  0  0  0  0  0  0  0  0  0  0
    2.7539   -2.2949    1.4080 C   0  0  0  0  0  0  0  0  0  0  0  0
    3.1006   -3.0454    0.1147 C   0  0  2  0  0  0  0  0  0  0  0  0
    3.4703   -4.5161    0.3640 C   0  0  0  0  0  0  0  0  0  0  0  0
    4.6091   -4.6583    1.4110 C   0  0  1  0  0  0  0  0  0  0  0  0
    5.1763   -5.9992    1.3876 N   0  0  0  0  0  0  0  0  0  0  0  0
    4.4975   -7.1200    1.8618 C   0  0  0  0  0  0  0  0  0  0  0  0
    3.1898   -7.0372    2.2138 N   0  0  0  0  0  0  0  0  0  0  0  0
    2.5751   -8.1770    2.6276 C   0  0  0  0  0  0  0  0  0  0  0  0
    1.1439   -8.0582    2.9622 C   0  0  0  0  0  0  0  0  0  0  0  0
    0.5759   -8.7279    4.0721 C   0  0  0  0  0  0  0  0  0  0  0  0
   -0.7899   -8.5411    4.3654 C   0  0  0  0  0  0  0  0  0  0  0  0
   -1.5548   -7.7172    3.5255 C   0  0  0  0  0  0  0  0  0  0  0  0
   -1.0336   -7.0569    2.4737 N   0  0  0  0  0  0  0  0  0  0  0  0
    0.2735   -7.2464    2.2002 C   0  0  0  0  0  0  0  0  0  0  0  0
    3.1459   -9.4004    2.7681 N   0  0  0  0  0  0  0  0  0  0  0  0
    4.4414   -9.3953    2.4257 N   0  0  0  0  0  0  0  0  0  0  0  0
    5.2519  -10.5081    2.4967 C   0  0  0  0  0  0  0  0  0  0  0  0
    6.4816  -10.0891    2.0548 C   0  0  0  0  0  0  0  0  0  0  0  0
    6.4554   -8.7419    1.7058 N   0  0  0  0  0  0  0  0  0  0  0  0
    5.2127   -8.3307    1.9530 C   0  0  0  0  0  0  0  0  0  0  0  0
    5.7237   -3.5873    1.2332 C   0  0  0  0  0  0  0  0  0  0  0  0
    3.6452   -0.0831   -5.0447 H   0  0  0  0  0  0  0  0  0  0  0  0
    4.2972    0.2070   -3.4355 H   0  0  0  0  0  0  0  0  0  0  0  0
    2.5896   -0.0947   -3.6300 H   0  0  0  0  0  0  0  0  0  0  0  0
    3.0541   -2.4419   -4.3920 H   0  0  0  0  0  0  0  0  0  0  0  0
    4.7738   -2.1863   -4.2324 H   0  0  0  0  0  0  0  0  0  0  0  0
    5.9207   -1.4661    0.7468 H   0  0  0  0  0  0  0  0  0  0  0  0
    4.3307   -2.0584    2.9230 H   0  0  0  0  0  0  0  0  0  0  0  0
    4.0489   -0.6391    1.9230 H   0  0  0  0  0  0  0  0  0  0  0  0
    2.2664   -2.9360    2.1430 H   0  0  0  0  0  0  0  0  0  0  0  0
    2.0714   -1.4739    1.1888 H   0  0  0  0  0  0  0  0  0  0  0  0
    2.2757   -2.9901   -0.5945 H   0  0  0  0  0  0  0  0  0  0  0  0
    2.5764   -5.0467    0.6824 H   0  0  0  0  0  0  0  0  0  0  0  0
    3.7860   -4.9765   -0.5732 H   0  0  0  0  0  0  0  0  0  0  0  0
    4.1839   -4.4973    2.4038 H   0  0  0  0  0  0  0  0  0  0  0  0
    1.1852   -9.3584    4.7052 H   0  0  0  0  0  0  0  0  0  0  0  0
   -1.2569   -9.0385    5.2028 H   0  0  0  0  0  0  0  0  0  0  0  0
   -2.6109   -7.5734    3.6980 H   0  0  0  0  0  0  0  0  0  0  0  0
    0.6288   -6.6901    1.3485 H   0  0  0  0  0  0  0  0  0  0  0  0
    4.8504  -11.4578    2.8170 H   0  0  0  0  0  0  0  0  0  0  0  0
    7.3968  -10.6676    1.9495 H   0  0  0  0  0  0  0  0  0  0  0  0
    6.4094   -3.8828    0.4359 H   0  0  0  0  0  0  0  0  0  0  0  0
    6.3266   -3.5185    2.1410 H   0  0  0  0  0  0  0  0  0  0  0  0
    6.1030   -6.1428    1.0246 H   0  0  0  0  0  0  0  0  0  0  0  0
  1  2  1  0
  1 30  1  0
  1 31  1  0
  1 32  1  0
  2  3  1  0
  2 33  1  0
  2 34  1  0
  3  4  1  0
  4  5  2  0
  4  6  1  0
  6 10  1  0
  6  7  1  0
  7 29  1  0
  7  8  1  0
  7 35  1  6
  8  9  1  0
  8 36  1  0
  8 37  1  0
  9 10  1  0
  9 38  1  0
  9 39  1  0
 10 11  1  0
 10 40  1  6
 11 12  1  0
 11 41  1  0
 11 42  1  0
 12 13  1  0
 12 29  1  0
 12 43  1  1
 13 14  1  0
 13 52  1  0
 14 28  1  0
 14 15  2  0
 15 16  1  0
 16 17  1  0
 16 23  2  0
 17 22  1  0
 17 18  2  0
 18 19  1  0
 18 44  1  0
 19 20  2  0
 19 45  1  0
 20 21  1  0
 20 46  1  0
 21 22  2  0
 22 47  1  0
 23 24  1  0
 24 28  1  0
 24 25  1  0
 25 26  2  0
 25 48  1  0
 26 27  1  0
 26 49  1  0
 27 28  2  0
 29 50  1  0
 29 51  1  0
M  END
>  <i_m_ct_stereo_status>  (218) 
1

>  <s_m_source_file>  (218) 
/var/tmp/pbs.5076255.sched01/tmpbhhv4xqx/80i1gy0gug.sdf

>  <i_m_source_file_index>  (218) 
20

>  <i_lp_mmshare_version>  (218) 
48012

>  <i_f3d_flags>  (218) 
0

>  <s_epik_input>  (218) 
W0NIM11bQ0gyXU9DKD1PKU4oW0NAQEhdMTIpW0NASF0oW0NIMl1bQ0gyXTEpW0NIMl1bQ0BIXShbQ0gyXTIpL049YyhjKG4zNCluW2NIXVtjSF00KVxbbkhdYyhuMyktYzVbY0hdW2NIXVtjSF1uW2NIXTU=

>  <s_epik_cmdline>  (218) 
J2VwaWtfcHl0aG9uJywgJy1waHQnLCAnMi4wJywgJy1waCcsICc3LjAnLCAnLXRuJywgJzgnLCAnLW1hJywgJzIwMCcsICctaW1hZScsICc8aW5maWxlLm1hZT4nLCAnLW9tYWUnLCAnPG91dGZpbGUubWFlPic=

>  <r_epik_Ionization_Penalty>  (218) 
0.00446042

>  <r_epik_Ionization_Penalty_Charging>  (218) 
6.63042e-05

>  <r_epik_Ionization_Penalty_Neutral>  (218) 
0.00439411

>  <r_epik_State_Penalty>  (218) 
0.00303862

>  <r_epik_Charging_Adjusted_Penalty>  (218) 
0.00310492

>  <i_epik_Tot_Q>  (218) 
0

>  <i_epik_Tot_abs_Q>  (218) 
0

>  <s_epik_Chemistry_Notes>  (218) 
This compound has an ester and may undergo hydrolysis at high or low pH.

>  <s_lp_Force_Field>  (218) 
OPLS3e

>  <r_lp_Energy>  (218) 
26.4329

>  <b_lp_Chiralities_Consistent>  (218) 
1

>  <s_lp_Variant>  (218) 
70:0-1

>  <s_i_glide_gridfile>  (218) 
pfpi4k_grid

>  <i_i_glide_lignum>  (218) 
20

>  <i_i_glide_rotatable_bonds>  (218) 
6

>  <r_i_docking_score>  (218) 
-3.50513

>  <r_i_glide_ligand_efficiency>  (218) 
-0.120867

>  <r_i_glide_ligand_efficiency_sa>  (218) 
-0.37134

>  <r_i_glide_ligand_efficiency_ln>  (218) 
-0.802586

>  <r_i_glide_gscore>  (218) 
-3.50513

>  <r_i_glide_lipo>  (218) 
-0.589801

>  <r_i_glide_hbond>  (218) 
-0.220064

>  <r_i_glide_metal>  (218) 
-0

>  <r_i_glide_rewards>  (218) 
-0.773297

>  <r_i_glide_evdw>  (218) 
-38.1758

>  <r_i_glide_ecoul>  (218) 
-3.73914

>  <r_i_glide_erotb>  (218) 
0.630984

>  <r_i_glide_esite>  (218) 
-0.0832923

>  <r_i_glide_emodel>  (218) 
-50.8992

>  <r_i_glide_energy>  (218) 
-41.9149

>  <r_i_glide_einternal>  (218) 
1.3861

>  <r_i_glide_intrahb_reward>  (218) 
-0

>  <i_i_glide_confnum>  (218) 
3

>  <i_i_glide_posenum>  (218) 
1

>  <r_i_glide_eff_state_penalty>  (218) 
0

>  <ligand_id>  (218) 
70

>  <original_smiles>  (218) 
CCOC(=O)N1C2CCC1CC(N=c1[nH]c(-c3cccnc3)nn3ccnc13)C2

>  <smiles>  (218) 
[H]c1nc([H])c(-c2nc(N([H])C3([H])C([H])([H])C4([H])N(C(=O)OC([H])([H])C([H])([H])[H])C([H])(C([H])([H])C4([H])[H])C3([H])[H])c3nc([H])c([H])n3n2)c([H])c1[H]

$$$$
70:0:2
     RDKit          3D

 52 56  0  0  1  0  0  0  0  0999 V2000
    3.2463   -2.3528   -3.6063 C   0  0  0  0  0  0  0  0  0  0  0  0
    3.8108   -1.0323   -3.0658 C   0  0  0  0  0  0  0  0  0  0  0  0
    3.8401   -1.0640   -1.6465 O   0  0  0  0  0  0  0  0  0  0  0  0
    4.9078   -1.5418   -0.9823 C   0  0  0  0  0  0  0  0  0  0  0  0
    5.9735   -1.8597   -1.5195 O   0  0  0  0  0  0  0  0  0  0  0  0
    4.6262   -1.6420    0.3785 N   0  0  0  0  0  0  0  0  0  0  0  0
    5.5047   -2.2232    1.3765 C   0  0  1  0  0  0  0  0  0  0  0  0
    5.4074   -1.2259    2.5385 C   0  0  0  0  0  0  0  0  0  0  0  0
    4.0427   -0.5391    2.3499 C   0  0  0  0  0  0  0  0  0  0  0  0
    3.4403   -1.1891    1.0944 C   0  0  2  0  0  0  0  0  0  0  0  0
    2.6157   -2.4574    1.4194 C   0  0  0  0  0  0  0  0  0  0  0  0
    3.4458   -3.4914    2.2344 C   0  0  1  0  0  0  0  0  0  0  0  0
    2.8227   -4.8087    2.2514 N   0  0  0  0  0  0  0  0  0  0  0  0
    1.8257   -5.1606    3.1650 C   0  0  0  0  0  0  0  0  0  0  0  0
    1.7266   -4.5069    4.3476 N   0  0  0  0  0  0  0  0  0  0  0  0
    0.7710   -4.9205    5.2246 C   0  0  0  0  0  0  0  0  0  0  0  0
    0.7260   -4.2017    6.5237 C   0  0  0  0  0  0  0  0  0  0  0  0
    1.8656   -3.5449    7.0517 C   0  0  0  0  0  0  0  0  0  0  0  0
    1.7793   -2.8614    8.2796 C   0  0  0  0  0  0  0  0  0  0  0  0
    0.5485   -2.8500    8.9553 C   0  0  0  0  0  0  0  0  0  0  0  0
   -0.5593   -3.4505    8.4730 N   0  0  0  0  0  0  0  0  0  0  0  0
   -0.4564   -4.1212    7.3022 C   0  0  0  0  0  0  0  0  0  0  0  0
   -0.1250   -5.9268    5.0254 N   0  0  0  0  0  0  0  0  0  0  0  0
    0.0161   -6.5077    3.8271 N   0  0  0  0  0  0  0  0  0  0  0  0
   -0.7840   -7.5386    3.3713 C   0  0  0  0  0  0  0  0  0  0  0  0
   -0.3215   -7.8237    2.1093 C   0  0  0  0  0  0  0  0  0  0  0  0
    0.7323   -6.9762    1.7569 N   0  0  0  0  0  0  0  0  0  0  0  0
    0.9423   -6.2072    2.8250 C   0  0  0  0  0  0  0  0  0  0  0  0
    4.9064   -3.6063    1.7300 C   0  0  0  0  0  0  0  0  0  0  0  0
    3.2058   -2.3444   -4.6951 H   0  0  0  0  0  0  0  0  0  0  0  0
    2.2330   -2.5241   -3.2394 H   0  0  0  0  0  0  0  0  0  0  0  0
    3.8599   -3.2012   -3.3005 H   0  0  0  0  0  0  0  0  0  0  0  0
    4.7984   -0.8327   -3.4826 H   0  0  0  0  0  0  0  0  0  0  0  0
    3.1740   -0.2047   -3.3785 H   0  0  0  0  0  0  0  0  0  0  0  0
    6.5313   -2.3352    1.0279 H   0  0  0  0  0  0  0  0  0  0  0  0
    5.4931   -1.7168    3.5083 H   0  0  0  0  0  0  0  0  0  0  0  0
    6.2115   -0.4934    2.4702 H   0  0  0  0  0  0  0  0  0  0  0  0
    3.3958   -0.6502    3.2208 H   0  0  0  0  0  0  0  0  0  0  0  0
    4.1873    0.5290    2.1854 H   0  0  0  0  0  0  0  0  0  0  0  0
    2.8336   -0.4692    0.5446 H   0  0  0  0  0  0  0  0  0  0  0  0
    1.7117   -2.1850    1.9661 H   0  0  0  0  0  0  0  0  0  0  0  0
    2.2777   -2.8949    0.4786 H   0  0  0  0  0  0  0  0  0  0  0  0
    3.5105   -3.1115    3.2544 H   0  0  0  0  0  0  0  0  0  0  0  0
    2.8061   -3.5537    6.5213 H   0  0  0  0  0  0  0  0  0  0  0  0
    2.6350   -2.3548    8.6997 H   0  0  0  0  0  0  0  0  0  0  0  0
    0.4454   -2.3370    9.9001 H   0  0  0  0  0  0  0  0  0  0  0  0
   -1.3739   -4.5830    6.9662 H   0  0  0  0  0  0  0  0  0  0  0  0
   -1.5727   -7.9577    3.9837 H   0  0  0  0  0  0  0  0  0  0  0  0
   -0.6694   -8.5732    1.4121 H   0  0  0  0  0  0  0  0  0  0  0  0
    4.9444   -4.2450    0.8449 H   0  0  0  0  0  0  0  0  0  0  0  0
    5.5087   -4.1038    2.4924 H   0  0  0  0  0  0  0  0  0  0  0  0
    2.8865   -5.3697    1.4171 H   0  0  0  0  0  0  0  0  0  0  0  0
  1  2  1  0
  1 30  1  0
  1 31  1  0
  1 32  1  0
  2  3  1  0
  2 33  1  0
  2 34  1  0
  3  4  1  0
  4  5  2  0
  4  6  1  0
  6 10  1  0
  6  7  1  0
  7 29  1  0
  7  8  1  0
  7 35  1  6
  8  9  1  0
  8 36  1  0
  8 37  1  0
  9 10  1  0
  9 38  1  0
  9 39  1  0
 10 11  1  0
 10 40  1  6
 11 12  1  0
 11 41  1  0
 11 42  1  0
 12 13  1  0
 12 29  1  0
 12 43  1  1
 13 14  1  0
 13 52  1  0
 14 28  1  0
 14 15  2  0
 15 16  1  0
 16 17  1  0
 16 23  2  0
 17 22  1  0
 17 18  2  0
 18 19  1  0
 18 44  1  0
 19 20  2  0
 19 45  1  0
 20 21  1  0
 20 46  1  0
 21 22  2  0
 22 47  1  0
 23 24  1  0
 24 28  1  0
 24 25  1  0
 25 26  2  0
 25 48  1  0
 26 27  1  0
 26 49  1  0
 27 28  2  0
 29 50  1  0
 29 51  1  0
M  END
>  <i_m_ct_stereo_status>  (219) 
1

>  <s_m_source_file>  (219) 
/var/tmp/pbs.5076255.sched01/tmpbhhv4xqx/80i1gy0gug.sdf

>  <i_m_source_file_index>  (219) 
20

>  <i_lp_mmshare_version>  (219) 
48012

>  <i_f3d_flags>  (219) 
0

>  <s_epik_input>  (219) 
W0NIM11bQ0gyXU9DKD1PKU4oW0NAQEhdMTIpW0NASF0oW0NIMl1bQ0gyXTEpW0NIMl1bQ0BIXShbQ0gyXTIpL049YyhjKG4zNCluW2NIXVtjSF00KVxbbkhdYyhuMyktYzVbY0hdW2NIXVtjSF1uW2NIXTU=

>  <s_epik_cmdline>  (219) 
J2VwaWtfcHl0aG9uJywgJy1waHQnLCAnMi4wJywgJy1waCcsICc3LjAnLCAnLXRuJywgJzgnLCAnLW1hJywgJzIwMCcsICctaW1hZScsICc8aW5maWxlLm1hZT4nLCAnLW9tYWUnLCAnPG91dGZpbGUubWFlPic=

>  <r_epik_Ionization_Penalty>  (219) 
0.00446042

>  <r_epik_Ionization_Penalty_Charging>  (219) 
6.63042e-05

>  <r_epik_Ionization_Penalty_Neutral>  (219) 
0.00439411

>  <r_epik_State_Penalty>  (219) 
0.00303862

>  <r_epik_Charging_Adjusted_Penalty>  (219) 
0.00310492

>  <i_epik_Tot_Q>  (219) 
0

>  <i_epik_Tot_abs_Q>  (219) 
0

>  <s_epik_Chemistry_Notes>  (219) 
This compound has an ester and may undergo hydrolysis at high or low pH.

>  <s_lp_Force_Field>  (219) 
OPLS3e

>  <r_lp_Energy>  (219) 
26.4329

>  <b_lp_Chiralities_Consistent>  (219) 
1

>  <s_lp_Variant>  (219) 
70:0-1

>  <s_i_glide_gridfile>  (219) 
pfpi4k_grid

>  <i_i_glide_lignum>  (219) 
20

>  <i_i_glide_rotatable_bonds>  (219) 
6

>  <r_i_docking_score>  (219) 
-3.41378

>  <r_i_glide_ligand_efficiency>  (219) 
-0.117717

>  <r_i_glide_ligand_efficiency_sa>  (219) 
-0.361663

>  <r_i_glide_ligand_efficiency_ln>  (219) 
-0.781669

>  <r_i_glide_gscore>  (219) 
-3.41378

>  <r_i_glide_lipo>  (219) 
-0.575174

>  <r_i_glide_hbond>  (219) 
-0.188493

>  <r_i_glide_metal>  (219) 
-0

>  <r_i_glide_rewards>  (219) 
-0.72653

>  <r_i_glide_evdw>  (219) 
-34.4617

>  <r_i_glide_ecoul>  (219) 
-4.58764

>  <r_i_glide_erotb>  (219) 
0.630984

>  <r_i_glide_esite>  (219) 
-0.143338

>  <r_i_glide_emodel>  (219) 
-47.7049

>  <r_i_glide_energy>  (219) 
-39.0493

>  <r_i_glide_einternal>  (219) 
1.533

>  <r_i_glide_intrahb_reward>  (219) 
-0

>  <i_i_glide_confnum>  (219) 
3

>  <i_i_glide_posenum>  (219) 
12

>  <r_i_glide_eff_state_penalty>  (219) 
0

>  <ligand_id>  (219) 
70

>  <original_smiles>  (219) 
CCOC(=O)N1C2CCC1CC(N=c1[nH]c(-c3cccnc3)nn3ccnc13)C2

>  <smiles>  (219) 
[H]c1nc([H])c(-c2nc(N([H])C3([H])C([H])([H])C4([H])N(C(=O)OC([H])([H])C([H])([H])[H])C([H])(C([H])([H])C4([H])[H])C3([H])[H])c3nc([H])c([H])n3n2)c([H])c1[H]

$$$$
70:1:0
     RDKit          3D

 52 56  0  0  1  0  0  0  0  0999 V2000
    2.4267    0.7740   -5.1552 C   0  0  0  0  0  0  0  0  0  0  0  0
    3.8018    0.8601   -4.4756 C   0  0  0  0  0  0  0  0  0  0  0  0
    3.9604   -0.0153   -3.3614 O   0  0  0  0  0  0  0  0  0  0  0  0
    3.9283   -1.3442   -3.5051 C   0  0  0  0  0  0  0  0  0  0  0  0
    3.5185   -1.9327   -4.4956 O   0  0  0  0  0  0  0  0  0  0  0  0
    4.4414   -1.9585   -2.3716 N   0  0  0  0  0  0  0  0  0  0  0  0
    4.4996   -3.3836   -2.1711 C   0  0  1  0  0  0  0  0  0  0  0  0
    5.9415   -3.5824   -1.7191 C   0  0  0  0  0  0  0  0  0  0  0  0
    6.3651   -2.2440   -1.1059 C   0  0  0  0  0  0  0  0  0  0  0  0
    5.1229   -1.3413   -1.2489 C   0  0  2  0  0  0  0  0  0  0  0  0
    4.1277   -1.4244   -0.0618 C   0  0  0  0  0  0  0  0  0  0  0  0
    3.6658   -2.8780    0.2371 C   0  0  2  0  0  0  0  0  0  0  0  0
    4.6463   -3.5022    1.1317 N   0  0  0  0  0  0  0  0  0  0  0  0
    4.5769   -4.8315    1.5289 C   0  0  0  0  0  0  0  0  0  0  0  0
    3.3557   -5.4039    1.6821 N   0  0  0  0  0  0  0  0  0  0  0  0
    3.3039   -6.6910    2.1195 C   0  0  0  0  0  0  0  0  0  0  0  0
    1.9456   -7.2702    2.3004 C   0  0  0  0  0  0  0  0  0  0  0  0
    1.7383   -8.6064    2.7183 C   0  0  0  0  0  0  0  0  0  0  0  0
    0.4287   -9.0898    2.8793 C   0  0  0  0  0  0  0  0  0  0  0  0
   -0.6501   -8.2339    2.6133 C   0  0  0  0  0  0  0  0  0  0  0  0
   -0.4871   -6.9552    2.2184 N   0  0  0  0  0  0  0  0  0  0  0  0
    0.7788   -6.5058    2.0749 C   0  0  0  0  0  0  0  0  0  0  0  0
    4.3701   -7.4743    2.4353 N   0  0  0  0  0  0  0  0  0  0  0  0
    5.5466   -6.8533    2.2363 N   0  0  0  0  0  0  0  0  0  0  0  0
    6.7771   -7.4153    2.4944 C   0  0  0  0  0  0  0  0  0  0  0  0
    7.6983   -6.4626    2.1535 C   0  0  0  0  0  0  0  0  0  0  0  0
    7.0797   -5.2962    1.6950 N   0  0  0  0  0  0  0  0  0  0  0  0
    5.7655   -5.5475    1.7777 C   0  0  0  0  0  0  0  0  0  0  0  0
    3.4547   -3.6911   -1.0777 C   0  0  0  0  0  0  0  0  0  0  0  0
    2.3589    1.5376   -5.9486 H   0  0  0  0  0  0  0  0  0  0  0  0
    1.6182    0.9476   -4.4468 H   0  0  0  0  0  0  0  0  0  0  0  0
    2.2505   -0.2122   -5.5931 H   0  0  0  0  0  0  0  0  0  0  0  0
    4.6059    0.7090   -5.1872 H   0  0  0  0  0  0  0  0  0  0  0  0
    3.9322    1.8712   -4.0834 H   0  0  0  0  0  0  0  0  0  0  0  0
    4.2983   -3.9417   -3.0871 H   0  0  0  0  0  0  0  0  0  0  0  0
    6.0123   -4.4092   -1.0153 H   0  0  0  0  0  0  0  0  0  0  0  0
    6.5797   -3.8216   -2.5739 H   0  0  0  0  0  0  0  0  0  0  0  0
    6.7076   -2.3217   -0.0729 H   0  0  0  0  0  0  0  0  0  0  0  0
    7.2050   -1.8783   -1.6943 H   0  0  0  0  0  0  0  0  0  0  0  0
    5.4223   -0.3067   -1.4170 H   0  0  0  0  0  0  0  0  0  0  0  0
    4.5539   -0.9551    0.8297 H   0  0  0  0  0  0  0  0  0  0  0  0
    3.2370   -0.8483   -0.3191 H   0  0  0  0  0  0  0  0  0  0  0  0
    2.7201   -2.8583    0.7855 H   0  0  0  0  0  0  0  0  0  0  0  0
    2.5761   -9.2590    2.9185 H   0  0  0  0  0  0  0  0  0  0  0  0
    0.2479  -10.1039    3.1981 H   0  0  0  0  0  0  0  0  0  0  0  0
   -1.6682   -8.5717    2.7209 H   0  0  0  0  0  0  0  0  0  0  0  0
    0.8347   -5.4752    1.7645 H   0  0  0  0  0  0  0  0  0  0  0  0
    6.8465   -8.4178    2.8937 H   0  0  0  0  0  0  0  0  0  0  0  0
    8.7784   -6.5179    2.2104 H   0  0  0  0  0  0  0  0  0  0  0  0
    2.4741   -3.4455   -1.4869 H   0  0  0  0  0  0  0  0  0  0  0  0
    3.4244   -4.7635   -0.9097 H   0  0  0  0  0  0  0  0  0  0  0  0
    5.5971   -3.2024    0.9902 H   0  0  0  0  0  0  0  0  0  0  0  0
  1  2  1  0
  1 30  1  0
  1 31  1  0
  1 32  1  0
  2  3  1  0
  2 33  1  0
  2 34  1  0
  3  4  1  0
  4  5  2  0
  4  6  1  0
  6 10  1  0
  6  7  1  0
  7 29  1  0
  7  8  1  0
  7 35  1  6
  8  9  1  0
  8 36  1  0
  8 37  1  0
  9 10  1  0
  9 38  1  0
  9 39  1  0
 10 11  1  0
 10 40  1  6
 11 12  1  0
 11 41  1  0
 11 42  1  0
 12 13  1  0
 12 29  1  0
 12 43  1  1
 13 14  1  0
 13 52  1  0
 14 28  1  0
 14 15  2  0
 15 16  1  0
 16 17  1  0
 16 23  2  0
 17 22  1  0
 17 18  2  0
 18 19  1  0
 18 44  1  0
 19 20  2  0
 19 45  1  0
 20 21  1  0
 20 46  1  0
 21 22  2  0
 22 47  1  0
 23 24  1  0
 24 28  1  0
 24 25  1  0
 25 26  2  0
 25 48  1  0
 26 27  1  0
 26 49  1  0
 27 28  2  0
 29 50  1  0
 29 51  1  0
M  END
>  <i_m_ct_stereo_status>  (220) 
1

>  <s_m_source_file>  (220) 
/var/tmp/pbs.5076255.sched01/tmpbhhv4xqx/80i1gy0gug.sdf

>  <i_m_source_file_index>  (220) 
21

>  <i_lp_mmshare_version>  (220) 
48012

>  <i_f3d_flags>  (220) 
0

>  <s_epik_input>  (220) 
W0NIM11bQ0gyXU9DKD1PKU4oW0NAQEhdMTIpW0NASF0oW0NIMl1bQ0gyXTEpW0NIMl1bQ0BIXShbQ0gyXTIpL049YyhjKG4zNCluW2NIXVtjSF00KVxbbkhdYyhuMyktYzVbY0hdW2NIXVtjSF1uW2NIXTU=

>  <s_epik_cmdline>  (220) 
J2VwaWtfcHl0aG9uJywgJy1waHQnLCAnMi4wJywgJy1waCcsICc3LjAnLCAnLXRuJywgJzgnLCAnLW1hJywgJzIwMCcsICctaW1hZScsICc8aW5maWxlLm1hZT4nLCAnLW9tYWUnLCAnPG91dGZpbGUubWFlPic=

>  <r_epik_Ionization_Penalty>  (220) 
0.00446042

>  <r_epik_Ionization_Penalty_Charging>  (220) 
6.63042e-05

>  <r_epik_Ionization_Penalty_Neutral>  (220) 
0.00439411

>  <r_epik_State_Penalty>  (220) 
0.00303862

>  <r_epik_Charging_Adjusted_Penalty>  (220) 
0.00310492

>  <i_epik_Tot_Q>  (220) 
0

>  <i_epik_Tot_abs_Q>  (220) 
0

>  <s_epik_Chemistry_Notes>  (220) 
This compound has an ester and may undergo hydrolysis at high or low pH.

>  <s_lp_Force_Field>  (220) 
OPLS3e

>  <r_lp_Energy>  (220) 
28.209

>  <b_lp_Chiralities_Consistent>  (220) 
1

>  <s_lp_Variant>  (220) 
70:0-2

>  <s_i_glide_gridfile>  (220) 
pfpi4k_grid

>  <i_i_glide_lignum>  (220) 
21

>  <i_i_glide_rotatable_bonds>  (220) 
6

>  <r_i_docking_score>  (220) 
-3.59447

>  <r_i_glide_ligand_efficiency>  (220) 
-0.123947

>  <r_i_glide_ligand_efficiency_sa>  (220) 
-0.380805

>  <r_i_glide_ligand_efficiency_ln>  (220) 
-0.823042

>  <r_i_glide_gscore>  (220) 
-3.59447

>  <r_i_glide_lipo>  (220) 
-0.188512

>  <r_i_glide_hbond>  (220) 
-0.48

>  <r_i_glide_metal>  (220) 
-0

>  <r_i_glide_rewards>  (220) 
-1.11055

>  <r_i_glide_evdw>  (220) 
-35.9811

>  <r_i_glide_ecoul>  (220) 
-4.30299

>  <r_i_glide_erotb>  (220) 
0.630984

>  <r_i_glide_esite>  (220) 
-0.00188457

>  <r_i_glide_emodel>  (220) 
-47.1775

>  <r_i_glide_energy>  (220) 
-40.2841

>  <r_i_glide_einternal>  (220) 
3.93474

>  <r_i_glide_intrahb_reward>  (220) 
-0

>  <i_i_glide_confnum>  (220) 
1

>  <i_i_glide_posenum>  (220) 
1

>  <r_i_glide_eff_state_penalty>  (220) 
0

>  <ligand_id>  (220) 
70

>  <original_smiles>  (220) 
CCOC(=O)N1C2CCC1CC(N=c1[nH]c(-c3cccnc3)nn3ccnc13)C2

>  <smiles>  (220) 
[H]c1nc([H])c(-c2nc(N([H])C3([H])C([H])([H])C4([H])N(C(=O)OC([H])([H])C([H])([H])[H])C([H])(C([H])([H])C4([H])[H])C3([H])[H])c3nc([H])c([H])n3n2)c([H])c1[H]

$$$$
70:1:1
     RDKit          3D

 52 56  0  0  1  0  0  0  0  0999 V2000
    3.1395    3.6335    4.9209 C   0  0  0  0  0  0  0  0  0  0  0  0
    2.4443    2.9980    3.7116 C   0  0  0  0  0  0  0  0  0  0  0  0
    2.9999    1.7155    3.4831 O   0  0  0  0  0  0  0  0  0  0  0  0
    2.5794    0.9651    2.4437 C   0  0  0  0  0  0  0  0  0  0  0  0
    1.6586    1.2844    1.6913 O   0  0  0  0  0  0  0  0  0  0  0  0
    3.3385   -0.2019    2.3558 N   0  0  0  0  0  0  0  0  0  0  0  0
    3.1933   -1.2501    1.3597 C   0  0  1  0  0  0  0  0  0  0  0  0
    4.6524   -1.5473    0.9653 C   0  0  0  0  0  0  0  0  0  0  0  0
    5.4821   -1.1176    2.1946 C   0  0  0  0  0  0  0  0  0  0  0  0
    4.4411   -0.6131    3.2099 C   0  0  2  0  0  0  0  0  0  0  0  0
    3.8672   -1.7202    4.1359 C   0  0  0  0  0  0  0  0  0  0  0  0
    3.2602   -2.9157    3.3483 C   0  0  2  0  0  0  0  0  0  0  0  0
    4.3420   -3.8345    3.0188 N   0  0  0  0  0  0  0  0  0  0  0  0
    4.1712   -5.1637    2.6543 C   0  0  0  0  0  0  0  0  0  0  0  0
    2.9480   -5.7298    2.7238 N   0  0  0  0  0  0  0  0  0  0  0  0
    2.8518   -7.0526    2.4201 C   0  0  0  0  0  0  0  0  0  0  0  0
    1.4954   -7.6393    2.5237 C   0  0  0  0  0  0  0  0  0  0  0  0
    1.2946   -9.0159    2.7779 C   0  0  0  0  0  0  0  0  0  0  0  0
   -0.0152   -9.5188    2.8807 C   0  0  0  0  0  0  0  0  0  0  0  0
   -1.0966   -8.6359    2.7168 C   0  0  0  0  0  0  0  0  0  0  0  0
   -0.9378   -7.3174    2.4787 N   0  0  0  0  0  0  0  0  0  0  0  0
    0.3274   -6.8530    2.3896 C   0  0  0  0  0  0  0  0  0  0  0  0
    3.8739   -7.8733    2.0547 N   0  0  0  0  0  0  0  0  0  0  0  0
    5.0493   -7.2297    1.9952 N   0  0  0  0  0  0  0  0  0  0  0  0
    6.2480   -7.8358    1.6797 C   0  0  0  0  0  0  0  0  0  0  0  0
    7.1925   -6.8389    1.7322 C   0  0  0  0  0  0  0  0  0  0  0  0
    6.6105   -5.6191    2.0907 N   0  0  0  0  0  0  0  0  0  0  0  0
    5.3135   -5.8845    2.2597 C   0  0  0  0  0  0  0  0  0  0  0  0
    2.4998   -2.4432    2.0718 C   0  0  0  0  0  0  0  0  0  0  0  0
    2.7291    4.6209    5.1284 H   0  0  0  0  0  0  0  0  0  0  0  0
    4.2097    3.7474    4.7462 H   0  0  0  0  0  0  0  0  0  0  0  0
    3.0104    3.0234    5.8156 H   0  0  0  0  0  0  0  0  0  0  0  0
    1.3739    2.9062    3.8955 H   0  0  0  0  0  0  0  0  0  0  0  0
    2.5769    3.6254    2.8290 H   0  0  0  0  0  0  0  0  0  0  0  0
    2.6166   -0.9270    0.4905 H   0  0  0  0  0  0  0  0  0  0  0  0
    4.7950   -2.5948    0.6936 H   0  0  0  0  0  0  0  0  0  0  0  0
    4.9444   -0.9619    0.0932 H   0  0  0  0  0  0  0  0  0  0  0  0
    6.1040   -1.9145    2.6039 H   0  0  0  0  0  0  0  0  0  0  0  0
    6.1671   -0.3175    1.9171 H   0  0  0  0  0  0  0  0  0  0  0  0
    4.8745    0.1840    3.8135 H   0  0  0  0  0  0  0  0  0  0  0  0
    4.6289   -2.0714    4.8369 H   0  0  0  0  0  0  0  0  0  0  0  0
    3.0755   -1.2909    4.7556 H   0  0  0  0  0  0  0  0  0  0  0  0
    2.5765   -3.4612    4.0059 H   0  0  0  0  0  0  0  0  0  0  0  0
    2.1362   -9.6811    2.9101 H   0  0  0  0  0  0  0  0  0  0  0  0
   -0.1924  -10.5663    3.0783 H   0  0  0  0  0  0  0  0  0  0  0  0
   -2.1129   -8.9931    2.7775 H   0  0  0  0  0  0  0  0  0  0  0  0
    0.3922   -5.7937    2.2041 H   0  0  0  0  0  0  0  0  0  0  0  0
    6.2932   -8.8888    1.4446 H   0  0  0  0  0  0  0  0  0  0  0  0
    8.2583   -6.8931    1.5470 H   0  0  0  0  0  0  0  0  0  0  0  0
    1.4984   -2.1298    2.3737 H   0  0  0  0  0  0  0  0  0  0  0  0
    2.3361   -3.2650    1.3735 H   0  0  0  0  0  0  0  0  0  0  0  0
    5.2044   -3.4269    2.7059 H   0  0  0  0  0  0  0  0  0  0  0  0
  1  2  1  0
  1 30  1  0
  1 31  1  0
  1 32  1  0
  2  3  1  0
  2 33  1  0
  2 34  1  0
  3  4  1  0
  4  5  2  0
  4  6  1  0
  6 10  1  0
  6  7  1  0
  7 29  1  0
  7  8  1  0
  7 35  1  6
  8  9  1  0
  8 36  1  0
  8 37  1  0
  9 10  1  0
  9 38  1  0
  9 39  1  0
 10 11  1  0
 10 40  1  1
 11 12  1  0
 11 41  1  0
 11 42  1  0
 12 13  1  0
 12 29  1  0
 12 43  1  1
 13 14  1  0
 13 52  1  0
 14 28  1  0
 14 15  2  0
 15 16  1  0
 16 17  1  0
 16 23  2  0
 17 22  1  0
 17 18  2  0
 18 19  1  0
 18 44  1  0
 19 20  2  0
 19 45  1  0
 20 21  1  0
 20 46  1  0
 21 22  2  0
 22 47  1  0
 23 24  1  0
 24 28  1  0
 24 25  1  0
 25 26  2  0
 25 48  1  0
 26 27  1  0
 26 49  1  0
 27 28  2  0
 29 50  1  0
 29 51  1  0
M  END
>  <i_m_ct_stereo_status>  (221) 
1

>  <s_m_source_file>  (221) 
/var/tmp/pbs.5076255.sched01/tmpbhhv4xqx/80i1gy0gug.sdf

>  <i_m_source_file_index>  (221) 
21

>  <i_lp_mmshare_version>  (221) 
48012

>  <i_f3d_flags>  (221) 
0

>  <s_epik_input>  (221) 
W0NIM11bQ0gyXU9DKD1PKU4oW0NAQEhdMTIpW0NASF0oW0NIMl1bQ0gyXTEpW0NIMl1bQ0BIXShbQ0gyXTIpL049YyhjKG4zNCluW2NIXVtjSF00KVxbbkhdYyhuMyktYzVbY0hdW2NIXVtjSF1uW2NIXTU=

>  <s_epik_cmdline>  (221) 
J2VwaWtfcHl0aG9uJywgJy1waHQnLCAnMi4wJywgJy1waCcsICc3LjAnLCAnLXRuJywgJzgnLCAnLW1hJywgJzIwMCcsICctaW1hZScsICc8aW5maWxlLm1hZT4nLCAnLW9tYWUnLCAnPG91dGZpbGUubWFlPic=

>  <r_epik_Ionization_Penalty>  (221) 
0.00446042

>  <r_epik_Ionization_Penalty_Charging>  (221) 
6.63042e-05

>  <r_epik_Ionization_Penalty_Neutral>  (221) 
0.00439411

>  <r_epik_State_Penalty>  (221) 
0.00303862

>  <r_epik_Charging_Adjusted_Penalty>  (221) 
0.00310492

>  <i_epik_Tot_Q>  (221) 
0

>  <i_epik_Tot_abs_Q>  (221) 
0

>  <s_epik_Chemistry_Notes>  (221) 
This compound has an ester and may undergo hydrolysis at high or low pH.

>  <s_lp_Force_Field>  (221) 
OPLS3e

>  <r_lp_Energy>  (221) 
28.209

>  <b_lp_Chiralities_Consistent>  (221) 
1

>  <s_lp_Variant>  (221) 
70:0-2

>  <s_i_glide_gridfile>  (221) 
pfpi4k_grid

>  <i_i_glide_lignum>  (221) 
21

>  <i_i_glide_rotatable_bonds>  (221) 
6

>  <r_i_docking_score>  (221) 
-2.52443

>  <r_i_glide_ligand_efficiency>  (221) 
-0.0870494

>  <r_i_glide_ligand_efficiency_sa>  (221) 
-0.267443

>  <r_i_glide_ligand_efficiency_ln>  (221) 
-0.578031

>  <r_i_glide_gscore>  (221) 
-2.52443

>  <r_i_glide_lipo>  (221) 
-0.339795

>  <r_i_glide_hbond>  (221) 
-0.0952448

>  <r_i_glide_metal>  (221) 
-0

>  <r_i_glide_rewards>  (221) 
-0.820608

>  <r_i_glide_evdw>  (221) 
-32.8561

>  <r_i_glide_ecoul>  (221) 
-1.69414

>  <r_i_glide_erotb>  (221) 
0.630984

>  <r_i_glide_esite>  (221) 
-0.00284052

>  <r_i_glide_emodel>  (221) 
-40.1857

>  <r_i_glide_energy>  (221) 
-34.5503

>  <r_i_glide_einternal>  (221) 
1.2619

>  <r_i_glide_intrahb_reward>  (221) 
-0

>  <i_i_glide_confnum>  (221) 
2

>  <i_i_glide_posenum>  (221) 
5

>  <r_i_glide_eff_state_penalty>  (221) 
0

>  <ligand_id>  (221) 
70

>  <original_smiles>  (221) 
CCOC(=O)N1C2CCC1CC(N=c1[nH]c(-c3cccnc3)nn3ccnc13)C2

>  <smiles>  (221) 
[H]c1nc([H])c(-c2nc(N([H])C3([H])C([H])([H])C4([H])N(C(=O)OC([H])([H])C([H])([H])[H])C([H])(C([H])([H])C4([H])[H])C3([H])[H])c3nc([H])c([H])n3n2)c([H])c1[H]

$$$$
70:1:2
     RDKit          3D

 52 56  0  0  1  0  0  0  0  0999 V2000
   -2.4929    2.4598    7.3617 C   0  0  0  0  0  0  0  0  0  0  0  0
   -1.7942    3.6072    6.6296 C   0  0  0  0  0  0  0  0  0  0  0  0
   -0.7210    3.1122    5.8475 O   0  0  0  0  0  0  0  0  0  0  0  0
   -0.8906    2.8177    4.5389 C   0  0  0  0  0  0  0  0  0  0  0  0
   -1.9263    3.0482    3.9096 O   0  0  0  0  0  0  0  0  0  0  0  0
    0.2611    2.2085    4.0393 N   0  0  0  0  0  0  0  0  0  0  0  0
    0.4447    1.7009    2.6915 C   0  0  1  0  0  0  0  0  0  0  0  0
    1.8542    2.2079    2.3345 C   0  0  0  0  0  0  0  0  0  0  0  0
    2.5640    2.3930    3.6922 C   0  0  0  0  0  0  0  0  0  0  0  0
    1.5164    1.9675    4.7372 C   0  0  2  0  0  0  0  0  0  0  0  0
    1.5380    0.4527    5.0705 C   0  0  0  0  0  0  0  0  0  0  0  0
    1.3882   -0.4411    3.8114 C   0  0  2  0  0  0  0  0  0  0  0  0
    2.7051   -0.5872    3.2097 N   0  0  0  0  0  0  0  0  0  0  0  0
    3.1576   -1.7219    2.5540 C   0  0  0  0  0  0  0  0  0  0  0  0
    2.4724   -2.8792    2.6644 N   0  0  0  0  0  0  0  0  0  0  0  0
    3.0046   -3.9843    2.0839 C   0  0  0  0  0  0  0  0  0  0  0  0
    2.2186   -5.2347    2.2475 C   0  0  0  0  0  0  0  0  0  0  0  0
    2.5140   -6.4012    1.5032 C   0  0  0  0  0  0  0  0  0  0  0  0
    1.7329   -7.5594    1.6769 C   0  0  0  0  0  0  0  0  0  0  0  0
    0.6617   -7.5240    2.5860 C   0  0  0  0  0  0  0  0  0  0  0  0
    0.3431   -6.4218    3.2903 N   0  0  0  0  0  0  0  0  0  0  0  0
    1.1223   -5.3298    3.1428 C   0  0  0  0  0  0  0  0  0  0  0  0
    4.1703   -4.0408    1.3799 N   0  0  0  0  0  0  0  0  0  0  0  0
    4.7831   -2.8519    1.3021 N   0  0  0  0  0  0  0  0  0  0  0  0
    5.9870   -2.6400    0.6598 C   0  0  0  0  0  0  0  0  0  0  0  0
    6.2630   -1.3059    0.8337 C   0  0  0  0  0  0  0  0  0  0  0  0
    5.2623   -0.6765    1.5726 N   0  0  0  0  0  0  0  0  0  0  0  0
    4.3729   -1.6334    1.8449 C   0  0  0  0  0  0  0  0  0  0  0  0
    0.3725    0.1520    2.7899 C   0  0  0  0  0  0  0  0  0  0  0  0
   -3.3226    2.8324    7.9630 H   0  0  0  0  0  0  0  0  0  0  0  0
   -1.8006    1.9423    8.0269 H   0  0  0  0  0  0  0  0  0  0  0  0
   -2.8921    1.7349    6.6526 H   0  0  0  0  0  0  0  0  0  0  0  0
   -2.5188    4.1419    6.0121 H   0  0  0  0  0  0  0  0  0  0  0  0
   -1.3990    4.3240    7.3493 H   0  0  0  0  0  0  0  0  0  0  0  0
   -0.3006    2.0819    1.9907 H   0  0  0  0  0  0  0  0  0  0  0  0
    2.3723    1.5264    1.6598 H   0  0  0  0  0  0  0  0  0  0  0  0
    1.8123    3.1641    1.8126 H   0  0  0  0  0  0  0  0  0  0  0  0
    3.4926    1.8293    3.7810 H   0  0  0  0  0  0  0  0  0  0  0  0
    2.8370    3.4396    3.8237 H   0  0  0  0  0  0  0  0  0  0  0  0
    1.6495    2.5477    5.6487 H   0  0  0  0  0  0  0  0  0  0  0  0
    2.4488    0.1897    5.6122 H   0  0  0  0  0  0  0  0  0  0  0  0
    0.7147    0.2214    5.7498 H   0  0  0  0  0  0  0  0  0  0  0  0
    1.0423   -1.4274    4.1301 H   0  0  0  0  0  0  0  0  0  0  0  0
    3.3270   -6.4120    0.7899 H   0  0  0  0  0  0  0  0  0  0  0  0
    1.9448   -8.4634    1.1280 H   0  0  0  0  0  0  0  0  0  0  0  0
    0.0497   -8.3964    2.7477 H   0  0  0  0  0  0  0  0  0  0  0  0
    0.8094   -4.4912    3.7455 H   0  0  0  0  0  0  0  0  0  0  0  0
    6.5030   -3.4513    0.1638 H   0  0  0  0  0  0  0  0  0  0  0  0
    7.1135   -0.7315    0.4867 H   0  0  0  0  0  0  0  0  0  0  0  0
   -0.6321   -0.1241    3.1166 H   0  0  0  0  0  0  0  0  0  0  0  0
    0.4920   -0.3006    1.8034 H   0  0  0  0  0  0  0  0  0  0  0  0
    3.1747    0.2642    2.9506 H   0  0  0  0  0  0  0  0  0  0  0  0
  1  2  1  0
  1 30  1  0
  1 31  1  0
  1 32  1  0
  2  3  1  0
  2 33  1  0
  2 34  1  0
  3  4  1  0
  4  5  2  0
  4  6  1  0
  6 10  1  0
  6  7  1  0
  7 29  1  0
  7  8  1  0
  7 35  1  6
  8  9  1  0
  8 36  1  0
  8 37  1  0
  9 10  1  0
  9 38  1  0
  9 39  1  0
 10 11  1  0
 10 40  1  1
 11 12  1  0
 11 41  1  0
 11 42  1  0
 12 13  1  0
 12 29  1  0
 12 43  1  1
 13 14  1  0
 13 52  1  0
 14 28  1  0
 14 15  2  0
 15 16  1  0
 16 17  1  0
 16 23  2  0
 17 22  1  0
 17 18  2  0
 18 19  1  0
 18 44  1  0
 19 20  2  0
 19 45  1  0
 20 21  1  0
 20 46  1  0
 21 22  2  0
 22 47  1  0
 23 24  1  0
 24 28  1  0
 24 25  1  0
 25 26  2  0
 25 48  1  0
 26 27  1  0
 26 49  1  0
 27 28  2  0
 29 50  1  0
 29 51  1  0
M  END
>  <i_m_ct_stereo_status>  (222) 
1

>  <s_m_source_file>  (222) 
/var/tmp/pbs.5076255.sched01/tmpbhhv4xqx/80i1gy0gug.sdf

>  <i_m_source_file_index>  (222) 
21

>  <i_lp_mmshare_version>  (222) 
48012

>  <i_f3d_flags>  (222) 
0

>  <s_epik_input>  (222) 
W0NIM11bQ0gyXU9DKD1PKU4oW0NAQEhdMTIpW0NASF0oW0NIMl1bQ0gyXTEpW0NIMl1bQ0BIXShbQ0gyXTIpL049YyhjKG4zNCluW2NIXVtjSF00KVxbbkhdYyhuMyktYzVbY0hdW2NIXVtjSF1uW2NIXTU=

>  <s_epik_cmdline>  (222) 
J2VwaWtfcHl0aG9uJywgJy1waHQnLCAnMi4wJywgJy1waCcsICc3LjAnLCAnLXRuJywgJzgnLCAnLW1hJywgJzIwMCcsICctaW1hZScsICc8aW5maWxlLm1hZT4nLCAnLW9tYWUnLCAnPG91dGZpbGUubWFlPic=

>  <r_epik_Ionization_Penalty>  (222) 
0.00446042

>  <r_epik_Ionization_Penalty_Charging>  (222) 
6.63042e-05

>  <r_epik_Ionization_Penalty_Neutral>  (222) 
0.00439411

>  <r_epik_State_Penalty>  (222) 
0.00303862

>  <r_epik_Charging_Adjusted_Penalty>  (222) 
0.00310492

>  <i_epik_Tot_Q>  (222) 
0

>  <i_epik_Tot_abs_Q>  (222) 
0

>  <s_epik_Chemistry_Notes>  (222) 
This compound has an ester and may undergo hydrolysis at high or low pH.

>  <s_lp_Force_Field>  (222) 
OPLS3e

>  <r_lp_Energy>  (222) 
28.209

>  <b_lp_Chiralities_Consistent>  (222) 
1

>  <s_lp_Variant>  (222) 
70:0-2

>  <s_i_glide_gridfile>  (222) 
pfpi4k_grid

>  <i_i_glide_lignum>  (222) 
21

>  <i_i_glide_rotatable_bonds>  (222) 
6

>  <r_i_docking_score>  (222) 
-2.31077

>  <r_i_glide_ligand_efficiency>  (222) 
-0.0796816

>  <r_i_glide_ligand_efficiency_sa>  (222) 
-0.244807

>  <r_i_glide_ligand_efficiency_ln>  (222) 
-0.529107

>  <r_i_glide_gscore>  (222) 
-2.31077

>  <r_i_glide_lipo>  (222) 
-0.327647

>  <r_i_glide_hbond>  (222) 
-0.0232399

>  <r_i_glide_metal>  (222) 
-0

>  <r_i_glide_rewards>  (222) 
-0.783698

>  <r_i_glide_evdw>  (222) 
-31.1266

>  <r_i_glide_ecoul>  (222) 
-1.30565

>  <r_i_glide_erotb>  (222) 
0.630984

>  <r_i_glide_esite>  (222) 
-0.0549913

>  <r_i_glide_emodel>  (222) 
-37.4847

>  <r_i_glide_energy>  (222) 
-32.4322

>  <r_i_glide_einternal>  (222) 
1.12497

>  <r_i_glide_intrahb_reward>  (222) 
-0

>  <i_i_glide_confnum>  (222) 
1

>  <i_i_glide_posenum>  (222) 
13

>  <r_i_glide_eff_state_penalty>  (222) 
0

>  <ligand_id>  (222) 
70

>  <original_smiles>  (222) 
CCOC(=O)N1C2CCC1CC(N=c1[nH]c(-c3cccnc3)nn3ccnc13)C2

>  <smiles>  (222) 
[H]c1nc([H])c(-c2nc(N([H])C3([H])C([H])([H])C4([H])N(C(=O)OC([H])([H])C([H])([H])[H])C([H])(C([H])([H])C4([H])[H])C3([H])[H])c3nc([H])c([H])n3n2)c([H])c1[H]

$$$$
71:0:0
     RDKit          3D

 65 71  0  0  1  0  0  0  0  0999 V2000
    1.9191    3.3596    2.9636 C   0  0  0  0  0  0  0  0  0  0  0  0
    2.7918    2.1134    3.2248 C   0  0  2  0  0  0  0  0  0  0  0  0
    2.9016    1.2202    1.9422 C   0  0  0  0  0  0  0  0  0  0  0  0
    3.0219   -0.3054    2.2268 C   0  0  1  0  0  0  0  0  0  0  0  0
    2.2292   -0.9512    1.3132 O   0  0  0  0  0  0  0  0  0  0  0  0
    4.4842   -0.7403    2.0120 C   0  0  2  0  0  0  0  0  0  0  0  0
    5.1612   -0.6914    0.6533 C   0  0  2  0  0  0  0  0  0  0  0  0
    4.3549   -0.6614   -0.4979 O   0  0  0  0  0  0  0  0  0  0  0  0
    4.9281   -1.2343   -1.6835 C   0  0  1  0  0  0  0  0  0  0  0  0
    6.1488   -2.2074   -1.4864 C   0  0  0  0  0  0  0  0  0  0  0  0
    5.5754   -3.6417   -1.3276 C   0  0  2  0  0  0  0  0  0  0  0  0
    5.1911   -4.0682   -2.7758 C   0  0  0  0  0  0  0  0  0  0  0  0
    4.2199   -3.0313   -3.3325 C   0  0  0  0  0  0  0  0  0  0  0  0
    3.7964   -3.0360   -4.4846 O   0  0  0  0  0  0  0  0  0  0  0  0
    3.7302   -2.0228   -2.3085 C   0  0  2  0  0  0  0  0  0  0  0  0
    2.6856   -1.1143   -2.9152 C   0  0  0  0  0  0  0  0  0  0  0  0
    3.1242   -2.9362   -1.2190 C   0  0  0  0  0  0  0  0  0  0  0  0
    4.2552   -3.7050   -0.4994 C   0  0  2  0  0  0  0  0  0  0  0  0
    4.3599   -3.3131    0.9840 C   0  0  1  0  0  0  0  0  0  0  0  0
    3.1055   -3.5048    1.6887 O   0  0  0  0  0  0  0  0  0  0  0  0
    4.1119   -4.4769    1.9686 C   0  0  1  0  0  0  0  0  0  0  0  0
    3.7675   -5.9235    1.6468 C   0  0  0  0  0  0  0  0  0  0  0  0
    4.6205   -4.4048    3.2797 O   0  0  0  0  0  0  0  0  0  0  0  0
    5.1485   -2.0168    1.3983 C   0  0  2  0  0  0  0  0  0  0  0  0
    6.4519   -2.3343    2.0327 C   0  0  0  0  0  0  0  0  0  0  0  0
    7.2511   -3.2287    1.2674 O   0  0  0  0  0  0  0  0  0  0  0  0
    2.4861   -0.6050    3.6573 C   0  0  1  0  0  0  0  0  0  0  0  0
    2.1127   -2.0448    3.9213 C   0  0  0  0  0  0  0  0  0  0  0  0
    3.1573    0.1150    4.8423 C   0  0  0  0  0  0  0  0  0  0  0  0
    2.2658    1.2572    4.3919 C   0  0  2  0  0  0  0  0  0  0  0  0
    1.3497    0.2772    3.8313 O   0  0  0  0  0  0  0  0  0  0  0  0
    0.9022    3.1070    2.6339 H   0  0  0  0  0  0  0  0  0  0  0  0
    2.3566    3.9773    2.1764 H   0  0  0  0  0  0  0  0  0  0  0  0
    1.8261    3.9825    3.8533 H   0  0  0  0  0  0  0  0  0  0  0  0
    3.7901    2.4564    3.4993 H   0  0  0  0  0  0  0  0  0  0  0  0
    2.0057    1.4051    1.3252 H   0  0  0  0  0  0  0  0  0  0  0  0
    3.7481    1.4888    1.3119 H   0  0  0  0  0  0  0  0  0  0  0  0
    2.5373   -1.8420    1.2486 H   0  0  0  0  0  0  0  0  0  0  0  0
    5.1055   -0.2481    2.7716 H   0  0  0  0  0  0  0  0  0  0  0  0
    6.0897   -0.1311    0.5615 H   0  0  0  0  0  0  0  0  0  0  0  0
    5.2469   -0.3882   -2.3007 H   0  0  0  0  0  0  0  0  0  0  0  0
    6.7740   -2.2260   -2.3859 H   0  0  0  0  0  0  0  0  0  0  0  0
    6.8321   -1.8862   -0.7037 H   0  0  0  0  0  0  0  0  0  0  0  0
    6.3134   -4.3182   -0.8913 H   0  0  0  0  0  0  0  0  0  0  0  0
    6.0642   -4.1304   -3.4170 H   0  0  0  0  0  0  0  0  0  0  0  0
    4.7109   -5.0436   -2.7724 H   0  0  0  0  0  0  0  0  0  0  0  0
    2.2263   -0.4444   -2.2126 H   0  0  0  0  0  0  0  0  0  0  0  0
    1.9350   -1.8026   -3.3389 H   0  0  0  0  0  0  0  0  0  0  0  0
    3.1034   -0.4853   -3.6961 H   0  0  0  0  0  0  0  0  0  0  0  0
    2.5087   -2.3692   -0.5289 H   0  0  0  0  0  0  0  0  0  0  0  0
    2.4422   -3.6685   -1.6688 H   0  0  0  0  0  0  0  0  0  0  0  0
    3.9758   -4.7516   -0.5625 H   0  0  0  0  0  0  0  0  0  0  0  0
    3.5024   -6.4617    2.5558 H   0  0  0  0  0  0  0  0  0  0  0  0
    4.6343   -6.4306    1.2216 H   0  0  0  0  0  0  0  0  0  0  0  0
    2.9333   -6.0049    0.9475 H   0  0  0  0  0  0  0  0  0  0  0  0
    3.9552   -4.7356    3.8605 H   0  0  0  0  0  0  0  0  0  0  0  0
    6.9863   -1.4048    2.2065 H   0  0  0  0  0  0  0  0  0  0  0  0
    6.1703   -2.7763    2.9776 H   0  0  0  0  0  0  0  0  0  0  0  0
    8.0650   -3.3530    1.7325 H   0  0  0  0  0  0  0  0  0  0  0  0
    3.0164   -2.6455    3.8525 H   0  0  0  0  0  0  0  0  0  0  0  0
    1.4079   -2.4315    3.1871 H   0  0  0  0  0  0  0  0  0  0  0  0
    1.6647   -2.2221    4.9032 H   0  0  0  0  0  0  0  0  0  0  0  0
    2.8763   -0.2978    5.8012 H   0  0  0  0  0  0  0  0  0  0  0  0
    4.2302    0.2517    4.7882 H   0  0  0  0  0  0  0  0  0  0  0  0
    1.7968    1.7929    5.2283 H   0  0  0  0  0  0  0  0  0  0  0  0
  1  2  1  0
  1 32  1  0
  1 33  1  0
  1 34  1  0
  2 30  1  0
  2  3  1  0
  2 35  1  1
  3  4  1  0
  3 36  1  0
  3 37  1  0
  4  5  1  6
  4  6  1  0
  4 27  1  0
  5 38  1  0
  6 24  1  0
  6  7  1  0
  6 39  1  1
  7 24  1  0
  7  8  1  0
  7 40  1  1
  8  9  1  0
  9 15  1  0
  9 10  1  0
  9 41  1  6
 10 11  1  0
 10 42  1  0
 10 43  1  0
 11 18  1  0
 11 12  1  0
 11 44  1  1
 12 13  1  0
 12 45  1  0
 12 46  1  0
 13 14  2  0
 13 15  1  0
 15 16  1  6
 15 17  1  0
 16 47  1  0
 16 48  1  0
 16 49  1  0
 17 18  1  0
 17 50  1  0
 17 51  1  0
 18 19  1  0
 18 52  1  1
 19 21  1  0
 19 20  1  1
 19 24  1  0
 20 21  1  0
 21 22  1  0
 21 23  1  1
 22 53  1  0
 22 54  1  0
 22 55  1  0
 23 56  1  0
 24 25  1  1
 25 26  1  0
 25 57  1  0
 25 58  1  0
 26 59  1  0
 27 31  1  0
 27 28  1  1
 27 29  1  0
 28 60  1  0
 28 61  1  0
 28 62  1  0
 29 30  1  0
 29 63  1  0
 29 64  1  0
 30 31  1  0
 30 65  1  1
M  END
>  <i_m_ct_stereo_status>  (223) 
1

>  <s_m_source_file>  (223) 
/var/tmp/pbs.5076255.sched01/tmpbhhv4xqx/80i1gy0gug.sdf

>  <i_m_source_file_index>  (223) 
22

>  <i_lp_mmshare_version>  (223) 
48012

>  <i_f3d_flags>  (223) 
0

>  <s_epik_input>  (223) 
W0NIMl0xW0NASF0oTzIpW0NASF0oW0NIM10pW0NIMl1bQ0BdKFtPSF0pKFtDQEBdMTJbQ0gzXSlbQ0BIXTNbQ0BdNChbQ0gyXVtPSF0pW0NASF0zT1tDQEhdKFtDQF0oW0NIM10pKFtDSDJdNSlDKD1PKVtDSDJdNilbQ0gyXVtDQEhdNltDQEhdNVtDQF00N09bQ0BdNyhbQ0gzXSlbT0hd

>  <s_epik_cmdline>  (223) 
J2VwaWtfcHl0aG9uJywgJy1waHQnLCAnMi4wJywgJy1waCcsICc3LjAnLCAnLXRuJywgJzgnLCAnLW1hJywgJzIwMCcsICctaW1hZScsICc8aW5maWxlLm1hZT4nLCAnLW9tYWUnLCAnPG91dGZpbGUubWFlPic=

>  <r_lp_tautomer_probability>  (223) 
1

>  <r_epik_Ionization_Penalty>  (223) 
3.66034e-06

>  <r_epik_Ionization_Penalty_Charging>  (223) 
0

>  <r_epik_Ionization_Penalty_Neutral>  (223) 
3.66034e-06

>  <r_epik_State_Penalty>  (223) 
-0

>  <r_epik_Charging_Adjusted_Penalty>  (223) 
0

>  <i_epik_Tot_Q>  (223) 
0

>  <i_epik_Tot_abs_Q>  (223) 
0

>  <s_lp_Force_Field>  (223) 
OPLS3e

>  <r_lp_Energy>  (223) 
75.7087

>  <b_lp_Chiralities_Consistent>  (223) 
1

>  <s_lp_Variant>  (223) 
71:0-1

>  <s_i_glide_gridfile>  (223) 
pfpi4k_grid

>  <i_i_glide_lignum>  (223) 
22

>  <i_i_glide_rotatable_bonds>  (223) 
5

>  <r_i_docking_score>  (223) 
-2.48669

>  <r_i_glide_ligand_efficiency>  (223) 
-0.0802157

>  <r_i_glide_ligand_efficiency_sa>  (223) 
-0.251988

>  <r_i_glide_ligand_efficiency_ln>  (223) 
-0.560824

>  <r_i_glide_gscore>  (223) 
-2.48669

>  <r_i_glide_lipo>  (223) 
-0.463634

>  <r_i_glide_hbond>  (223) 
-0.238751

>  <r_i_glide_metal>  (223) 
-0

>  <r_i_glide_rewards>  (223) 
-1.15311

>  <r_i_glide_evdw>  (223) 
-12.8962

>  <r_i_glide_ecoul>  (223) 
-1.31563

>  <r_i_glide_erotb>  (223) 
0.210969

>  <r_i_glide_esite>  (223) 
0

>  <r_i_glide_emodel>  (223) 
-19.927

>  <r_i_glide_energy>  (223) 
-14.2119

>  <r_i_glide_einternal>  (223) 
1.77784

>  <r_i_glide_intrahb_reward>  (223) 
-0.5

>  <i_i_glide_confnum>  (223) 
1

>  <i_i_glide_posenum>  (223) 
2

>  <r_i_glide_eff_state_penalty>  (223) 
0

>  <ligand_id>  (223) 
71

>  <original_smiles>  (223) 
CC1CC(O)(C2C3OC4CC5CC(=O)C4(C)CC5C4(OC4(C)O)C32CO)C2(C)CC1O2

>  <smiles>  (223) 
[H]OC([H])([H])C12C([H])(OC3([H])C([H])([H])C4([H])C([H])([H])C(=O)C3(C([H])([H])[H])C([H])([H])C4([H])C13OC3(O[H])C([H])([H])[H])C2([H])C1(O[H])C([H])([H])C([H])(C([H])([H])[H])C2([H])OC1(C([H])([H])[H])C2([H])[H]

$$$$
71:0:1
     RDKit          3D

 65 71  0  0  1  0  0  0  0  0999 V2000
    1.4257    2.7740    2.5341 C   0  0  0  0  0  0  0  0  0  0  0  0
    2.1563    1.5346    3.0896 C   0  0  2  0  0  0  0  0  0  0  0  0
    2.3185    0.4928    1.9754 C   0  0  0  0  0  0  0  0  0  0  0  0
    2.3106   -0.9843    2.5022 C   0  0  1  0  0  0  0  0  0  0  0  0
    1.4348   -1.6731    1.6745 O   0  0  0  0  0  0  0  0  0  0  0  0
    3.7403   -1.5872    2.5742 C   0  0  2  0  0  0  0  0  0  0  0  0
    4.6849   -1.4893    1.4195 C   0  0  2  0  0  0  0  0  0  0  0  0
    4.1171   -1.1817    0.1630 O   0  0  0  0  0  0  0  0  0  0  0  0
    4.8863   -1.5514   -0.9878 C   0  0  1  0  0  0  0  0  0  0  0  0
    5.9725   -2.6599   -0.7269 C   0  0  0  0  0  0  0  0  0  0  0  0
    5.2885   -4.0259   -0.9779 C   0  0  2  0  0  0  0  0  0  0  0  0
    5.2089   -4.1498   -2.5291 C   0  0  0  0  0  0  0  0  0  0  0  0
    4.4622   -2.9295   -3.0845 C   0  0  0  0  0  0  0  0  0  0  0  0
    4.3360   -2.6944   -4.2908 O   0  0  0  0  0  0  0  0  0  0  0  0
    3.8111   -2.0662   -2.0004 C   0  0  2  0  0  0  0  0  0  0  0  0
    3.0071   -0.9465   -2.6767 C   0  0  0  0  0  0  0  0  0  0  0  0
    2.9277   -3.0796   -1.2160 C   0  0  0  0  0  0  0  0  0  0  0  0
    3.8288   -4.0625   -0.4122 C   0  0  2  0  0  0  0  0  0  0  0  0
    3.6390   -3.9563    1.1335 C   0  0  1  0  0  0  0  0  0  0  0  0
    2.2626   -4.1761    1.5327 O   0  0  0  0  0  0  0  0  0  0  0  0
    3.1195   -5.2459    1.8308 C   0  0  1  0  0  0  0  0  0  0  0  0
    2.7469   -6.5439    1.1476 C   0  0  0  0  0  0  0  0  0  0  0  0
    3.3891   -5.4282    3.1931 O   0  0  0  0  0  0  0  0  0  0  0  0
    4.4096   -2.8741    1.9768 C   0  0  2  0  0  0  0  0  0  0  0  0
    5.5480   -3.4283    2.8016 C   0  0  0  0  0  0  0  0  0  0  0  0
    6.3578   -4.3106    2.0584 O   0  0  0  0  0  0  0  0  0  0  0  0
    1.6187   -1.0567    3.8983 C   0  0  1  0  0  0  0  0  0  0  0  0
    1.1255   -2.4582    4.3048 C   0  0  0  0  0  0  0  0  0  0  0  0
    2.2018   -0.1973    5.0435 C   0  0  0  0  0  0  0  0  0  0  0  0
    1.4456    0.9132    4.3181 C   0  0  2  0  0  0  0  0  0  0  0  0
    0.5273   -0.0984    3.8303 O   0  0  0  0  0  0  0  0  0  0  0  0
    0.4251    2.5310    2.1423 H   0  0  0  0  0  0  0  0  0  0  0  0
    1.9914    3.1927    1.6975 H   0  0  0  0  0  0  0  0  0  0  0  0
    1.3114    3.5594    3.2844 H   0  0  0  0  0  0  0  0  0  0  0  0
    3.1662    1.8543    3.3936 H   0  0  0  0  0  0  0  0  0  0  0  0
    1.4820    0.6262    1.2638 H   0  0  0  0  0  0  0  0  0  0  0  0
    3.2035    0.7462    1.4067 H   0  0  0  0  0  0  0  0  0  0  0  0
    1.4449   -1.3123    0.7903 H   0  0  0  0  0  0  0  0  0  0  0  0
    4.1991   -1.2718    3.5164 H   0  0  0  0  0  0  0  0  0  0  0  0
    5.6164   -0.9682    1.6180 H   0  0  0  0  0  0  0  0  0  0  0  0
    5.3969   -0.6564   -1.3495 H   0  0  0  0  0  0  0  0  0  0  0  0
    6.7994   -2.5639   -1.4414 H   0  0  0  0  0  0  0  0  0  0  0  0
    6.4652   -2.5980    0.2455 H   0  0  0  0  0  0  0  0  0  0  0  0
    5.8700   -4.8533   -0.5553 H   0  0  0  0  0  0  0  0  0  0  0  0
    6.2028   -4.2083   -2.9654 H   0  0  0  0  0  0  0  0  0  0  0  0
    4.6700   -5.0491   -2.8191 H   0  0  0  0  0  0  0  0  0  0  0  0
    2.4083   -0.3799   -1.9824 H   0  0  0  0  0  0  0  0  0  0  0  0
    2.2882   -1.3816   -3.3744 H   0  0  0  0  0  0  0  0  0  0  0  0
    3.6511   -0.2300   -3.1945 H   0  0  0  0  0  0  0  0  0  0  0  0
    2.2307   -2.5788   -0.5393 H   0  0  0  0  0  0  0  0  0  0  0  0
    2.3144   -3.6580   -1.9126 H   0  0  0  0  0  0  0  0  0  0  0  0
    3.4802   -5.0489   -0.7095 H   0  0  0  0  0  0  0  0  0  0  0  0
    2.2277   -7.2055    1.8347 H   0  0  0  0  0  0  0  0  0  0  0  0
    3.6522   -7.0353    0.7902 H   0  0  0  0  0  0  0  0  0  0  0  0
    2.0908   -6.3420    0.3007 H   0  0  0  0  0  0  0  0  0  0  0  0
    2.6036   -5.7866    3.5843 H   0  0  0  0  0  0  0  0  0  0  0  0
    6.1707   -2.5946    3.1248 H   0  0  0  0  0  0  0  0  0  0  0  0
    5.2088   -3.9039    3.7200 H   0  0  0  0  0  0  0  0  0  0  0  0
    5.8665   -5.0890    1.8378 H   0  0  0  0  0  0  0  0  0  0  0  0
    1.9364   -3.1779    4.3035 H   0  0  0  0  0  0  0  0  0  0  0  0
    0.3673   -2.8490    3.6410 H   0  0  0  0  0  0  0  0  0  0  0  0
    0.6953   -2.4898    5.3041 H   0  0  0  0  0  0  0  0  0  0  0  0
    1.7731   -0.3959    6.0232 H   0  0  0  0  0  0  0  0  0  0  0  0
    3.2903   -0.0890    5.1164 H   0  0  0  0  0  0  0  0  0  0  0  0
    0.9642    1.6222    5.0026 H   0  0  0  0  0  0  0  0  0  0  0  0
  1  2  1  0
  1 32  1  0
  1 33  1  0
  1 34  1  0
  2 30  1  0
  2  3  1  0
  2 35  1  1
  3  4  1  0
  3 36  1  0
  3 37  1  0
  4  5  1  6
  4  6  1  0
  4 27  1  0
  5 38  1  0
  6 24  1  0
  6  7  1  0
  6 39  1  1
  7 24  1  0
  7  8  1  0
  7 40  1  1
  8  9  1  0
  9 15  1  0
  9 10  1  0
  9 41  1  6
 10 11  1  0
 10 42  1  0
 10 43  1  0
 11 18  1  0
 11 12  1  0
 11 44  1  1
 12 13  1  0
 12 45  1  0
 12 46  1  0
 13 14  2  0
 13 15  1  0
 15 16  1  6
 15 17  1  0
 16 47  1  0
 16 48  1  0
 16 49  1  0
 17 18  1  0
 17 50  1  0
 17 51  1  0
 18 19  1  0
 18 52  1  6
 19 21  1  0
 19 20  1  6
 19 24  1  0
 20 21  1  0
 21 22  1  0
 21 23  1  1
 22 53  1  0
 22 54  1  0
 22 55  1  0
 23 56  1  0
 24 25  1  1
 25 26  1  0
 25 57  1  0
 25 58  1  0
 26 59  1  0
 27 31  1  0
 27 28  1  1
 27 29  1  0
 28 60  1  0
 28 61  1  0
 28 62  1  0
 29 30  1  0
 29 63  1  0
 29 64  1  0
 30 31  1  0
 30 65  1  1
M  END
>  <i_m_ct_stereo_status>  (224) 
1

>  <s_m_source_file>  (224) 
/var/tmp/pbs.5076255.sched01/tmpbhhv4xqx/80i1gy0gug.sdf

>  <i_m_source_file_index>  (224) 
22

>  <i_lp_mmshare_version>  (224) 
48012

>  <i_f3d_flags>  (224) 
0

>  <s_epik_input>  (224) 
W0NIMl0xW0NASF0oTzIpW0NASF0oW0NIM10pW0NIMl1bQ0BdKFtPSF0pKFtDQEBdMTJbQ0gzXSlbQ0BIXTNbQ0BdNChbQ0gyXVtPSF0pW0NASF0zT1tDQEhdKFtDQF0oW0NIM10pKFtDSDJdNSlDKD1PKVtDSDJdNilbQ0gyXVtDQEhdNltDQEhdNVtDQF00N09bQ0BdNyhbQ0gzXSlbT0hd

>  <s_epik_cmdline>  (224) 
J2VwaWtfcHl0aG9uJywgJy1waHQnLCAnMi4wJywgJy1waCcsICc3LjAnLCAnLXRuJywgJzgnLCAnLW1hJywgJzIwMCcsICctaW1hZScsICc8aW5maWxlLm1hZT4nLCAnLW9tYWUnLCAnPG91dGZpbGUubWFlPic=

>  <r_lp_tautomer_probability>  (224) 
1

>  <r_epik_Ionization_Penalty>  (224) 
3.66034e-06

>  <r_epik_Ionization_Penalty_Charging>  (224) 
0

>  <r_epik_Ionization_Penalty_Neutral>  (224) 
3.66034e-06

>  <r_epik_State_Penalty>  (224) 
-0

>  <r_epik_Charging_Adjusted_Penalty>  (224) 
0

>  <i_epik_Tot_Q>  (224) 
0

>  <i_epik_Tot_abs_Q>  (224) 
0

>  <s_lp_Force_Field>  (224) 
OPLS3e

>  <r_lp_Energy>  (224) 
75.7087

>  <b_lp_Chiralities_Consistent>  (224) 
1

>  <s_lp_Variant>  (224) 
71:0-1

>  <s_i_glide_gridfile>  (224) 
pfpi4k_grid

>  <i_i_glide_lignum>  (224) 
22

>  <i_i_glide_rotatable_bonds>  (224) 
5

>  <r_i_docking_score>  (224) 
-2.38558

>  <r_i_glide_ligand_efficiency>  (224) 
-0.0769543

>  <r_i_glide_ligand_efficiency_sa>  (224) 
-0.241743

>  <r_i_glide_ligand_efficiency_ln>  (224) 
-0.538022

>  <r_i_glide_gscore>  (224) 
-2.38558

>  <r_i_glide_lipo>  (224) 
-0.120414

>  <r_i_glide_hbond>  (224) 
-0.262284

>  <r_i_glide_metal>  (224) 
-0

>  <r_i_glide_rewards>  (224) 
-0.604973

>  <r_i_glide_evdw>  (224) 
-17.3497

>  <r_i_glide_ecoul>  (224) 
-4.52069

>  <r_i_glide_erotb>  (224) 
0.147678

>  <r_i_glide_esite>  (224) 
0

>  <r_i_glide_emodel>  (224) 
-21.8026

>  <r_i_glide_energy>  (224) 
-21.8704

>  <r_i_glide_einternal>  (224) 
5.22478

>  <r_i_glide_intrahb_reward>  (224) 
-0

>  <i_i_glide_confnum>  (224) 
1

>  <i_i_glide_posenum>  (224) 
39

>  <r_i_glide_eff_state_penalty>  (224) 
0

>  <ligand_id>  (224) 
71

>  <original_smiles>  (224) 
CC1CC(O)(C2C3OC4CC5CC(=O)C4(C)CC5C4(OC4(C)O)C32CO)C2(C)CC1O2

>  <smiles>  (224) 
[H]OC([H])([H])C12C([H])(OC3([H])C([H])([H])C4([H])C([H])([H])C(=O)C3(C([H])([H])[H])C([H])([H])C4([H])C13OC3(O[H])C([H])([H])[H])C2([H])C1(O[H])C([H])([H])C([H])(C([H])([H])[H])C2([H])OC1(C([H])([H])[H])C2([H])[H]

$$$$
71:0:2
     RDKit          3D

 65 71  0  0  1  0  0  0  0  0999 V2000
    1.6003    2.8323    2.7085 C   0  0  0  0  0  0  0  0  0  0  0  0
    2.3356    1.5763    3.2094 C   0  0  2  0  0  0  0  0  0  0  0  0
    2.4860    0.5742    2.0530 C   0  0  0  0  0  0  0  0  0  0  0  0
    2.4642   -0.9221    2.5296 C   0  0  1  0  0  0  0  0  0  0  0  0
    1.5952   -1.5818    1.6524 O   0  0  0  0  0  0  0  0  0  0  0  0
    3.8871   -1.5338    2.5560 C   0  0  2  0  0  0  0  0  0  0  0  0
    4.7970   -1.4547    1.3858 C   0  0  2  0  0  0  0  0  0  0  0  0
    4.2128   -1.1449    0.1407 O   0  0  0  0  0  0  0  0  0  0  0  0
    4.9530   -1.5266   -1.0251 C   0  0  1  0  0  0  0  0  0  0  0  0
    6.0281   -2.6450   -0.7764 C   0  0  0  0  0  0  0  0  0  0  0  0
    5.3328   -4.0042   -1.0043 C   0  0  2  0  0  0  0  0  0  0  0  0
    5.2217   -4.1332   -2.5521 C   0  0  0  0  0  0  0  0  0  0  0  0
    4.4584   -2.9187   -3.1130 C   0  0  0  0  0  0  0  0  0  0  0  0
    4.2743   -2.7145   -4.3020 O   0  0  0  0  0  0  0  0  0  0  0  0
    3.8442   -2.0452   -2.0099 C   0  0  2  0  0  0  0  0  0  0  0  0
    3.0201   -0.9312   -2.6738 C   0  0  0  0  0  0  0  0  0  0  0  0
    2.9798   -3.0435   -1.1953 C   0  0  0  0  0  0  0  0  0  0  0  0
    3.8870   -4.0295   -0.4039 C   0  0  2  0  0  0  0  0  0  0  0  0
    3.7290   -3.9205    1.1539 C   0  0  1  0  0  0  0  0  0  0  0  0
    2.3417   -4.1180    1.5363 O   0  0  0  0  0  0  0  0  0  0  0  0
    3.1853   -5.1796    1.8726 C   0  0  1  0  0  0  0  0  0  0  0  0
    2.8384   -6.4976    1.2263 C   0  0  0  0  0  0  0  0  0  0  0  0
    3.4233   -5.2993    3.2564 O   0  0  0  0  0  0  0  0  0  0  0  0
    4.5291   -2.8528    1.9707 C   0  0  2  0  0  0  0  0  0  0  0  0
    5.7517   -3.3595    2.7243 C   0  0  0  0  0  0  0  0  0  0  0  0
    6.1614   -4.6918    2.4939 O   0  0  0  0  0  0  0  0  0  0  0  0
    1.8016   -1.0464    3.9360 C   0  0  1  0  0  0  0  0  0  0  0  0
    1.3038   -2.4576    4.2858 C   0  0  0  0  0  0  0  0  0  0  0  0
    2.3988   -0.2263    5.0935 C   0  0  0  0  0  0  0  0  0  0  0  0
    1.6438    0.9042    4.4161 C   0  0  2  0  0  0  0  0  0  0  0  0
    0.7183   -0.0836    3.9075 O   0  0  0  0  0  0  0  0  0  0  0  0
    0.5993    2.5935    2.3289 H   0  0  0  0  0  0  0  0  0  0  0  0
    2.1470    3.2893    1.8876 H   0  0  0  0  0  0  0  0  0  0  0  0
    1.4888    3.5884    3.4896 H   0  0  0  0  0  0  0  0  0  0  0  0
    3.3464    1.8813    3.5093 H   0  0  0  0  0  0  0  0  0  0  0  0
    1.6433    0.7343    1.3559 H   0  0  0  0  0  0  0  0  0  0  0  0
    3.3687    0.8306    1.4765 H   0  0  0  0  0  0  0  0  0  0  0  0
    1.6260   -1.2059    0.7899 H   0  0  0  0  0  0  0  0  0  0  0  0
    4.3821   -1.2016    3.4673 H   0  0  0  0  0  0  0  0  0  0  0  0
    5.7256   -0.9323    1.5581 H   0  0  0  0  0  0  0  0  0  0  0  0
    5.4513   -0.6367   -1.4010 H   0  0  0  0  0  0  0  0  0  0  0  0
    6.8399   -2.5510   -1.5070 H   0  0  0  0  0  0  0  0  0  0  0  0
    6.5503   -2.6101    0.1809 H   0  0  0  0  0  0  0  0  0  0  0  0
    5.9267   -4.8243   -0.5845 H   0  0  0  0  0  0  0  0  0  0  0  0
    6.2001   -4.1942   -3.0198 H   0  0  0  0  0  0  0  0  0  0  0  0
    4.6731   -5.0301   -2.8237 H   0  0  0  0  0  0  0  0  0  0  0  0
    2.4463   -0.3695   -1.9509 H   0  0  0  0  0  0  0  0  0  0  0  0
    2.2916   -1.3612   -3.3537 H   0  0  0  0  0  0  0  0  0  0  0  0
    3.6551   -0.2173   -3.1998 H   0  0  0  0  0  0  0  0  0  0  0  0
    2.2872   -2.5328   -0.5273 H   0  0  0  0  0  0  0  0  0  0  0  0
    2.3421   -3.6208   -1.8682 H   0  0  0  0  0  0  0  0  0  0  0  0
    3.5288   -5.0132   -0.6867 H   0  0  0  0  0  0  0  0  0  0  0  0
    2.3442   -7.1649    1.9227 H   0  0  0  0  0  0  0  0  0  0  0  0
    3.7430   -6.9712    0.8539 H   0  0  0  0  0  0  0  0  0  0  0  0
    2.1713   -6.3191    0.3828 H   0  0  0  0  0  0  0  0  0  0  0  0
    2.6979   -5.7555    3.6371 H   0  0  0  0  0  0  0  0  0  0  0  0
    6.5930   -2.7304    2.4301 H   0  0  0  0  0  0  0  0  0  0  0  0
    5.5877   -3.2121    3.7959 H   0  0  0  0  0  0  0  0  0  0  0  0
    6.0813   -4.9222    1.5875 H   0  0  0  0  0  0  0  0  0  0  0  0
    2.1197   -3.1786    4.2597 H   0  0  0  0  0  0  0  0  0  0  0  0
    0.5387   -2.8222    3.6098 H   0  0  0  0  0  0  0  0  0  0  0  0
    0.8856   -2.5162    5.2890 H   0  0  0  0  0  0  0  0  0  0  0  0
    1.9894   -0.4583    6.0647 H   0  0  0  0  0  0  0  0  0  0  0  0
    3.4852   -0.1228    5.1613 H   0  0  0  0  0  0  0  0  0  0  0  0
    1.1678    1.5834    5.1305 H   0  0  0  0  0  0  0  0  0  0  0  0
  1  2  1  0
  1 32  1  0
  1 33  1  0
  1 34  1  0
  2 30  1  0
  2  3  1  0
  2 35  1  1
  3  4  1  0
  3 36  1  0
  3 37  1  0
  4  5  1  6
  4  6  1  0
  4 27  1  0
  5 38  1  0
  6 24  1  0
  6  7  1  0
  6 39  1  1
  7 24  1  0
  7  8  1  0
  7 40  1  1
  8  9  1  0
  9 15  1  0
  9 10  1  0
  9 41  1  6
 10 11  1  0
 10 42  1  0
 10 43  1  0
 11 18  1  0
 11 12  1  0
 11 44  1  1
 12 13  1  0
 12 45  1  0
 12 46  1  0
 13 14  2  0
 13 15  1  0
 15 16  1  6
 15 17  1  0
 16 47  1  0
 16 48  1  0
 16 49  1  0
 17 18  1  0
 17 50  1  0
 17 51  1  0
 18 19  1  0
 18 52  1  6
 19 21  1  0
 19 20  1  6
 19 24  1  0
 20 21  1  0
 21 22  1  0
 21 23  1  1
 22 53  1  0
 22 54  1  0
 22 55  1  0
 23 56  1  0
 24 25  1  1
 25 26  1  0
 25 57  1  0
 25 58  1  0
 26 59  1  0
 27 31  1  0
 27 28  1  1
 27 29  1  0
 28 60  1  0
 28 61  1  0
 28 62  1  0
 29 30  1  0
 29 63  1  0
 29 64  1  0
 30 31  1  0
 30 65  1  1
M  END
>  <i_m_ct_stereo_status>  (225) 
1

>  <s_m_source_file>  (225) 
/var/tmp/pbs.5076255.sched01/tmpbhhv4xqx/80i1gy0gug.sdf

>  <i_m_source_file_index>  (225) 
22

>  <i_lp_mmshare_version>  (225) 
48012

>  <i_f3d_flags>  (225) 
0

>  <s_epik_input>  (225) 
W0NIMl0xW0NASF0oTzIpW0NASF0oW0NIM10pW0NIMl1bQ0BdKFtPSF0pKFtDQEBdMTJbQ0gzXSlbQ0BIXTNbQ0BdNChbQ0gyXVtPSF0pW0NASF0zT1tDQEhdKFtDQF0oW0NIM10pKFtDSDJdNSlDKD1PKVtDSDJdNilbQ0gyXVtDQEhdNltDQEhdNVtDQF00N09bQ0BdNyhbQ0gzXSlbT0hd

>  <s_epik_cmdline>  (225) 
J2VwaWtfcHl0aG9uJywgJy1waHQnLCAnMi4wJywgJy1waCcsICc3LjAnLCAnLXRuJywgJzgnLCAnLW1hJywgJzIwMCcsICctaW1hZScsICc8aW5maWxlLm1hZT4nLCAnLW9tYWUnLCAnPG91dGZpbGUubWFlPic=

>  <r_lp_tautomer_probability>  (225) 
1

>  <r_epik_Ionization_Penalty>  (225) 
3.66034e-06

>  <r_epik_Ionization_Penalty_Charging>  (225) 
0

>  <r_epik_Ionization_Penalty_Neutral>  (225) 
3.66034e-06

>  <r_epik_State_Penalty>  (225) 
-0

>  <r_epik_Charging_Adjusted_Penalty>  (225) 
0

>  <i_epik_Tot_Q>  (225) 
0

>  <i_epik_Tot_abs_Q>  (225) 
0

>  <s_lp_Force_Field>  (225) 
OPLS3e

>  <r_lp_Energy>  (225) 
75.7087

>  <b_lp_Chiralities_Consistent>  (225) 
1

>  <s_lp_Variant>  (225) 
71:0-1

>  <s_i_glide_gridfile>  (225) 
pfpi4k_grid

>  <i_i_glide_lignum>  (225) 
22

>  <i_i_glide_rotatable_bonds>  (225) 
5

>  <r_i_docking_score>  (225) 
-2.34097

>  <r_i_glide_ligand_efficiency>  (225) 
-0.0755152

>  <r_i_glide_ligand_efficiency_sa>  (225) 
-0.237222

>  <r_i_glide_ligand_efficiency_ln>  (225) 
-0.527961

>  <r_i_glide_gscore>  (225) 
-2.34097

>  <r_i_glide_lipo>  (225) 
-0.137546

>  <r_i_glide_hbond>  (225) 
-0.265887

>  <r_i_glide_metal>  (225) 
-0

>  <r_i_glide_rewards>  (225) 
-0.610757

>  <r_i_glide_evdw>  (225) 
-18.0251

>  <r_i_glide_ecoul>  (225) 
-4.24331

>  <r_i_glide_erotb>  (225) 
0.210969

>  <r_i_glide_esite>  (225) 
0

>  <r_i_glide_emodel>  (225) 
-19.522

>  <r_i_glide_energy>  (225) 
-22.2684

>  <r_i_glide_einternal>  (225) 
8.81278

>  <r_i_glide_intrahb_reward>  (225) 
-0

>  <i_i_glide_confnum>  (225) 
1

>  <i_i_glide_posenum>  (225) 
5

>  <r_i_glide_eff_state_penalty>  (225) 
0

>  <ligand_id>  (225) 
71

>  <original_smiles>  (225) 
CC1CC(O)(C2C3OC4CC5CC(=O)C4(C)CC5C4(OC4(C)O)C32CO)C2(C)CC1O2

>  <smiles>  (225) 
[H]OC([H])([H])C12C([H])(OC3([H])C([H])([H])C4([H])C([H])([H])C(=O)C3(C([H])([H])[H])C([H])([H])C4([H])C13OC3(O[H])C([H])([H])[H])C2([H])C1(O[H])C([H])([H])C([H])(C([H])([H])[H])C2([H])OC1(C([H])([H])[H])C2([H])[H]

$$$$
72:0:0
     RDKit          3D

 64 69  0  0  1  0  0  0  0  0999 V2000
    0.5569   -4.4090    5.8070 C   0  0  0  0  0  0  0  0  0  0  0  0
    0.6091   -5.2539    4.5057 C   0  0  2  0  0  0  0  0  0  0  0  0
   -0.0173   -6.6223    4.8236 C   0  0  0  0  0  0  0  0  0  0  0  0
   -0.4551   -7.3203    3.5503 C   0  0  0  0  0  0  0  0  0  0  0  0
    0.6608   -7.3929    2.5142 C   0  0  2  0  0  0  0  0  0  0  0  0
   -0.0199   -7.4559    1.2789 O   0  0  0  0  0  0  0  0  0  0  0  0
    1.3698   -8.6093    2.7833 O   0  0  0  0  0  0  0  0  0  0  0  0
    2.5551   -7.8785    3.1036 C   0  0  0  0  0  0  0  0  0  0  0  0
    1.9771   -6.5143    2.6163 C   0  0  1  0  0  0  0  0  0  0  0  0
    2.5582   -6.1346    1.1771 C   0  0  1  0  0  0  0  0  0  0  0  0
    1.6132   -5.4652    0.3621 O   0  0  0  0  0  0  0  0  0  0  0  0
    3.8910   -5.3897    1.1000 C   0  0  0  0  0  0  0  0  0  0  0  0
    4.8485   -5.6954    1.9949 C   0  0  0  0  0  0  0  0  0  0  0  0
    5.9908   -4.8060    2.4251 C   0  0  0  0  0  0  0  0  0  0  0  0
    5.8897   -3.3827    1.8367 C   0  0  2  0  0  0  0  0  0  0  0  0
    4.4327   -2.7468    2.0138 C   0  0  2  0  0  0  0  0  0  0  0  0
    3.6152   -3.0922    3.3055 C   0  0  0  0  0  0  0  0  0  0  0  0
    2.2282   -3.8484    3.1708 C   0  0  0  0  0  0  0  0  0  0  0  0
    1.9943   -5.3200    3.7378 C   0  0  1  0  0  0  0  0  0  0  0  0
    3.0371   -5.5898    4.8664 C   0  0  0  0  0  0  0  0  0  0  0  0
    3.6342   -3.0185    0.7603 C   0  0  0  0  0  0  0  0  0  0  0  0
    3.9935   -4.2010    0.2312 C   0  0  0  0  0  0  0  0  0  0  0  0
    5.2427   -3.9831   -0.6239 C   0  0  1  0  0  0  0  0  0  0  0  0
    4.8377   -3.0595   -1.7978 C   0  0  0  0  0  0  0  0  0  0  0  0
    5.2889   -3.2351   -2.9262 O   0  0  0  0  0  0  0  0  0  0  0  0
    3.9443   -1.9401   -1.4321 C   0  0  0  0  0  0  0  0  0  0  0  0
    3.4258   -1.9186   -0.1835 C   0  0  0  0  0  0  0  0  0  0  0  0
    6.3834   -3.3837    0.3236 C   0  0  0  0  0  0  0  0  0  0  0  0
    6.8271   -1.9294    0.0135 C   0  0  0  0  0  0  0  0  0  0  0  0
    7.6661   -4.2215    0.0917 C   0  0  0  0  0  0  0  0  0  0  0  0
    1.0571   -4.9150    6.6331 H   0  0  0  0  0  0  0  0  0  0  0  0
   -0.4776   -4.2560    6.1146 H   0  0  0  0  0  0  0  0  0  0  0  0
    0.9988   -3.4206    5.7115 H   0  0  0  0  0  0  0  0  0  0  0  0
   -0.0798   -4.7614    3.8273 H   0  0  0  0  0  0  0  0  0  0  0  0
    0.6752   -7.2605    5.3740 H   0  0  0  0  0  0  0  0  0  0  0  0
   -0.8970   -6.4999    5.4577 H   0  0  0  0  0  0  0  0  0  0  0  0
   -0.8556   -8.3140    3.7713 H   0  0  0  0  0  0  0  0  0  0  0  0
   -1.2930   -6.7469    3.1481 H   0  0  0  0  0  0  0  0  0  0  0  0
    0.1401   -8.3304    0.9367 H   0  0  0  0  0  0  0  0  0  0  0  0
    2.7696   -7.9890    4.1630 H   0  0  0  0  0  0  0  0  0  0  0  0
    3.4042   -8.2485    2.5295 H   0  0  0  0  0  0  0  0  0  0  0  0
    2.7612   -7.0576    0.6367 H   0  0  0  0  0  0  0  0  0  0  0  0
    2.0116   -5.3143   -0.4874 H   0  0  0  0  0  0  0  0  0  0  0  0
    4.7476   -6.5612    2.6207 H   0  0  0  0  0  0  0  0  0  0  0  0
    5.9374   -4.7291    3.5104 H   0  0  0  0  0  0  0  0  0  0  0  0
    6.9472   -5.3016    2.2617 H   0  0  0  0  0  0  0  0  0  0  0  0
    6.5837   -2.7690    2.4127 H   0  0  0  0  0  0  0  0  0  0  0  0
    4.5923   -1.6696    2.0349 H   0  0  0  0  0  0  0  0  0  0  0  0
    4.2582   -3.5053    4.0745 H   0  0  0  0  0  0  0  0  0  0  0  0
    3.3670   -2.1200    3.7351 H   0  0  0  0  0  0  0  0  0  0  0  0
    1.5606   -3.1780    3.7019 H   0  0  0  0  0  0  0  0  0  0  0  0
    1.7859   -3.7486    2.1872 H   0  0  0  0  0  0  0  0  0  0  0  0
    4.0293   -5.8385    4.5016 H   0  0  0  0  0  0  0  0  0  0  0  0
    2.7343   -6.3988    5.5304 H   0  0  0  0  0  0  0  0  0  0  0  0
    3.1541   -4.7296    5.5269 H   0  0  0  0  0  0  0  0  0  0  0  0
    5.5438   -4.9435   -1.0464 H   0  0  0  0  0  0  0  0  0  0  0  0
    3.7380   -1.1651   -2.1537 H   0  0  0  0  0  0  0  0  0  0  0  0
    2.7737   -1.1054    0.0999 H   0  0  0  0  0  0  0  0  0  0  0  0
    7.1672   -1.8439   -1.0170 H   0  0  0  0  0  0  0  0  0  0  0  0
    7.6599   -1.6216    0.6496 H   0  0  0  0  0  0  0  0  0  0  0  0
    6.0383   -1.1971    0.1808 H   0  0  0  0  0  0  0  0  0  0  0  0
    8.0905   -4.0371   -0.8982 H   0  0  0  0  0  0  0  0  0  0  0  0
    7.4575   -5.2914    0.1411 H   0  0  0  0  0  0  0  0  0  0  0  0
    8.4443   -3.9988    0.8243 H   0  0  0  0  0  0  0  0  0  0  0  0
  1  2  1  0
  1 31  1  0
  1 32  1  0
  1 33  1  0
  2 19  1  0
  2  3  1  0
  2 34  1  6
  3  4  1  0
  3 35  1  0
  3 36  1  0
  4  5  1  0
  4 37  1  0
  4 38  1  0
  5  9  1  0
  5  6  1  6
  5  7  1  0
  6 39  1  0
  7  8  1  0
  9  8  1  1
  8 40  1  0
  8 41  1  0
  9 19  1  0
  9 10  1  0
 10 11  1  0
 10 12  1  0
 10 42  1  6
 11 43  1  0
 12 22  1  0
 12 13  2  0
 13 14  1  0
 13 44  1  0
 14 15  1  0
 14 45  1  0
 14 46  1  0
 15 28  1  0
 15 16  1  0
 15 47  1  1
 16 17  1  0
 16 21  1  0
 16 48  1  1
 17 18  1  0
 17 49  1  0
 17 50  1  0
 18 19  1  0
 18 51  1  0
 18 52  1  0
 19 20  1  1
 20 53  1  0
 20 54  1  0
 20 55  1  0
 21 27  1  0
 21 22  2  0
 22 23  1  0
 23 24  1  0
 23 28  1  0
 23 56  1  6
 24 25  2  0
 24 26  1  0
 26 27  2  0
 26 57  1  0
 27 58  1  0
 28 29  1  0
 28 30  1  0
 29 59  1  0
 29 60  1  0
 29 61  1  0
 30 62  1  0
 30 63  1  0
 30 64  1  0
M  END
>  <i_m_ct_stereo_status>  (226) 
1

>  <s_m_source_file>  (226) 
/var/tmp/pbs.5076255.sched01/tmpbhhv4xqx/80i1gy0gug.sdf

>  <i_m_source_file_index>  (226) 
23

>  <i_lp_mmshare_version>  (226) 
48012

>  <i_f3d_flags>  (226) 
0

>  <s_epik_input>  (226) 
W0NIMl0xT1tDQEBdKFtDQEBdMTIzKShbT0hdKVtDSDJdW0NIMl1bQ0BASF0oW0NIM10pW0NAXTMoW0NIM10pW0NIMl1bQ0gyXVtDQEhdNFtDQEhdNVtDSDJdW0NIXT1DKFtDQEBIXTJbT0hdKUM2PUM0W0NIXT1bQ0hdQyg9TylbQ0BIXTZDNShbQ0gzXSlbQ0gzXQ==

>  <s_epik_cmdline>  (226) 
J2VwaWtfcHl0aG9uJywgJy1waHQnLCAnMi4wJywgJy1waCcsICc3LjAnLCAnLXRuJywgJzgnLCAnLW1hJywgJzIwMCcsICctaW1hZScsICc8aW5maWxlLm1hZT4nLCAnLW9tYWUnLCAnPG91dGZpbGUubWFlPic=

>  <r_lp_tautomer_probability>  (226) 
1

>  <r_epik_Ionization_Penalty>  (226) 
7.65542e-06

>  <r_epik_Ionization_Penalty_Charging>  (226) 
0

>  <r_epik_Ionization_Penalty_Neutral>  (226) 
7.65542e-06

>  <r_epik_State_Penalty>  (226) 
-0

>  <r_epik_Charging_Adjusted_Penalty>  (226) 
0

>  <i_epik_Tot_Q>  (226) 
0

>  <i_epik_Tot_abs_Q>  (226) 
0

>  <s_lp_Force_Field>  (226) 
OPLS3e

>  <r_lp_Energy>  (226) 
168.887

>  <b_lp_Chiralities_Consistent>  (226) 
1

>  <s_lp_Variant>  (226) 
72:0-1

>  <s_i_glide_gridfile>  (226) 
pfpi4k_grid

>  <i_i_glide_lignum>  (226) 
23

>  <i_i_glide_rotatable_bonds>  (226) 
2

>  <r_i_docking_score>  (226) 
-3.79137

>  <r_i_glide_ligand_efficiency>  (226) 
-0.126379

>  <r_i_glide_ligand_efficiency_sa>  (226) 
-0.392689

>  <r_i_glide_ligand_efficiency_ln>  (226) 
-0.861441

>  <r_i_glide_gscore>  (226) 
-3.79137

>  <r_i_glide_lipo>  (226) 
-0.419415

>  <r_i_glide_hbond>  (226) 
0

>  <r_i_glide_metal>  (226) 
-0

>  <r_i_glide_rewards>  (226) 
-0.654913

>  <r_i_glide_evdw>  (226) 
-28.9865

>  <r_i_glide_ecoul>  (226) 
-8.16977

>  <r_i_glide_erotb>  (226) 
0

>  <r_i_glide_esite>  (226) 
-0.0422505

>  <r_i_glide_emodel>  (226) 
-45.1093

>  <r_i_glide_energy>  (226) 
-37.1563

>  <r_i_glide_einternal>  (226) 
1.46978

>  <r_i_glide_intrahb_reward>  (226) 
-0

>  <i_i_glide_confnum>  (226) 
2

>  <i_i_glide_posenum>  (226) 
18

>  <r_i_glide_eff_state_penalty>  (226) 
0

>  <ligand_id>  (226) 
72

>  <original_smiles>  (226) 
CC1CCC2(O)OCC23C(O)C2=CCC4C(CCC13C)C1=C2C(C(=O)C=C1)C4(C)C

>  <smiles>  (226) 
[H]OC1([H])C2=C([H])C([H])([H])C3([H])C([H])(C4=C2C([H])(C(=O)C([H])=C4[H])C3(C([H])([H])[H])C([H])([H])[H])C([H])([H])C([H])([H])C2(C([H])([H])[H])C([H])(C([H])([H])[H])C([H])([H])C([H])([H])C3(O[H])OC([H])([H])C132

$$$$
72:0:1
     RDKit          3D

 64 69  0  0  1  0  0  0  0  0999 V2000
    7.9044   -3.8422   -0.3153 C   0  0  0  0  0  0  0  0  0  0  0  0
    6.4155   -3.5274   -0.6466 C   0  0  2  0  0  0  0  0  0  0  0  0
    6.3937   -2.2647   -1.5129 C   0  0  0  0  0  0  0  0  0  0  0  0
    5.0805   -2.1678   -2.2742 C   0  0  0  0  0  0  0  0  0  0  0  0
    3.8812   -2.2760   -1.3449 C   0  0  2  0  0  0  0  0  0  0  0  0
    2.7997   -2.7057   -2.1450 O   0  0  0  0  0  0  0  0  0  0  0  0
    3.6972   -0.9349   -0.9083 O   0  0  0  0  0  0  0  0  0  0  0  0
    3.9077   -1.3022    0.4531 C   0  0  0  0  0  0  0  0  0  0  0  0
    3.9940   -2.8205    0.1379 C   0  0  1  0  0  0  0  0  0  0  0  0
    2.6630   -3.5751    0.5745 C   0  0  1  0  0  0  0  0  0  0  0  0
    2.3515   -4.6419   -0.3171 O   0  0  0  0  0  0  0  0  0  0  0  0
    2.5570   -4.0720    2.0173 C   0  0  0  0  0  0  0  0  0  0  0  0
    3.0853   -3.3195    3.0024 C   0  0  0  0  0  0  0  0  0  0  0  0
    3.5262   -3.8057    4.3653 C   0  0  0  0  0  0  0  0  0  0  0  0
    3.4541   -5.3435    4.5053 C   0  0  2  0  0  0  0  0  0  0  0  0
    4.1173   -6.1050    3.2559 C   0  0  2  0  0  0  0  0  0  0  0  0
    5.3695   -5.4619    2.5640 C   0  0  0  0  0  0  0  0  0  0  0  0
    5.2944   -5.0389    1.0362 C   0  0  0  0  0  0  0  0  0  0  0  0
    5.4006   -3.5213    0.5677 C   0  0  1  0  0  0  0  0  0  0  0  0
    6.1361   -2.7046    1.6680 C   0  0  0  0  0  0  0  0  0  0  0  0
    3.0400   -6.4243    2.2426 C   0  0  0  0  0  0  0  0  0  0  0  0
    2.1071   -5.4589    2.2575 C   0  0  0  0  0  0  0  0  0  0  0  0
    1.1253   -5.7552    3.3909 C   0  0  1  0  0  0  0  0  0  0  0  0
    0.4047   -7.0714    3.0325 C   0  0  0  0  0  0  0  0  0  0  0  0
   -0.8042   -7.1798    3.2185 O   0  0  0  0  0  0  0  0  0  0  0  0
    1.2781   -8.1305    2.4772 C   0  0  0  0  0  0  0  0  0  0  0  0
    2.5468   -7.8057    2.1487 C   0  0  0  0  0  0  0  0  0  0  0  0
    1.9452   -5.7954    4.7601 C   0  0  0  0  0  0  0  0  0  0  0  0
    2.0188   -7.1789    5.4680 C   0  0  0  0  0  0  0  0  0  0  0  0
    1.1869   -4.8897    5.7652 C   0  0  0  0  0  0  0  0  0  0  0  0
    8.4022   -3.0063    0.1784 H   0  0  0  0  0  0  0  0  0  0  0  0
    8.4652   -4.0264   -1.2290 H   0  0  0  0  0  0  0  0  0  0  0  0
    8.0364   -4.7216    0.3140 H   0  0  0  0  0  0  0  0  0  0  0  0
    6.0626   -4.3120   -1.3092 H   0  0  0  0  0  0  0  0  0  0  0  0
    6.5458   -1.3765   -0.8987 H   0  0  0  0  0  0  0  0  0  0  0  0
    7.2052   -2.2923   -2.2426 H   0  0  0  0  0  0  0  0  0  0  0  0
    5.0330   -1.2287   -2.8356 H   0  0  0  0  0  0  0  0  0  0  0  0
    5.0594   -2.9710   -3.0149 H   0  0  0  0  0  0  0  0  0  0  0  0
    2.0470   -2.1833   -1.8780 H   0  0  0  0  0  0  0  0  0  0  0  0
    4.7972   -0.7905    0.8108 H   0  0  0  0  0  0  0  0  0  0  0  0
    3.0587   -1.0127    1.0713 H   0  0  0  0  0  0  0  0  0  0  0  0
    1.8341   -2.8739    0.4684 H   0  0  0  0  0  0  0  0  0  0  0  0
    2.5971   -4.3788   -1.1974 H   0  0  0  0  0  0  0  0  0  0  0  0
    3.4081   -2.3159    2.7949 H   0  0  0  0  0  0  0  0  0  0  0  0
    4.5671   -3.5030    4.4806 H   0  0  0  0  0  0  0  0  0  0  0  0
    3.0147   -3.2485    5.1506 H   0  0  0  0  0  0  0  0  0  0  0  0
    4.0398   -5.5786    5.3970 H   0  0  0  0  0  0  0  0  0  0  0  0
    4.4436   -7.0655    3.6483 H   0  0  0  0  0  0  0  0  0  0  0  0
    5.8172   -4.7051    3.1992 H   0  0  0  0  0  0  0  0  0  0  0  0
    6.1253   -6.2467    2.5990 H   0  0  0  0  0  0  0  0  0  0  0  0
    6.1400   -5.5726    0.6149 H   0  0  0  0  0  0  0  0  0  0  0  0
    4.5140   -5.5509    0.4876 H   0  0  0  0  0  0  0  0  0  0  0  0
    5.5130   -2.4414    2.5185 H   0  0  0  0  0  0  0  0  0  0  0  0
    6.5651   -1.7756    1.2916 H   0  0  0  0  0  0  0  0  0  0  0  0
    6.9868   -3.2617    2.0535 H   0  0  0  0  0  0  0  0  0  0  0  0
    0.3719   -4.9674    3.4200 H   0  0  0  0  0  0  0  0  0  0  0  0
    0.8883   -9.1312    2.3542 H   0  0  0  0  0  0  0  0  0  0  0  0
    3.2026   -8.5624    1.7381 H   0  0  0  0  0  0  0  0  0  0  0  0
    1.0328   -7.5968    5.6823 H   0  0  0  0  0  0  0  0  0  0  0  0
    2.5369   -7.0987    6.4258 H   0  0  0  0  0  0  0  0  0  0  0  0
    2.5733   -7.9157    4.8876 H   0  0  0  0  0  0  0  0  0  0  0  0
    0.2329   -5.3342    6.0601 H   0  0  0  0  0  0  0  0  0  0  0  0
    0.9469   -3.9168    5.3315 H   0  0  0  0  0  0  0  0  0  0  0  0
    1.7689   -4.7182    6.6731 H   0  0  0  0  0  0  0  0  0  0  0  0
  1  2  1  0
  1 31  1  0
  1 32  1  0
  1 33  1  0
  2 19  1  0
  2  3  1  0
  2 34  1  6
  3  4  1  0
  3 35  1  0
  3 36  1  0
  4  5  1  0
  4 37  1  0
  4 38  1  0
  5  9  1  0
  5  6  1  6
  5  7  1  0
  6 39  1  0
  7  8  1  0
  9  8  1  1
  8 40  1  0
  8 41  1  0
  9 19  1  0
  9 10  1  0
 10 11  1  0
 10 12  1  0
 10 42  1  1
 11 43  1  0
 12 22  1  0
 12 13  2  0
 13 14  1  0
 13 44  1  0
 14 15  1  0
 14 45  1  0
 14 46  1  0
 15 28  1  0
 15 16  1  0
 15 47  1  1
 16 17  1  0
 16 21  1  0
 16 48  1  1
 17 18  1  0
 17 49  1  0
 17 50  1  0
 18 19  1  0
 18 51  1  0
 18 52  1  0
 19 20  1  1
 20 53  1  0
 20 54  1  0
 20 55  1  0
 21 27  1  0
 21 22  2  0
 22 23  1  0
 23 24  1  0
 23 28  1  0
 23 56  1  1
 24 25  2  0
 24 26  1  0
 26 27  2  0
 26 57  1  0
 27 58  1  0
 28 29  1  0
 28 30  1  0
 29 59  1  0
 29 60  1  0
 29 61  1  0
 30 62  1  0
 30 63  1  0
 30 64  1  0
M  END
>  <i_m_ct_stereo_status>  (227) 
1

>  <s_m_source_file>  (227) 
/var/tmp/pbs.5076255.sched01/tmpbhhv4xqx/80i1gy0gug.sdf

>  <i_m_source_file_index>  (227) 
23

>  <i_lp_mmshare_version>  (227) 
48012

>  <i_f3d_flags>  (227) 
0

>  <s_epik_input>  (227) 
W0NIMl0xT1tDQEBdKFtDQEBdMTIzKShbT0hdKVtDSDJdW0NIMl1bQ0BASF0oW0NIM10pW0NAXTMoW0NIM10pW0NIMl1bQ0gyXVtDQEhdNFtDQEhdNVtDSDJdW0NIXT1DKFtDQEBIXTJbT0hdKUM2PUM0W0NIXT1bQ0hdQyg9TylbQ0BIXTZDNShbQ0gzXSlbQ0gzXQ==

>  <s_epik_cmdline>  (227) 
J2VwaWtfcHl0aG9uJywgJy1waHQnLCAnMi4wJywgJy1waCcsICc3LjAnLCAnLXRuJywgJzgnLCAnLW1hJywgJzIwMCcsICctaW1hZScsICc8aW5maWxlLm1hZT4nLCAnLW9tYWUnLCAnPG91dGZpbGUubWFlPic=

>  <r_lp_tautomer_probability>  (227) 
1

>  <r_epik_Ionization_Penalty>  (227) 
7.65542e-06

>  <r_epik_Ionization_Penalty_Charging>  (227) 
0

>  <r_epik_Ionization_Penalty_Neutral>  (227) 
7.65542e-06

>  <r_epik_State_Penalty>  (227) 
-0

>  <r_epik_Charging_Adjusted_Penalty>  (227) 
0

>  <i_epik_Tot_Q>  (227) 
0

>  <i_epik_Tot_abs_Q>  (227) 
0

>  <s_lp_Force_Field>  (227) 
OPLS3e

>  <r_lp_Energy>  (227) 
168.887

>  <b_lp_Chiralities_Consistent>  (227) 
1

>  <s_lp_Variant>  (227) 
72:0-1

>  <s_i_glide_gridfile>  (227) 
pfpi4k_grid

>  <i_i_glide_lignum>  (227) 
23

>  <i_i_glide_rotatable_bonds>  (227) 
2

>  <r_i_docking_score>  (227) 
-3.76289

>  <r_i_glide_ligand_efficiency>  (227) 
-0.12543

>  <r_i_glide_ligand_efficiency_sa>  (227) 
-0.389739

>  <r_i_glide_ligand_efficiency_ln>  (227) 
-0.85497

>  <r_i_glide_gscore>  (227) 
-3.76289

>  <r_i_glide_lipo>  (227) 
-0.488143

>  <r_i_glide_hbond>  (227) 
-0.0732718

>  <r_i_glide_metal>  (227) 
-0

>  <r_i_glide_rewards>  (227) 
-1.10992

>  <r_i_glide_evdw>  (227) 
-27.6355

>  <r_i_glide_ecoul>  (227) 
-4.15951

>  <r_i_glide_erotb>  (227) 
0

>  <r_i_glide_esite>  (227) 
-0.0858591

>  <r_i_glide_emodel>  (227) 
-44.7736

>  <r_i_glide_energy>  (227) 
-31.795

>  <r_i_glide_einternal>  (227) 
1.12278

>  <r_i_glide_intrahb_reward>  (227) 
-0.5

>  <i_i_glide_confnum>  (227) 
2

>  <i_i_glide_posenum>  (227) 
19

>  <r_i_glide_eff_state_penalty>  (227) 
0

>  <ligand_id>  (227) 
72

>  <original_smiles>  (227) 
CC1CCC2(O)OCC23C(O)C2=CCC4C(CCC13C)C1=C2C(C(=O)C=C1)C4(C)C

>  <smiles>  (227) 
[H]OC1([H])C2=C([H])C([H])([H])C3([H])C([H])(C4=C2C([H])(C(=O)C([H])=C4[H])C3(C([H])([H])[H])C([H])([H])[H])C([H])([H])C([H])([H])C2(C([H])([H])[H])C([H])(C([H])([H])[H])C([H])([H])C([H])([H])C3(O[H])OC([H])([H])C132

$$$$
72:0:2
     RDKit          3D

 64 69  0  0  1  0  0  0  0  0999 V2000
    7.9725   -3.5906   -0.2980 C   0  0  0  0  0  0  0  0  0  0  0  0
    6.4714   -3.4946   -0.6969 C   0  0  2  0  0  0  0  0  0  0  0  0
    6.3808   -2.6217   -1.9469 C   0  0  0  0  0  0  0  0  0  0  0  0
    5.0803   -2.8484   -2.6901 C   0  0  0  0  0  0  0  0  0  0  0  0
    3.8698   -2.7029   -1.7900 C   0  0  2  0  0  0  0  0  0  0  0  0
    2.8160   -3.4260   -2.3944 O   0  0  0  0  0  0  0  0  0  0  0  0
    3.6173   -1.2910   -1.8242 O   0  0  0  0  0  0  0  0  0  0  0  0
    3.8173   -1.1996   -0.4112 C   0  0  0  0  0  0  0  0  0  0  0  0
    3.9934   -2.7267   -0.2017 C   0  0  1  0  0  0  0  0  0  0  0  0
    2.7119   -3.3925    0.4792 C   0  0  1  0  0  0  0  0  0  0  0  0
    2.5120   -4.7283    0.0368 O   0  0  0  0  0  0  0  0  0  0  0  0
    2.6091   -3.3909    2.0027 C   0  0  0  0  0  0  0  0  0  0  0  0
    3.0659   -2.3128    2.6749 C   0  0  0  0  0  0  0  0  0  0  0  0
    3.5005   -2.2752    4.1142 C   0  0  0  0  0  0  0  0  0  0  0  0
    3.5289   -3.6752    4.7618 C   0  0  2  0  0  0  0  0  0  0  0  0
    4.2658   -4.7602    3.8427 C   0  0  2  0  0  0  0  0  0  0  0  0
    5.4732   -4.3071    2.9654 C   0  0  0  0  0  0  0  0  0  0  0  0
    5.4114   -4.4254    1.3899 C   0  0  0  0  0  0  0  0  0  0  0  0
    5.4299   -3.1478    0.4353 C   0  0  1  0  0  0  0  0  0  0  0  0
    6.0934   -1.9607    1.1927 C   0  0  0  0  0  0  0  0  0  0  0  0
    3.2416   -5.4842    3.0072 C   0  0  0  0  0  0  0  0  0  0  0  0
    2.2437   -4.6377    2.6961 C   0  0  0  0  0  0  0  0  0  0  0  0
    1.2606   -4.6122    3.8713 C   0  0  1  0  0  0  0  0  0  0  0  0
    0.6763   -6.0391    3.9866 C   0  0  0  0  0  0  0  0  0  0  0  0
   -0.5159   -6.2126    4.2339 O   0  0  0  0  0  0  0  0  0  0  0  0
    1.6204   -7.1496    3.8109 C   0  0  0  0  0  0  0  0  0  0  0  0
    2.8667   -6.8462    3.3849 C   0  0  0  0  0  0  0  0  0  0  0  0
    2.0547   -4.1237    5.1644 C   0  0  0  0  0  0  0  0  0  0  0  0
    2.2091   -5.1753    6.2993 C   0  0  0  0  0  0  0  0  0  0  0  0
    1.2181   -2.9930    5.8110 C   0  0  0  0  0  0  0  0  0  0  0  0
    8.4084   -2.6068   -0.1248 H   0  0  0  0  0  0  0  0  0  0  0  0
    8.5566   -4.0406   -1.0990 H   0  0  0  0  0  0  0  0  0  0  0  0
    8.1536   -4.1910    0.5915 H   0  0  0  0  0  0  0  0  0  0  0  0
    6.1871   -4.4905   -1.0221 H   0  0  0  0  0  0  0  0  0  0  0  0
    6.4412   -1.5702   -1.6706 H   0  0  0  0  0  0  0  0  0  0  0  0
    7.2172   -2.8294   -2.6227 H   0  0  0  0  0  0  0  0  0  0  0  0
    5.0099   -2.1757   -3.5417 H   0  0  0  0  0  0  0  0  0  0  0  0
    5.1276   -3.8485   -3.0980 H   0  0  0  0  0  0  0  0  0  0  0  0
    3.1208   -4.3373   -2.5527 H   0  0  0  0  0  0  0  0  0  0  0  0
    4.6621   -0.5380   -0.2418 H   0  0  0  0  0  0  0  0  0  0  0  0
    2.9447   -0.7905    0.0939 H   0  0  0  0  0  0  0  0  0  0  0  0
    1.8356   -2.8485    0.1343 H   0  0  0  0  0  0  0  0  0  0  0  0
    2.5486   -4.7257   -0.9092 H   0  0  0  0  0  0  0  0  0  0  0  0
    3.3158   -1.4214    2.1436 H   0  0  0  0  0  0  0  0  0  0  0  0
    4.5140   -1.8764    4.1186 H   0  0  0  0  0  0  0  0  0  0  0  0
    2.9393   -1.5245    4.6674 H   0  0  0  0  0  0  0  0  0  0  0  0
    4.1126   -3.5595    5.6713 H   0  0  0  0  0  0  0  0  0  0  0  0
    4.6514   -5.5091    4.5287 H   0  0  0  0  0  0  0  0  0  0  0  0
    5.8134   -3.3396    3.3041 H   0  0  0  0  0  0  0  0  0  0  0  0
    6.2817   -4.9710    3.2681 H   0  0  0  0  0  0  0  0  0  0  0  0
    6.3061   -5.0005    1.1806 H   0  0  0  0  0  0  0  0  0  0  0  0
    4.6903   -5.1559    1.0466 H   0  0  0  0  0  0  0  0  0  0  0  0
    5.4438   -1.4787    1.9156 H   0  0  0  0  0  0  0  0  0  0  0  0
    6.4565   -1.1840    0.5240 H   0  0  0  0  0  0  0  0  0  0  0  0
    6.9829   -2.2843    1.7161 H   0  0  0  0  0  0  0  0  0  0  0  0
    0.4514   -3.9221    3.6333 H   0  0  0  0  0  0  0  0  0  0  0  0
    1.2930   -8.1544    4.0353 H   0  0  0  0  0  0  0  0  0  0  0  0
    3.5798   -7.6484    3.2403 H   0  0  0  0  0  0  0  0  0  0  0  0
    1.2533   -5.5691    6.6461 H   0  0  0  0  0  0  0  0  0  0  0  0
    2.7044   -4.7421    7.1651 H   0  0  0  0  0  0  0  0  0  0  0  0
    2.8251   -6.0212    5.9997 H   0  0  0  0  0  0  0  0  0  0  0  0
    0.2924   -3.3786    6.2372 H   0  0  0  0  0  0  0  0  0  0  0  0
    0.9228   -2.2473    5.0745 H   0  0  0  0  0  0  0  0  0  0  0  0
    1.7692   -2.4841    6.5993 H   0  0  0  0  0  0  0  0  0  0  0  0
  1  2  1  0
  1 31  1  0
  1 32  1  0
  1 33  1  0
  2 19  1  0
  2  3  1  0
  2 34  1  6
  3  4  1  0
  3 35  1  0
  3 36  1  0
  4  5  1  0
  4 37  1  0
  4 38  1  0
  5  9  1  0
  5  6  1  6
  5  7  1  0
  6 39  1  0
  7  8  1  0
  9  8  1  1
  8 40  1  0
  8 41  1  0
  9 19  1  0
  9 10  1  0
 10 11  1  0
 10 12  1  0
 10 42  1  6
 11 43  1  0
 12 22  1  0
 12 13  2  0
 13 14  1  0
 13 44  1  0
 14 15  1  0
 14 45  1  0
 14 46  1  0
 15 28  1  0
 15 16  1  0
 15 47  1  1
 16 17  1  0
 16 21  1  0
 16 48  1  1
 17 18  1  0
 17 49  1  0
 17 50  1  0
 18 19  1  0
 18 51  1  0
 18 52  1  0
 19 20  1  1
 20 53  1  0
 20 54  1  0
 20 55  1  0
 21 27  1  0
 21 22  2  0
 22 23  1  0
 23 24  1  0
 23 28  1  0
 23 56  1  6
 24 25  2  0
 24 26  1  0
 26 27  2  0
 26 57  1  0
 27 58  1  0
 28 29  1  0
 28 30  1  0
 29 59  1  0
 29 60  1  0
 29 61  1  0
 30 62  1  0
 30 63  1  0
 30 64  1  0
M  END
>  <i_m_ct_stereo_status>  (228) 
1

>  <s_m_source_file>  (228) 
/var/tmp/pbs.5076255.sched01/tmpbhhv4xqx/80i1gy0gug.sdf

>  <i_m_source_file_index>  (228) 
23

>  <i_lp_mmshare_version>  (228) 
48012

>  <i_f3d_flags>  (228) 
0

>  <s_epik_input>  (228) 
W0NIMl0xT1tDQEBdKFtDQEBdMTIzKShbT0hdKVtDSDJdW0NIMl1bQ0BASF0oW0NIM10pW0NAXTMoW0NIM10pW0NIMl1bQ0gyXVtDQEhdNFtDQEhdNVtDSDJdW0NIXT1DKFtDQEBIXTJbT0hdKUM2PUM0W0NIXT1bQ0hdQyg9TylbQ0BIXTZDNShbQ0gzXSlbQ0gzXQ==

>  <s_epik_cmdline>  (228) 
J2VwaWtfcHl0aG9uJywgJy1waHQnLCAnMi4wJywgJy1waCcsICc3LjAnLCAnLXRuJywgJzgnLCAnLW1hJywgJzIwMCcsICctaW1hZScsICc8aW5maWxlLm1hZT4nLCAnLW9tYWUnLCAnPG91dGZpbGUubWFlPic=

>  <r_lp_tautomer_probability>  (228) 
1

>  <r_epik_Ionization_Penalty>  (228) 
7.65542e-06

>  <r_epik_Ionization_Penalty_Charging>  (228) 
0

>  <r_epik_Ionization_Penalty_Neutral>  (228) 
7.65542e-06

>  <r_epik_State_Penalty>  (228) 
-0

>  <r_epik_Charging_Adjusted_Penalty>  (228) 
0

>  <i_epik_Tot_Q>  (228) 
0

>  <i_epik_Tot_abs_Q>  (228) 
0

>  <s_lp_Force_Field>  (228) 
OPLS3e

>  <r_lp_Energy>  (228) 
168.887

>  <b_lp_Chiralities_Consistent>  (228) 
1

>  <s_lp_Variant>  (228) 
72:0-1

>  <s_i_glide_gridfile>  (228) 
pfpi4k_grid

>  <i_i_glide_lignum>  (228) 
23

>  <i_i_glide_rotatable_bonds>  (228) 
2

>  <r_i_docking_score>  (228) 
-3.73974

>  <r_i_glide_ligand_efficiency>  (228) 
-0.124658

>  <r_i_glide_ligand_efficiency_sa>  (228) 
-0.387341

>  <r_i_glide_ligand_efficiency_ln>  (228) 
-0.849709

>  <r_i_glide_gscore>  (228) 
-3.73974

>  <r_i_glide_lipo>  (228) 
-0.731147

>  <r_i_glide_hbond>  (228) 
-0.025098

>  <r_i_glide_metal>  (228) 
-0

>  <r_i_glide_rewards>  (228) 
-0.609915

>  <r_i_glide_evdw>  (228) 
-26.8506

>  <r_i_glide_ecoul>  (228) 
-6.56218

>  <r_i_glide_erotb>  (228) 
0

>  <r_i_glide_esite>  (228) 
-0.046723

>  <r_i_glide_emodel>  (228) 
-41.139

>  <r_i_glide_energy>  (228) 
-33.4128

>  <r_i_glide_einternal>  (228) 
1.58695

>  <r_i_glide_intrahb_reward>  (228) 
-0

>  <i_i_glide_confnum>  (228) 
1

>  <i_i_glide_posenum>  (228) 
2

>  <r_i_glide_eff_state_penalty>  (228) 
0

>  <ligand_id>  (228) 
72

>  <original_smiles>  (228) 
CC1CCC2(O)OCC23C(O)C2=CCC4C(CCC13C)C1=C2C(C(=O)C=C1)C4(C)C

>  <smiles>  (228) 
[H]OC1([H])C2=C([H])C([H])([H])C3([H])C([H])(C4=C2C([H])(C(=O)C([H])=C4[H])C3(C([H])([H])[H])C([H])([H])[H])C([H])([H])C([H])([H])C2(C([H])([H])[H])C([H])(C([H])([H])[H])C([H])([H])C([H])([H])C3(O[H])OC([H])([H])C132

$$$$
76:0:0
     RDKit          3D

 48 52  0  0  1  0  0  0  0  0999 V2000
    4.2168    3.3896    5.5411 C   0  0  0  0  0  0  0  0  0  0  0  0
    2.9961    2.9269    6.3506 C   0  0  0  0  0  0  0  0  0  0  0  0
    2.7725    1.3938    6.4562 C   0  0  0  0  0  0  0  0  0  0  0  0
    2.5028    0.6285    5.1189 C   0  0  1  0  0  0  0  0  0  0  0  0
    3.8144    0.4518    4.3003 C   0  0  0  0  0  0  0  0  0  0  0  0
    3.3680    0.6054    2.8541 C   0  0  1  0  0  0  0  0  0  0  0  0
    4.2608   -0.1449    1.8446 C   0  0  0  0  0  0  0  0  0  0  0  0
    1.8788    0.2183    2.9157 C   0  0  1  0  0  0  0  0  0  0  0  0
    2.0494   -1.2071    2.9150 O   0  0  0  0  0  0  0  0  0  0  0  0
    1.1024   -2.0300    3.5320 C   0  0  0  0  0  0  0  0  0  0  0  0
    0.7513   -1.3489    4.8330 C   0  0  1  0  0  0  0  0  0  0  0  0
    2.0302   -0.7728    5.4223 O   0  0  0  0  0  0  0  0  0  0  0  0
   -0.4820   -0.3518    4.5910 C   0  0  2  0  0  0  0  0  0  0  0  0
   -0.8229    0.1584    3.2460 O   0  0  0  0  0  0  0  0  0  0  0  0
   -0.6516    1.5522    2.8375 C   0  0  1  0  0  0  0  0  0  0  0  0
   -1.8484    2.2844    3.0039 O   0  0  0  0  0  0  0  0  0  0  0  0
    0.6309    2.3109    3.5006 C   0  0  1  0  0  0  0  0  0  0  0  0
    1.4279    2.9267    2.4927 O   0  0  0  0  0  0  0  0  0  0  0  0
    0.2351    3.4316    4.4613 C   0  0  0  0  0  0  0  0  0  0  0  0
   -0.4558    3.2190    5.5956 C   0  0  0  0  0  0  0  0  0  0  0  0
   -0.7902    1.8352    5.8879 C   0  0  0  0  0  0  0  0  0  0  0  0
   -1.7290    1.4972    6.6223 O   0  0  0  0  0  0  0  0  0  0  0  0
    0.1305    0.7618    5.2699 C   0  0  2  0  0  0  0  0  0  0  0  0
    1.3094    1.0753    4.2062 C   0  0  2  0  0  0  0  0  0  0  0  0
    4.3282    4.4711    5.6044 H   0  0  0  0  0  0  0  0  0  0  0  0
    4.1127    3.0914    4.4916 H   0  0  0  0  0  0  0  0  0  0  0  0
    5.1288    2.9299    5.9268 H   0  0  0  0  0  0  0  0  0  0  0  0
    3.0527    3.3278    7.3712 H   0  0  0  0  0  0  0  0  0  0  0  0
    2.1371    3.3986    5.9067 H   0  0  0  0  0  0  0  0  0  0  0  0
    3.6318    0.9165    6.9383 H   0  0  0  0  0  0  0  0  0  0  0  0
    1.9714    1.2411    7.1792 H   0  0  0  0  0  0  0  0  0  0  0  0
    4.5953    1.1679    4.5149 H   0  0  0  0  0  0  0  0  0  0  0  0
    4.2134   -0.5596    4.4711 H   0  0  0  0  0  0  0  0  0  0  0  0
    3.4132    1.6542    2.5882 H   0  0  0  0  0  0  0  0  0  0  0  0
    4.3670   -1.1967    2.1103 H   0  0  0  0  0  0  0  0  0  0  0  0
    5.2685    0.2673    1.8408 H   0  0  0  0  0  0  0  0  0  0  0  0
    3.8720   -0.0811    0.8259 H   0  0  0  0  0  0  0  0  0  0  0  0
    1.4049    0.4474    1.9574 H   0  0  0  0  0  0  0  0  0  0  0  0
    0.2451   -2.1980    2.8870 H   0  0  0  0  0  0  0  0  0  0  0  0
    1.5673   -2.9995    3.7100 H   0  0  0  0  0  0  0  0  0  0  0  0
    0.4118   -2.1281    5.5252 H   0  0  0  0  0  0  0  0  0  0  0  0
   -1.3871   -0.7160    5.0941 H   0  0  0  0  0  0  0  0  0  0  0  0
   -0.5205    1.5054    1.7542 H   0  0  0  0  0  0  0  0  0  0  0  0
   -1.9814    2.3916    3.9331 H   0  0  0  0  0  0  0  0  0  0  0  0
    0.8610    3.4484    1.9066 H   0  0  0  0  0  0  0  0  0  0  0  0
    0.5538    4.4312    4.1990 H   0  0  0  0  0  0  0  0  0  0  0  0
   -0.6926    4.0073    6.2927 H   0  0  0  0  0  0  0  0  0  0  0  0
    0.4393    0.3653    6.2401 H   0  0  0  0  0  0  0  0  0  0  0  0
  1  2  1  0
  1 25  1  0
  1 26  1  0
  1 27  1  0
  2  3  1  0
  2 28  1  0
  2 29  1  0
  4  3  1  1
  3 30  1  0
  3 31  1  0
  4 12  1  0
 24  4  1  1
  4  5  1  0
  5  6  1  0
  5 32  1  0
  5 33  1  0
  6  7  1  0
  6  8  1  0
  6 34  1  6
  7 35  1  0
  7 36  1  0
  7 37  1  0
  8 24  1  0
  8  9  1  0
  8 38  1  6
  9 10  1  0
 10 11  1  0
 10 39  1  0
 10 40  1  0
 11 12  1  0
 11 13  1  0
 11 41  1  1
 13 23  1  0
 13 14  1  0
 13 42  1  1
 14 15  1  0
 15 16  1  0
 15 17  1  0
 15 43  1  6
 16 44  1  0
 17 24  1  0
 17 18  1  6
 17 19  1  0
 18 45  1  0
 19 20  2  0
 19 46  1  0
 20 21  1  0
 20 47  1  0
 21 22  2  0
 21 23  1  0
 23 24  1  0
 23 48  1  1
M  END
>  <i_m_ct_stereo_status>  (229) 
1

>  <s_m_source_file>  (229) 
/var/tmp/pbs.5076255.sched01/tmpbhhv4xqx/80i1gy0gug.sdf

>  <i_m_source_file_index>  (229) 
28

>  <i_lp_mmshare_version>  (229) 
48012

>  <i_f3d_flags>  (229) 
2

>  <s_epik_input>  (229) 
W0NIM11bQ0gyXVtDSDJdW0NAQF0xKEMyMzQpW0NIMl1bQ0BASF0oW0NIM10pW0NASF0yT1tDSDJdW0NAQEhdKE8xKVtDQEhdNVtDQEBIXTRDKD1PKVtDSF09W0NIXVtDQF0zKFtPSF0pW0NAQEhdKE81KVtPSF0=

>  <s_epik_cmdline>  (229) 
J2VwaWtfcHl0aG9uJywgJy1waHQnLCAnMi4wJywgJy1waCcsICc3LjAnLCAnLXRuJywgJzgnLCAnLW1hJywgJzIwMCcsICctaW1hZScsICc8aW5maWxlLm1hZT4nLCAnLW9tYWUnLCAnPG91dGZpbGUubWFlPic=

>  <r_lp_tautomer_probability>  (229) 
1

>  <r_epik_Ionization_Penalty>  (229) 
3.2519e-05

>  <r_epik_Ionization_Penalty_Charging>  (229) 
0

>  <r_epik_Ionization_Penalty_Neutral>  (229) 
3.2519e-05

>  <r_epik_State_Penalty>  (229) 
-0

>  <r_epik_Charging_Adjusted_Penalty>  (229) 
0

>  <i_epik_Tot_Q>  (229) 
0

>  <i_epik_Tot_abs_Q>  (229) 
0

>  <s_epik_Chemistry_Notes>  (229) 
This compound contains an acetal/aminal-like group ( X-CH(R)-Y where X, Y are N, S, or O) that may be acid/base labile, releasing an aldehyde.

>  <s_lp_Force_Field>  (229) 
OPLS3e

>  <r_lp_Energy>  (229) 
181.104

>  <b_lp_Chiralities_Consistent>  (229) 
0

>  <s_lp_Variant>  (229) 
76:0-1

>  <s_i_glide_gridfile>  (229) 
pfpi4k_grid

>  <i_i_glide_lignum>  (229) 
28

>  <i_i_glide_rotatable_bonds>  (229) 
4

>  <r_i_docking_score>  (229) 
-2.57797

>  <r_i_glide_ligand_efficiency>  (229) 
-0.107415

>  <r_i_glide_ligand_efficiency_sa>  (229) 
-0.30984

>  <r_i_glide_ligand_efficiency_ln>  (229) 
-0.617027

>  <r_i_glide_gscore>  (229) 
-2.57797

>  <r_i_glide_lipo>  (229) 
-0.129428

>  <r_i_glide_hbond>  (229) 
0

>  <r_i_glide_metal>  (229) 
-0

>  <r_i_glide_rewards>  (229) 
-1.11559

>  <r_i_glide_evdw>  (229) 
-15.8702

>  <r_i_glide_ecoul>  (229) 
-4.32088

>  <r_i_glide_erotb>  (229) 
0.166906

>  <r_i_glide_esite>  (229) 
-0.058211

>  <r_i_glide_emodel>  (229) 
-22.6945

>  <r_i_glide_energy>  (229) 
-20.1911

>  <r_i_glide_einternal>  (229) 
1.5757

>  <r_i_glide_intrahb_reward>  (229) 
-0

>  <i_i_glide_confnum>  (229) 
2

>  <i_i_glide_posenum>  (229) 
2

>  <r_i_glide_eff_state_penalty>  (229) 
0

>  <ligand_id>  (229) 
76

>  <original_smiles>  (229) 
CCCC12CC(C)C3OCC(O1)C1OC(O)C4(O)C=CC(=O)C1C324

>  <smiles>  (229) 
[H]OC1([H])OC2([H])C3([H])OC4(C([H])([H])C([H])([H])C([H])([H])[H])C([H])([H])C([H])(C([H])([H])[H])C([H])(OC3([H])[H])C43C2([H])C(=O)C([H])=C([H])C13O[H]

$$$$
76:0:1
     RDKit          3D

 48 52  0  0  1  0  0  0  0  0999 V2000
   -3.3055    3.0435    7.8678 C   0  0  0  0  0  0  0  0  0  0  0  0
   -2.0610    2.0801    7.8070 C   0  0  0  0  0  0  0  0  0  0  0  0
   -0.7597    2.7141    7.2387 C   0  0  0  0  0  0  0  0  0  0  0  0
   -0.8033    3.2676    5.7724 C   0  0  1  0  0  0  0  0  0  0  0  0
   -2.1911    3.1955    5.1431 C   0  0  0  0  0  0  0  0  0  0  0  0
   -2.1150    2.9210    3.7150 C   0  0  1  0  0  0  0  0  0  0  0  0
   -3.2631    3.5269    2.8866 C   0  0  0  0  0  0  0  0  0  0  0  0
   -0.6739    3.3913    3.4513 C   0  0  1  0  0  0  0  0  0  0  0  0
   -0.9456    4.7988    3.3417 O   0  0  0  0  0  0  0  0  0  0  0  0
    0.0914    5.7111    3.5877 C   0  0  0  0  0  0  0  0  0  0  0  0
    0.7404    5.2307    4.8623 C   0  0  1  0  0  0  0  0  0  0  0  0
   -0.3674    4.7147    5.7689 O   0  0  0  0  0  0  0  0  0  0  0  0
    1.9400    4.2332    4.5065 C   0  0  2  0  0  0  0  0  0  0  0  0
    2.0106    3.5296    3.2014 O   0  0  0  0  0  0  0  0  0  0  0  0
    1.7964    2.1010    3.0355 C   0  0  1  0  0  0  0  0  0  0  0  0
    3.0390    1.4019    3.0287 O   0  0  0  0  0  0  0  0  0  0  0  0
    0.7295    1.4166    4.0609 C   0  0  1  0  0  0  0  0  0  0  0  0
   -0.2245    0.6573    3.3351 O   0  0  0  0  0  0  0  0  0  0  0  0
    1.3447    0.4651    5.0798 C   0  0  0  0  0  0  0  0  0  0  0  0
    2.2512    0.8316    5.9838 C   0  0  0  0  0  0  0  0  0  0  0  0
    2.6116    2.2437    5.9907 C   0  0  0  0  0  0  0  0  0  0  0  0
    3.6797    2.6641    6.4343 O   0  0  0  0  0  0  0  0  0  0  0  0
    1.5437    3.2126    5.4429 C   0  0  2  0  0  0  0  0  0  0  0  0
    0.1881    2.7397    4.7012 C   0  0  2  0  0  0  0  0  0  0  0  0
   -4.1886    2.6190    8.2742 H   0  0  0  0  0  0  0  0  0  0  0  0
   -3.6452    3.3461    6.9178 H   0  0  0  0  0  0  0  0  0  0  0  0
   -3.0762    3.9296    8.4664 H   0  0  0  0  0  0  0  0  0  0  0  0
   -1.8734    1.7156    8.7955 H   0  0  0  0  0  0  0  0  0  0  0  0
   -2.2887    1.1946    7.2113 H   0  0  0  0  0  0  0  0  0  0  0  0
   -0.4525    3.5064    7.9265 H   0  0  0  0  0  0  0  0  0  0  0  0
    0.0347    1.9706    7.3326 H   0  0  0  0  0  0  0  0  0  0  0  0
   -2.7957    2.3583    5.5297 H   0  0  0  0  0  0  0  0  0  0  0  0
   -2.7375    4.1474    5.3480 H   0  0  0  0  0  0  0  0  0  0  0  0
   -2.2140    1.8408    3.5884 H   0  0  0  0  0  0  0  0  0  0  0  0
   -3.3574    4.6023    3.0299 H   0  0  0  0  0  0  0  0  0  0  0  0
   -4.2116    3.0833    3.1952 H   0  0  0  0  0  0  0  0  0  0  0  0
   -3.1382    3.3366    1.8334 H   0  0  0  0  0  0  0  0  0  0  0  0
   -0.4120    3.0298    2.4598 H   0  0  0  0  0  0  0  0  0  0  0  0
    0.7959    5.7993    2.7594 H   0  0  0  0  0  0  0  0  0  0  0  0
   -0.3719    6.6856    3.7341 H   0  0  0  0  0  0  0  0  0  0  0  0
    1.1750    6.1003    5.3620 H   0  0  0  0  0  0  0  0  0  0  0  0
    2.9099    4.6735    4.7311 H   0  0  0  0  0  0  0  0  0  0  0  0
    1.4471    2.0135    2.0079 H   0  0  0  0  0  0  0  0  0  0  0  0
    3.6199    1.8838    2.4814 H   0  0  0  0  0  0  0  0  0  0  0  0
   -0.4384    1.1064    2.5402 H   0  0  0  0  0  0  0  0  0  0  0  0
    1.0362   -0.5762    5.0405 H   0  0  0  0  0  0  0  0  0  0  0  0
    2.7041    0.1511    6.6876 H   0  0  0  0  0  0  0  0  0  0  0  0
    1.4036    3.7099    6.4093 H   0  0  0  0  0  0  0  0  0  0  0  0
  1  2  1  0
  1 25  1  0
  1 26  1  0
  1 27  1  0
  2  3  1  0
  2 28  1  0
  2 29  1  0
  4  3  1  1
  3 30  1  0
  3 31  1  0
  4 12  1  0
 24  4  1  1
  4  5  1  0
  5  6  1  0
  5 32  1  0
  5 33  1  0
  6  7  1  0
  6  8  1  0
  6 34  1  1
  7 35  1  0
  7 36  1  0
  7 37  1  0
  8 24  1  0
  8  9  1  0
  8 38  1  6
  9 10  1  0
 10 11  1  0
 10 39  1  0
 10 40  1  0
 11 12  1  0
 11 13  1  0
 11 41  1  1
 13 23  1  0
 13 14  1  0
 13 42  1  1
 14 15  1  0
 15 16  1  0
 15 17  1  0
 15 43  1  6
 16 44  1  0
 17 24  1  0
 17 18  1  6
 17 19  1  0
 18 45  1  0
 19 20  2  0
 19 46  1  0
 20 21  1  0
 20 47  1  0
 21 22  2  0
 21 23  1  0
 23 24  1  0
 23 48  1  1
M  END
>  <i_m_ct_stereo_status>  (230) 
1

>  <s_m_source_file>  (230) 
/var/tmp/pbs.5076255.sched01/tmpbhhv4xqx/80i1gy0gug.sdf

>  <i_m_source_file_index>  (230) 
28

>  <i_lp_mmshare_version>  (230) 
48012

>  <i_f3d_flags>  (230) 
2

>  <s_epik_input>  (230) 
W0NIM11bQ0gyXVtDSDJdW0NAQF0xKEMyMzQpW0NIMl1bQ0BASF0oW0NIM10pW0NASF0yT1tDSDJdW0NAQEhdKE8xKVtDQEhdNVtDQEBIXTRDKD1PKVtDSF09W0NIXVtDQF0zKFtPSF0pW0NAQEhdKE81KVtPSF0=

>  <s_epik_cmdline>  (230) 
J2VwaWtfcHl0aG9uJywgJy1waHQnLCAnMi4wJywgJy1waCcsICc3LjAnLCAnLXRuJywgJzgnLCAnLW1hJywgJzIwMCcsICctaW1hZScsICc8aW5maWxlLm1hZT4nLCAnLW9tYWUnLCAnPG91dGZpbGUubWFlPic=

>  <r_lp_tautomer_probability>  (230) 
1

>  <r_epik_Ionization_Penalty>  (230) 
3.2519e-05

>  <r_epik_Ionization_Penalty_Charging>  (230) 
0

>  <r_epik_Ionization_Penalty_Neutral>  (230) 
3.2519e-05

>  <r_epik_State_Penalty>  (230) 
-0

>  <r_epik_Charging_Adjusted_Penalty>  (230) 
0

>  <i_epik_Tot_Q>  (230) 
0

>  <i_epik_Tot_abs_Q>  (230) 
0

>  <s_epik_Chemistry_Notes>  (230) 
This compound contains an acetal/aminal-like group ( X-CH(R)-Y where X, Y are N, S, or O) that may be acid/base labile, releasing an aldehyde.

>  <s_lp_Force_Field>  (230) 
OPLS3e

>  <r_lp_Energy>  (230) 
181.104

>  <b_lp_Chiralities_Consistent>  (230) 
0

>  <s_lp_Variant>  (230) 
76:0-1

>  <s_i_glide_gridfile>  (230) 
pfpi4k_grid

>  <i_i_glide_lignum>  (230) 
28

>  <i_i_glide_rotatable_bonds>  (230) 
4

>  <r_i_docking_score>  (230) 
-2.54747

>  <r_i_glide_ligand_efficiency>  (230) 
-0.106144

>  <r_i_glide_ligand_efficiency_sa>  (230) 
-0.306173

>  <r_i_glide_ligand_efficiency_ln>  (230) 
-0.609726

>  <r_i_glide_gscore>  (230) 
-2.54747

>  <r_i_glide_lipo>  (230) 
-0.0865169

>  <r_i_glide_hbond>  (230) 
-0.0891252

>  <r_i_glide_metal>  (230) 
-0

>  <r_i_glide_rewards>  (230) 
-1.11559

>  <r_i_glide_evdw>  (230) 
-17.7223

>  <r_i_glide_ecoul>  (230) 
-3.40909

>  <r_i_glide_erotb>  (230) 
0.166906

>  <r_i_glide_esite>  (230) 
-0.0256554

>  <r_i_glide_emodel>  (230) 
-16.1241

>  <r_i_glide_energy>  (230) 
-21.1314

>  <r_i_glide_einternal>  (230) 
12.5531

>  <r_i_glide_intrahb_reward>  (230) 
-0

>  <i_i_glide_confnum>  (230) 
2

>  <i_i_glide_posenum>  (230) 
1

>  <r_i_glide_eff_state_penalty>  (230) 
0

>  <ligand_id>  (230) 
76

>  <original_smiles>  (230) 
CCCC12CC(C)C3OCC(O1)C1OC(O)C4(O)C=CC(=O)C1C324

>  <smiles>  (230) 
[H]OC1([H])OC2([H])C3([H])OC4(C([H])([H])C([H])([H])C([H])([H])[H])C([H])([H])C([H])(C([H])([H])[H])C([H])(OC3([H])[H])C43C2([H])C(=O)C([H])=C([H])C13O[H]

$$$$
76:0:2
     RDKit          3D

 48 52  0  0  1  0  0  0  0  0999 V2000
   -0.3092   -2.9758    6.2007 C   0  0  0  0  0  0  0  0  0  0  0  0
   -0.5274   -1.6371    5.5030 C   0  0  0  0  0  0  0  0  0  0  0  0
   -0.0122   -0.4287    6.3112 C   0  0  0  0  0  0  0  0  0  0  0  0
   -0.0500    0.9428    5.5643 C   0  0  1  0  0  0  0  0  0  0  0  0
   -1.5217    1.4053    5.3944 C   0  0  0  0  0  0  0  0  0  0  0  0
   -1.5612    2.1600    4.0811 C   0  0  1  0  0  0  0  0  0  0  0  0
   -2.6037    3.3003    4.0133 C   0  0  0  0  0  0  0  0  0  0  0  0
   -0.0824    2.5426    3.8880 C   0  0  1  0  0  0  0  0  0  0  0  0
   -0.0602    3.7111    4.7216 O   0  0  0  0  0  0  0  0  0  0  0  0
    1.1407    4.1182    5.3091 C   0  0  0  0  0  0  0  0  0  0  0  0
    1.7553    2.8579    5.8495 C   0  0  1  0  0  0  0  0  0  0  0  0
    0.6325    1.9824    6.3940 O   0  0  0  0  0  0  0  0  0  0  0  0
    2.7152    2.2292    4.7354 C   0  0  2  0  0  0  0  0  0  0  0  0
    2.5650    2.5562    3.3105 O   0  0  0  0  0  0  0  0  0  0  0  0
    2.1129    1.6009    2.2895 C   0  0  1  0  0  0  0  0  0  0  0  0
    3.1986    0.9575    1.6848 O   0  0  0  0  0  0  0  0  0  0  0  0
    0.9957    0.5612    2.8293 C   0  0  1  0  0  0  0  0  0  0  0  0
   -0.1393    0.5588    1.9898 O   0  0  0  0  0  0  0  0  0  0  0  0
    1.5081   -0.8862    2.8118 C   0  0  0  0  0  0  0  0  0  0  0  0
    2.5031   -1.3046    3.6069 C   0  0  0  0  0  0  0  0  0  0  0  0
    3.0984   -0.3063    4.4880 C   0  0  0  0  0  0  0  0  0  0  0  0
    4.2360   -0.3830    4.9385 O   0  0  0  0  0  0  0  0  0  0  0  0
    2.2029    0.9016    4.8638 C   0  0  2  0  0  0  0  0  0  0  0  0
    0.7389    1.1496    4.2535 C   0  0  2  0  0  0  0  0  0  0  0  0
   -0.5859   -3.7901    5.5348 H   0  0  0  0  0  0  0  0  0  0  0  0
   -0.8926   -3.0593    7.1161 H   0  0  0  0  0  0  0  0  0  0  0  0
    0.7410   -3.1206    6.4458 H   0  0  0  0  0  0  0  0  0  0  0  0
    0.0096   -1.7164    4.5697 H   0  0  0  0  0  0  0  0  0  0  0  0
   -1.5719   -1.5209    5.2131 H   0  0  0  0  0  0  0  0  0  0  0  0
   -0.6174   -0.3074    7.2071 H   0  0  0  0  0  0  0  0  0  0  0  0
    0.9725   -0.6749    6.7015 H   0  0  0  0  0  0  0  0  0  0  0  0
   -2.2266    0.5799    5.3502 H   0  0  0  0  0  0  0  0  0  0  0  0
   -1.8189    2.0345    6.2318 H   0  0  0  0  0  0  0  0  0  0  0  0
   -1.8630    1.4518    3.3196 H   0  0  0  0  0  0  0  0  0  0  0  0
   -2.4830    4.0232    4.8200 H   0  0  0  0  0  0  0  0  0  0  0  0
   -3.6165    2.9031    4.0841 H   0  0  0  0  0  0  0  0  0  0  0  0
   -2.5299    3.8318    3.0637 H   0  0  0  0  0  0  0  0  0  0  0  0
    0.0500    2.9150    2.8747 H   0  0  0  0  0  0  0  0  0  0  0  0
    1.7949    4.6472    4.6123 H   0  0  0  0  0  0  0  0  0  0  0  0
    0.8975    4.8063    6.1190 H   0  0  0  0  0  0  0  0  0  0  0  0
    2.3770    3.1289    6.7003 H   0  0  0  0  0  0  0  0  0  0  0  0
    3.7623    2.2927    5.0353 H   0  0  0  0  0  0  0  0  0  0  0  0
    1.6796    2.2300    1.5063 H   0  0  0  0  0  0  0  0  0  0  0  0
    3.8847    1.6158    1.5577 H   0  0  0  0  0  0  0  0  0  0  0  0
    0.1395    0.4979    1.0824 H   0  0  0  0  0  0  0  0  0  0  0  0
    0.9931   -1.5792    2.1626 H   0  0  0  0  0  0  0  0  0  0  0  0
    2.8519   -2.3338    3.6351 H   0  0  0  0  0  0  0  0  0  0  0  0
    2.2373    0.6763    5.9246 H   0  0  0  0  0  0  0  0  0  0  0  0
  1  2  1  0
  1 25  1  0
  1 26  1  0
  1 27  1  0
  2  3  1  0
  2 28  1  0
  2 29  1  0
  4  3  1  1
  3 30  1  0
  3 31  1  0
  4 12  1  0
 24  4  1  1
  4  5  1  0
  5  6  1  0
  5 32  1  0
  5 33  1  0
  6  7  1  0
  6  8  1  0
  6 34  1  6
  7 35  1  0
  7 36  1  0
  7 37  1  0
  8 24  1  0
  8  9  1  0
  8 38  1  6
  9 10  1  0
 10 11  1  0
 10 39  1  0
 10 40  1  0
 11 12  1  0
 11 13  1  0
 11 41  1  1
 13 23  1  0
 13 14  1  0
 13 42  1  1
 14 15  1  0
 15 16  1  0
 15 17  1  0
 15 43  1  6
 16 44  1  0
 17 24  1  0
 17 18  1  6
 17 19  1  0
 18 45  1  0
 19 20  2  0
 19 46  1  0
 20 21  1  0
 20 47  1  0
 21 22  2  0
 21 23  1  0
 23 24  1  0
 23 48  1  1
M  END
>  <i_m_ct_stereo_status>  (231) 
1

>  <s_m_source_file>  (231) 
/var/tmp/pbs.5076255.sched01/tmpbhhv4xqx/80i1gy0gug.sdf

>  <i_m_source_file_index>  (231) 
28

>  <i_lp_mmshare_version>  (231) 
48012

>  <i_f3d_flags>  (231) 
2

>  <s_epik_input>  (231) 
W0NIM11bQ0gyXVtDSDJdW0NAQF0xKEMyMzQpW0NIMl1bQ0BASF0oW0NIM10pW0NASF0yT1tDSDJdW0NAQEhdKE8xKVtDQEhdNVtDQEBIXTRDKD1PKVtDSF09W0NIXVtDQF0zKFtPSF0pW0NAQEhdKE81KVtPSF0=

>  <s_epik_cmdline>  (231) 
J2VwaWtfcHl0aG9uJywgJy1waHQnLCAnMi4wJywgJy1waCcsICc3LjAnLCAnLXRuJywgJzgnLCAnLW1hJywgJzIwMCcsICctaW1hZScsICc8aW5maWxlLm1hZT4nLCAnLW9tYWUnLCAnPG91dGZpbGUubWFlPic=

>  <r_lp_tautomer_probability>  (231) 
1

>  <r_epik_Ionization_Penalty>  (231) 
3.2519e-05

>  <r_epik_Ionization_Penalty_Charging>  (231) 
0

>  <r_epik_Ionization_Penalty_Neutral>  (231) 
3.2519e-05

>  <r_epik_State_Penalty>  (231) 
-0

>  <r_epik_Charging_Adjusted_Penalty>  (231) 
0

>  <i_epik_Tot_Q>  (231) 
0

>  <i_epik_Tot_abs_Q>  (231) 
0

>  <s_epik_Chemistry_Notes>  (231) 
This compound contains an acetal/aminal-like group ( X-CH(R)-Y where X, Y are N, S, or O) that may be acid/base labile, releasing an aldehyde.

>  <s_lp_Force_Field>  (231) 
OPLS3e

>  <r_lp_Energy>  (231) 
181.104

>  <b_lp_Chiralities_Consistent>  (231) 
0

>  <s_lp_Variant>  (231) 
76:0-1

>  <s_i_glide_gridfile>  (231) 
pfpi4k_grid

>  <i_i_glide_lignum>  (231) 
28

>  <i_i_glide_rotatable_bonds>  (231) 
4

>  <r_i_docking_score>  (231) 
-2.45018

>  <r_i_glide_ligand_efficiency>  (231) 
-0.102091

>  <r_i_glide_ligand_efficiency_sa>  (231) 
-0.294481

>  <r_i_glide_ligand_efficiency_ln>  (231) 
-0.58644

>  <r_i_glide_gscore>  (231) 
-2.45018

>  <r_i_glide_lipo>  (231) 
0

>  <r_i_glide_hbond>  (231) 
0

>  <r_i_glide_metal>  (231) 
-0

>  <r_i_glide_rewards>  (231) 
-1.22781

>  <r_i_glide_evdw>  (231) 
-17.2208

>  <r_i_glide_ecoul>  (231) 
-3.52154

>  <r_i_glide_erotb>  (231) 
0.166906

>  <r_i_glide_esite>  (231) 
0

>  <r_i_glide_emodel>  (231) 
-23.0809

>  <r_i_glide_energy>  (231) 
-20.7423

>  <r_i_glide_einternal>  (231) 
1.75553

>  <r_i_glide_intrahb_reward>  (231) 
-0

>  <i_i_glide_confnum>  (231) 
2

>  <i_i_glide_posenum>  (231) 
10

>  <r_i_glide_eff_state_penalty>  (231) 
0

>  <ligand_id>  (231) 
76

>  <original_smiles>  (231) 
CCCC12CC(C)C3OCC(O1)C1OC(O)C4(O)C=CC(=O)C1C324

>  <smiles>  (231) 
[H]OC1([H])OC2([H])C3([H])OC4(C([H])([H])C([H])([H])C([H])([H])[H])C([H])([H])C([H])(C([H])([H])[H])C([H])(OC3([H])[H])C43C2([H])C(=O)C([H])=C([H])C13O[H]

$$$$
77:0:0
     RDKit          3D

 46 49  0  0  1  0  0  0  0  0999 V2000
    4.2045   -0.5028    5.2255 C   0  0  0  0  0  0  0  0  0  0  0  0
    4.7404   -1.2744    4.0062 C   0  0  2  0  0  0  0  0  0  0  0  0
    5.1108   -0.2835    2.8925 C   0  0  0  0  0  0  0  0  0  0  0  0
    5.6803   -0.9297    1.6264 C   0  0  0  0  0  0  0  0  0  0  0  0
    4.6339   -1.5407    0.6683 C   0  0  1  0  0  0  0  0  0  0  0  0
    5.2169   -1.6167   -0.7795 C   0  0  1  0  0  0  0  0  0  0  0  0
    6.5889   -2.3144   -0.9260 C   0  0  0  0  0  0  0  0  0  0  0  0
    4.2057   -2.1938   -1.7748 C   0  0  0  0  0  0  0  0  0  0  0  0
    4.2198   -1.8466   -2.9545 O   0  0  0  0  0  0  0  0  0  0  0  0
    3.2397   -3.2606   -1.2652 C   0  0  0  0  0  0  0  0  0  0  0  0
    3.7229   -3.8762    0.0609 C   0  0  2  0  0  0  0  0  0  0  0  0
    2.8713   -5.0696    0.4954 C   0  0  0  0  0  0  0  0  0  0  0  0
    3.5385   -5.7509    1.6795 C   0  0  0  0  0  0  0  0  0  0  0  0
    3.6695   -4.8061    2.8836 C   0  0  1  0  0  0  0  0  0  0  0  0
    4.4387   -5.5259    4.0063 C   0  0  0  0  0  0  0  0  0  0  0  0
    4.2866   -3.4058    2.5462 C   0  0  2  0  0  0  0  0  0  0  0  0
    3.7543   -2.3679    3.5557 C   0  0  2  0  0  0  0  0  0  0  0  0
    2.6646   -1.7479    2.8936 O   0  0  0  0  0  0  0  0  0  0  0  0
    2.5486   -2.4031    1.5449 O   0  0  0  0  0  0  0  0  0  0  0  0
    3.8543   -2.8151    1.1786 C   0  0  1  0  0  0  0  0  0  0  0  0
    3.2843    0.0341    4.9837 H   0  0  0  0  0  0  0  0  0  0  0  0
    4.9336    0.2325    5.5713 H   0  0  0  0  0  0  0  0  0  0  0  0
    3.9942   -1.1714    6.0604 H   0  0  0  0  0  0  0  0  0  0  0  0
    5.6524   -1.7765    4.3285 H   0  0  0  0  0  0  0  0  0  0  0  0
    4.2618    0.3538    2.6348 H   0  0  0  0  0  0  0  0  0  0  0  0
    5.8712    0.3863    3.2920 H   0  0  0  0  0  0  0  0  0  0  0  0
    6.1778   -0.1315    1.0808 H   0  0  0  0  0  0  0  0  0  0  0  0
    6.4694   -1.6386    1.8764 H   0  0  0  0  0  0  0  0  0  0  0  0
    3.8670   -0.7691    0.5767 H   0  0  0  0  0  0  0  0  0  0  0  0
    5.3692   -0.5888   -1.1040 H   0  0  0  0  0  0  0  0  0  0  0  0
    6.9262   -2.2823   -1.9613 H   0  0  0  0  0  0  0  0  0  0  0  0
    6.5728   -3.3613   -0.6325 H   0  0  0  0  0  0  0  0  0  0  0  0
    7.3623   -1.8280   -0.3307 H   0  0  0  0  0  0  0  0  0  0  0  0
    2.2425   -2.8303   -1.1678 H   0  0  0  0  0  0  0  0  0  0  0  0
    3.1853   -4.0328   -2.0268 H   0  0  0  0  0  0  0  0  0  0  0  0
    4.7152   -4.2895   -0.1213 H   0  0  0  0  0  0  0  0  0  0  0  0
    1.8610   -4.7563    0.7566 H   0  0  0  0  0  0  0  0  0  0  0  0
    2.7807   -5.7864   -0.3170 H   0  0  0  0  0  0  0  0  0  0  0  0
    2.9459   -6.6214    1.9622 H   0  0  0  0  0  0  0  0  0  0  0  0
    4.5203   -6.1272    1.3894 H   0  0  0  0  0  0  0  0  0  0  0  0
    2.6473   -4.6432    3.2299 H   0  0  0  0  0  0  0  0  0  0  0  0
    5.4574   -5.7564    3.6882 H   0  0  0  0  0  0  0  0  0  0  0  0
    3.9561   -6.4712    4.2587 H   0  0  0  0  0  0  0  0  0  0  0  0
    4.4993   -4.9293    4.9176 H   0  0  0  0  0  0  0  0  0  0  0  0
    5.3707   -3.5021    2.5916 H   0  0  0  0  0  0  0  0  0  0  0  0
    3.3899   -2.8722    4.4487 H   0  0  0  0  0  0  0  0  0  0  0  0
  1  2  1  0
  1 21  1  0
  1 22  1  0
  1 23  1  0
  2 17  1  0
  2  3  1  0
  2 24  1  1
  3  4  1  0
  3 25  1  0
  3 26  1  0
  4  5  1  0
  4 27  1  0
  4 28  1  0
  5 20  1  0
  5  6  1  0
  5 29  1  6
  6  7  1  0
  6  8  1  0
  6 30  1  6
  7 31  1  0
  7 32  1  0
  7 33  1  0
  8  9  2  0
  8 10  1  0
 10 11  1  0
 10 34  1  0
 10 35  1  0
 11 20  1  0
 11 12  1  0
 11 36  1  6
 12 13  1  0
 12 37  1  0
 12 38  1  0
 13 14  1  0
 13 39  1  0
 13 40  1  0
 14 15  1  0
 14 16  1  0
 14 41  1  1
 15 42  1  0
 15 43  1  0
 15 44  1  0
 16 20  1  0
 16 17  1  0
 16 45  1  6
 17 18  1  0
 17 46  1  1
 18 19  1  0
 20 19  1  1
M  END
>  <i_m_ct_stereo_status>  (232) 
1

>  <s_m_source_file>  (232) 
/var/tmp/pbs.5076255.sched01/tmpbhhv4xqx/80i1gy0gug.sdf

>  <i_m_source_file_index>  (232) 
29

>  <i_lp_mmshare_version>  (232) 
48012

>  <i_f3d_flags>  (232) 
0

>  <s_epik_input>  (232) 
W0NAXTEyM1tDQEhdNFtDSDJdW0NIMl1bQ0BASF0oW0NIM10pW0NAQEhdKE9PMylbQ0BIXTJbQ0BIXShbQ0gzXSlbQ0gyXVtDSDJdW0NASF0xW0NIMl1DKD1PKVtDQEBIXTRbQ0gzXQ==

>  <s_epik_cmdline>  (232) 
J2VwaWtfcHl0aG9uJywgJy1waHQnLCAnMi4wJywgJy1waCcsICc3LjAnLCAnLXRuJywgJzgnLCAnLW1hJywgJzIwMCcsICctaW1hZScsICc8aW5maWxlLm1hZT4nLCAnLW9tYWUnLCAnPG91dGZpbGUubWFlPic=

>  <r_lp_tautomer_probability>  (232) 
1

>  <r_epik_Ionization_Penalty>  (232) 
3.78756e-13

>  <r_epik_Ionization_Penalty_Charging>  (232) 
0

>  <r_epik_Ionization_Penalty_Neutral>  (232) 
3.78756e-13

>  <r_epik_State_Penalty>  (232) 
-0

>  <r_epik_Charging_Adjusted_Penalty>  (232) 
0

>  <i_epik_Tot_Q>  (232) 
0

>  <i_epik_Tot_abs_Q>  (232) 
0

>  <s_lp_Force_Field>  (232) 
OPLS3e

>  <r_lp_Energy>  (232) 
31.9157

>  <b_lp_Chiralities_Consistent>  (232) 
1

>  <s_lp_Variant>  (232) 
77:0-1

>  <s_i_glide_gridfile>  (232) 
pfpi4k_grid

>  <i_i_glide_lignum>  (232) 
29

>  <i_i_glide_rotatable_bonds>  (232) 
0

>  <r_i_docking_score>  (232) 
-3.06631

>  <r_i_glide_ligand_efficiency>  (232) 
-0.153315

>  <r_i_glide_ligand_efficiency_sa>  (232) 
-0.416162

>  <r_i_glide_ligand_efficiency_ln>  (232) 
-0.767396

>  <r_i_glide_gscore>  (232) 
-3.06631

>  <r_i_glide_lipo>  (232) 
-0.402112

>  <r_i_glide_hbond>  (232) 
0

>  <r_i_glide_metal>  (232) 
-0

>  <r_i_glide_rewards>  (232) 
-1.511

>  <r_i_glide_evdw>  (232) 
-21.5236

>  <r_i_glide_ecoul>  (232) 
-0.380985

>  <r_i_glide_erotb>  (232) 
0

>  <r_i_glide_esite>  (232) 
-0.0198697

>  <r_i_glide_emodel>  (232) 
-26.0227

>  <r_i_glide_energy>  (232) 
-21.9045

>  <r_i_glide_einternal>  (232) 
0

>  <r_i_glide_intrahb_reward>  (232) 
-0

>  <i_i_glide_confnum>  (232) 
2

>  <i_i_glide_posenum>  (232) 
8

>  <r_i_glide_eff_state_penalty>  (232) 
0

>  <ligand_id>  (232) 
77

>  <original_smiles>  (232) 
CC1CCC2C(C)C(=O)CC3CCC(C)C4C1OOC324

>  <smiles>  (232) 
[H]C([H])([H])C1([H])C(=O)C([H])([H])C2([H])C([H])([H])C([H])([H])C([H])(C([H])([H])[H])C3([H])C4([H])OOC23C1([H])C([H])([H])C([H])([H])C4([H])C([H])([H])[H]

$$$$
77:0:1
     RDKit          3D

 46 49  0  0  1  0  0  0  0  0999 V2000
    0.7445   -3.1047    4.7449 C   0  0  0  0  0  0  0  0  0  0  0  0
    2.0598   -2.8284    3.9903 C   0  0  2  0  0  0  0  0  0  0  0  0
    1.8439   -1.7001    2.9682 C   0  0  0  0  0  0  0  0  0  0  0  0
    3.0936   -1.3121    2.1753 C   0  0  0  0  0  0  0  0  0  0  0  0
    3.4429   -2.2503    0.9965 C   0  0  1  0  0  0  0  0  0  0  0  0
    4.3121   -1.4897   -0.0543 C   0  0  1  0  0  0  0  0  0  0  0  0
    5.5676   -0.7791    0.4939 C   0  0  0  0  0  0  0  0  0  0  0  0
    4.6722   -2.3681   -1.2575 C   0  0  0  0  0  0  0  0  0  0  0  0
    4.8403   -1.8752   -2.3715 O   0  0  0  0  0  0  0  0  0  0  0  0
    4.8940   -3.8567   -1.0098 C   0  0  0  0  0  0  0  0  0  0  0  0
    5.1141   -4.1490    0.4842 C   0  0  2  0  0  0  0  0  0  0  0  0
    5.5138   -5.6035    0.7303 C   0  0  0  0  0  0  0  0  0  0  0  0
    5.9415   -5.7605    2.1822 C   0  0  0  0  0  0  0  0  0  0  0  0
    4.8032   -5.4132    3.1533 C   0  0  1  0  0  0  0  0  0  0  0  0
    5.3326   -5.4941    4.5970 C   0  0  0  0  0  0  0  0  0  0  0  0
    4.0924   -4.0471    2.8601 C   0  0  2  0  0  0  0  0  0  0  0  0
    2.6415   -4.1203    3.3792 C   0  0  2  0  0  0  0  0  0  0  0  0
    1.8728   -4.4843    2.2472 O   0  0  0  0  0  0  0  0  0  0  0  0
    2.8252   -4.5883    1.0820 O   0  0  0  0  0  0  0  0  0  0  0  0
    3.9086   -3.7165    1.3565 C   0  0  1  0  0  0  0  0  0  0  0  0
   -0.0359   -3.4606    4.0730 H   0  0  0  0  0  0  0  0  0  0  0  0
    0.3748   -2.1973    5.2237 H   0  0  0  0  0  0  0  0  0  0  0  0
    0.8816   -3.8555    5.5230 H   0  0  0  0  0  0  0  0  0  0  0  0
    2.7760   -2.4739    4.7327 H   0  0  0  0  0  0  0  0  0  0  0  0
    1.0305   -1.9348    2.2797 H   0  0  0  0  0  0  0  0  0  0  0  0
    1.5148   -0.8175    3.5170 H   0  0  0  0  0  0  0  0  0  0  0  0
    2.8795   -0.3307    1.7527 H   0  0  0  0  0  0  0  0  0  0  0  0
    3.9432   -1.1583    2.8410 H   0  0  0  0  0  0  0  0  0  0  0  0
    2.4953   -2.3829    0.4712 H   0  0  0  0  0  0  0  0  0  0  0  0
    3.6814   -0.6992   -0.4588 H   0  0  0  0  0  0  0  0  0  0  0  0
    6.0780   -0.2587   -0.3118 H   0  0  0  0  0  0  0  0  0  0  0  0
    6.2908   -1.4539    0.9452 H   0  0  0  0  0  0  0  0  0  0  0  0
    5.3161   -0.0227    1.2367 H   0  0  0  0  0  0  0  0  0  0  0  0
    4.0430   -4.4152   -1.3990 H   0  0  0  0  0  0  0  0  0  0  0  0
    5.7689   -4.1666   -1.5816 H   0  0  0  0  0  0  0  0  0  0  0  0
    5.9784   -3.5648    0.7993 H   0  0  0  0  0  0  0  0  0  0  0  0
    4.6926   -6.2817    0.4959 H   0  0  0  0  0  0  0  0  0  0  0  0
    6.3439   -5.8749    0.0805 H   0  0  0  0  0  0  0  0  0  0  0  0
    6.2547   -6.7923    2.3433 H   0  0  0  0  0  0  0  0  0  0  0  0
    6.8113   -5.1367    2.3843 H   0  0  0  0  0  0  0  0  0  0  0  0
    4.0657   -6.2059    3.0226 H   0  0  0  0  0  0  0  0  0  0  0  0
    6.1136   -4.7506    4.7653 H   0  0  0  0  0  0  0  0  0  0  0  0
    5.7706   -6.4745    4.7912 H   0  0  0  0  0  0  0  0  0  0  0  0
    4.5488   -5.3293    5.3373 H   0  0  0  0  0  0  0  0  0  0  0  0
    4.6646   -3.2645    3.3540 H   0  0  0  0  0  0  0  0  0  0  0  0
    2.5542   -4.9062    4.1265 H   0  0  0  0  0  0  0  0  0  0  0  0
  1  2  1  0
  1 21  1  0
  1 22  1  0
  1 23  1  0
  2 17  1  0
  2  3  1  0
  2 24  1  1
  3  4  1  0
  3 25  1  0
  3 26  1  0
  4  5  1  0
  4 27  1  0
  4 28  1  0
  5 20  1  0
  5  6  1  0
  5 29  1  6
  6  7  1  0
  6  8  1  0
  6 30  1  6
  7 31  1  0
  7 32  1  0
  7 33  1  0
  8  9  2  0
  8 10  1  0
 10 11  1  0
 10 34  1  0
 10 35  1  0
 11 20  1  0
 11 12  1  0
 11 36  1  1
 12 13  1  0
 12 37  1  0
 12 38  1  0
 13 14  1  0
 13 39  1  0
 13 40  1  0
 14 15  1  0
 14 16  1  0
 14 41  1  1
 15 42  1  0
 15 43  1  0
 15 44  1  0
 16 20  1  0
 16 17  1  0
 16 45  1  1
 17 18  1  0
 17 46  1  1
 18 19  1  0
 20 19  1  6
M  END
>  <i_m_ct_stereo_status>  (233) 
1

>  <s_m_source_file>  (233) 
/var/tmp/pbs.5076255.sched01/tmpbhhv4xqx/80i1gy0gug.sdf

>  <i_m_source_file_index>  (233) 
29

>  <i_lp_mmshare_version>  (233) 
48012

>  <i_f3d_flags>  (233) 
0

>  <s_epik_input>  (233) 
W0NAXTEyM1tDQEhdNFtDSDJdW0NIMl1bQ0BASF0oW0NIM10pW0NAQEhdKE9PMylbQ0BIXTJbQ0BIXShbQ0gzXSlbQ0gyXVtDSDJdW0NASF0xW0NIMl1DKD1PKVtDQEBIXTRbQ0gzXQ==

>  <s_epik_cmdline>  (233) 
J2VwaWtfcHl0aG9uJywgJy1waHQnLCAnMi4wJywgJy1waCcsICc3LjAnLCAnLXRuJywgJzgnLCAnLW1hJywgJzIwMCcsICctaW1hZScsICc8aW5maWxlLm1hZT4nLCAnLW9tYWUnLCAnPG91dGZpbGUubWFlPic=

>  <r_lp_tautomer_probability>  (233) 
1

>  <r_epik_Ionization_Penalty>  (233) 
3.78756e-13

>  <r_epik_Ionization_Penalty_Charging>  (233) 
0

>  <r_epik_Ionization_Penalty_Neutral>  (233) 
3.78756e-13

>  <r_epik_State_Penalty>  (233) 
-0

>  <r_epik_Charging_Adjusted_Penalty>  (233) 
0

>  <i_epik_Tot_Q>  (233) 
0

>  <i_epik_Tot_abs_Q>  (233) 
0

>  <s_lp_Force_Field>  (233) 
OPLS3e

>  <r_lp_Energy>  (233) 
31.9157

>  <b_lp_Chiralities_Consistent>  (233) 
1

>  <s_lp_Variant>  (233) 
77:0-1

>  <s_i_glide_gridfile>  (233) 
pfpi4k_grid

>  <i_i_glide_lignum>  (233) 
29

>  <i_i_glide_rotatable_bonds>  (233) 
0

>  <r_i_docking_score>  (233) 
-3.02431

>  <r_i_glide_ligand_efficiency>  (233) 
-0.151216

>  <r_i_glide_ligand_efficiency_sa>  (233) 
-0.410462

>  <r_i_glide_ligand_efficiency_ln>  (233) 
-0.756885

>  <r_i_glide_gscore>  (233) 
-3.02431

>  <r_i_glide_lipo>  (233) 
-0.339732

>  <r_i_glide_hbond>  (233) 
0

>  <r_i_glide_metal>  (233) 
-0

>  <r_i_glide_rewards>  (233) 
-1.511

>  <r_i_glide_evdw>  (233) 
-20.1524

>  <r_i_glide_ecoul>  (233) 
-0.971576

>  <r_i_glide_erotb>  (233) 
0

>  <r_i_glide_esite>  (233) 
-0.0202205

>  <r_i_glide_emodel>  (233) 
-25.1935

>  <r_i_glide_energy>  (233) 
-21.124

>  <r_i_glide_einternal>  (233) 
0

>  <r_i_glide_intrahb_reward>  (233) 
-0

>  <i_i_glide_confnum>  (233) 
2

>  <i_i_glide_posenum>  (233) 
36

>  <r_i_glide_eff_state_penalty>  (233) 
0

>  <ligand_id>  (233) 
77

>  <original_smiles>  (233) 
CC1CCC2C(C)C(=O)CC3CCC(C)C4C1OOC324

>  <smiles>  (233) 
[H]C([H])([H])C1([H])C(=O)C([H])([H])C2([H])C([H])([H])C([H])([H])C([H])(C([H])([H])[H])C3([H])C4([H])OOC23C1([H])C([H])([H])C([H])([H])C4([H])C([H])([H])[H]

$$$$
77:0:2
     RDKit          3D

 46 49  0  0  1  0  0  0  0  0999 V2000
    1.7207    0.1749    4.0158 C   0  0  0  0  0  0  0  0  0  0  0  0
    2.9602   -0.5001    3.3995 C   0  0  2  0  0  0  0  0  0  0  0  0
    3.2309    0.0979    2.0097 C   0  0  0  0  0  0  0  0  0  0  0  0
    4.4572   -0.4799    1.2996 C   0  0  0  0  0  0  0  0  0  0  0  0
    4.2360   -1.8495    0.6157 C   0  0  1  0  0  0  0  0  0  0  0  0
    5.2865   -2.0525   -0.5188 C   0  0  1  0  0  0  0  0  0  0  0  0
    6.7658   -1.8630   -0.1174 C   0  0  0  0  0  0  0  0  0  0  0  0
    5.0924   -3.3811   -1.2542 C   0  0  0  0  0  0  0  0  0  0  0  0
    5.3656   -3.4762   -2.4488 O   0  0  0  0  0  0  0  0  0  0  0  0
    4.6084   -4.5777   -0.4395 C   0  0  0  0  0  0  0  0  0  0  0  0
    4.7699   -4.3359    1.0707 C   0  0  2  0  0  0  0  0  0  0  0  0
    4.4416   -5.5826    1.8906 C   0  0  0  0  0  0  0  0  0  0  0  0
    4.8422   -5.3387    3.3405 C   0  0  0  0  0  0  0  0  0  0  0  0
    4.0764   -4.1549    3.9530 C   0  0  1  0  0  0  0  0  0  0  0  0
    4.6015   -3.9023    5.3788 C   0  0  0  0  0  0  0  0  0  0  0  0
    4.0877   -2.8519    3.0851 C   0  0  2  0  0  0  0  0  0  0  0  0
    2.8145   -2.0349    3.3934 C   0  0  2  0  0  0  0  0  0  0  0  0
    1.9006   -2.3987    2.3757 O   0  0  0  0  0  0  0  0  0  0  0  0
    2.6071   -3.4017    1.4963 O   0  0  0  0  0  0  0  0  0  0  0  0
    3.9846   -3.0906    1.5574 C   0  0  1  0  0  0  0  0  0  0  0  0
    0.8261   -0.0149    3.4219 H   0  0  0  0  0  0  0  0  0  0  0  0
    1.8574    1.2557    4.0689 H   0  0  0  0  0  0  0  0  0  0  0  0
    1.5351   -0.1829    5.0288 H   0  0  0  0  0  0  0  0  0  0  0  0
    3.8070   -0.2546    4.0411 H   0  0  0  0  0  0  0  0  0  0  0  0
    2.3543    0.0139    1.3653 H   0  0  0  0  0  0  0  0  0  0  0  0
    3.3979    1.1679    2.1389 H   0  0  0  0  0  0  0  0  0  0  0  0
    4.7072    0.2372    0.5177 H   0  0  0  0  0  0  0  0  0  0  0  0
    5.3195   -0.4925    1.9665 H   0  0  0  0  0  0  0  0  0  0  0  0
    3.3017   -1.7259    0.0656 H   0  0  0  0  0  0  0  0  0  0  0  0
    5.0806   -1.2883   -1.2684 H   0  0  0  0  0  0  0  0  0  0  0  0
    7.4110   -2.0030   -0.9833 H   0  0  0  0  0  0  0  0  0  0  0  0
    7.1057   -2.5640    0.6401 H   0  0  0  0  0  0  0  0  0  0  0  0
    6.9568   -0.8584    0.2613 H   0  0  0  0  0  0  0  0  0  0  0  0
    3.5679   -4.7815   -0.6945 H   0  0  0  0  0  0  0  0  0  0  0  0
    5.1854   -5.4537   -0.7371 H   0  0  0  0  0  0  0  0  0  0  0  0
    5.8290   -4.1516    1.2523 H   0  0  0  0  0  0  0  0  0  0  0  0
    3.3821   -5.8305    1.8282 H   0  0  0  0  0  0  0  0  0  0  0  0
    4.9883   -6.4411    1.5017 H   0  0  0  0  0  0  0  0  0  0  0  0
    4.6349   -6.2422    3.9153 H   0  0  0  0  0  0  0  0  0  0  0  0
    5.9163   -5.1662    3.4065 H   0  0  0  0  0  0  0  0  0  0  0  0
    3.0436   -4.4929    4.0355 H   0  0  0  0  0  0  0  0  0  0  0  0
    5.6520   -3.6079    5.3550 H   0  0  0  0  0  0  0  0  0  0  0  0
    4.5307   -4.8102    5.9810 H   0  0  0  0  0  0  0  0  0  0  0  0
    4.0454   -3.1186    5.8938 H   0  0  0  0  0  0  0  0  0  0  0  0
    4.9950   -2.3018    3.3243 H   0  0  0  0  0  0  0  0  0  0  0  0
    2.4073   -2.3332    4.3580 H   0  0  0  0  0  0  0  0  0  0  0  0
  1  2  1  0
  1 21  1  0
  1 22  1  0
  1 23  1  0
  2 17  1  0
  2  3  1  0
  2 24  1  1
  3  4  1  0
  3 25  1  0
  3 26  1  0
  4  5  1  0
  4 27  1  0
  4 28  1  0
  5 20  1  0
  5  6  1  0
  5 29  1  6
  6  7  1  0
  6  8  1  0
  6 30  1  6
  7 31  1  0
  7 32  1  0
  7 33  1  0
  8  9  2  0
  8 10  1  0
 10 11  1  0
 10 34  1  0
 10 35  1  0
 11 20  1  0
 11 12  1  0
 11 36  1  6
 12 13  1  0
 12 37  1  0
 12 38  1  0
 13 14  1  0
 13 39  1  0
 13 40  1  0
 14 15  1  0
 14 16  1  0
 14 41  1  1
 15 42  1  0
 15 43  1  0
 15 44  1  0
 16 20  1  0
 16 17  1  0
 16 45  1  6
 17 18  1  0
 17 46  1  1
 18 19  1  0
 20 19  1  1
M  END
>  <i_m_ct_stereo_status>  (234) 
1

>  <s_m_source_file>  (234) 
/var/tmp/pbs.5076255.sched01/tmpbhhv4xqx/80i1gy0gug.sdf

>  <i_m_source_file_index>  (234) 
29

>  <i_lp_mmshare_version>  (234) 
48012

>  <i_f3d_flags>  (234) 
0

>  <s_epik_input>  (234) 
W0NAXTEyM1tDQEhdNFtDSDJdW0NIMl1bQ0BASF0oW0NIM10pW0NAQEhdKE9PMylbQ0BIXTJbQ0BIXShbQ0gzXSlbQ0gyXVtDSDJdW0NASF0xW0NIMl1DKD1PKVtDQEBIXTRbQ0gzXQ==

>  <s_epik_cmdline>  (234) 
J2VwaWtfcHl0aG9uJywgJy1waHQnLCAnMi4wJywgJy1waCcsICc3LjAnLCAnLXRuJywgJzgnLCAnLW1hJywgJzIwMCcsICctaW1hZScsICc8aW5maWxlLm1hZT4nLCAnLW9tYWUnLCAnPG91dGZpbGUubWFlPic=

>  <r_lp_tautomer_probability>  (234) 
1

>  <r_epik_Ionization_Penalty>  (234) 
3.78756e-13

>  <r_epik_Ionization_Penalty_Charging>  (234) 
0

>  <r_epik_Ionization_Penalty_Neutral>  (234) 
3.78756e-13

>  <r_epik_State_Penalty>  (234) 
-0

>  <r_epik_Charging_Adjusted_Penalty>  (234) 
0

>  <i_epik_Tot_Q>  (234) 
0

>  <i_epik_Tot_abs_Q>  (234) 
0

>  <s_lp_Force_Field>  (234) 
OPLS3e

>  <r_lp_Energy>  (234) 
31.9157

>  <b_lp_Chiralities_Consistent>  (234) 
1

>  <s_lp_Variant>  (234) 
77:0-1

>  <s_i_glide_gridfile>  (234) 
pfpi4k_grid

>  <i_i_glide_lignum>  (234) 
29

>  <i_i_glide_rotatable_bonds>  (234) 
0

>  <r_i_docking_score>  (234) 
-2.7126

>  <r_i_glide_ligand_efficiency>  (234) 
-0.13563

>  <r_i_glide_ligand_efficiency_sa>  (234) 
-0.368156

>  <r_i_glide_ligand_efficiency_ln>  (234) 
-0.678874

>  <r_i_glide_gscore>  (234) 
-2.7126

>  <r_i_glide_lipo>  (234) 
-0.211879

>  <r_i_glide_hbond>  (234) 
0

>  <r_i_glide_metal>  (234) 
-0

>  <r_i_glide_rewards>  (234) 
-1.61076

>  <r_i_glide_evdw>  (234) 
-20.4742

>  <r_i_glide_ecoul>  (234) 
0.891645

>  <r_i_glide_erotb>  (234) 
0

>  <r_i_glide_esite>  (234) 
0

>  <r_i_glide_emodel>  (234) 
-23.2056

>  <r_i_glide_energy>  (234) 
-19.5825

>  <r_i_glide_einternal>  (234) 
0

>  <r_i_glide_intrahb_reward>  (234) 
-0

>  <i_i_glide_confnum>  (234) 
1

>  <i_i_glide_posenum>  (234) 
21

>  <r_i_glide_eff_state_penalty>  (234) 
0

>  <ligand_id>  (234) 
77

>  <original_smiles>  (234) 
CC1CCC2C(C)C(=O)CC3CCC(C)C4C1OOC324

>  <smiles>  (234) 
[H]C([H])([H])C1([H])C(=O)C([H])([H])C2([H])C([H])([H])C([H])([H])C([H])(C([H])([H])[H])C3([H])C4([H])OOC23C1([H])C([H])([H])C([H])([H])C4([H])C([H])([H])[H]

$$$$
78:0:0
     RDKit          3D

 43 46  0  0  1  0  0  0  0  0999 V2000
    3.8520   -1.4470   -1.9197 C   0  0  0  0  0  0  0  0  0  0  0  0
    4.3778   -2.6806   -2.6540 C   0  0  0  0  0  0  0  0  0  0  0  0
    4.2207   -2.7951   -3.8679 O   0  0  0  0  0  0  0  0  0  0  0  0
    5.0156   -3.6098   -1.8875 O   0  0  0  0  0  0  0  0  0  0  0  0
    5.2306   -3.4883   -0.4744 C   0  0  2  0  0  0  0  0  0  0  0  0
    6.7137   -3.7829   -0.1856 C   0  0  0  0  0  0  0  0  0  0  0  0
    6.9406   -5.0371    0.6967 C   0  0  1  0  0  0  0  0  0  0  0  0
    8.4489   -5.2567    0.8981 C   0  0  0  0  0  0  0  0  0  0  0  0
    6.1147   -4.9089    2.0244 C   0  0  2  0  0  0  0  0  0  0  0  0
    6.2880   -6.0195    3.0610 C   0  0  0  0  0  0  0  0  0  0  0  0
    5.8876   -5.5072    4.4577 C   0  0  0  0  0  0  0  0  0  0  0  0
    4.5320   -4.7762    4.4614 C   0  0  1  0  0  0  0  0  0  0  0  0
    3.9541   -4.6957    5.8857 C   0  0  0  0  0  0  0  0  0  0  0  0
    4.6210   -3.3911    3.9998 O   0  0  0  0  0  0  0  0  0  0  0  0
    4.5678   -3.1945    2.4569 O   0  0  0  0  0  0  0  0  0  0  0  0
    4.6295   -4.4464    1.8098 C   0  0  2  0  0  0  0  0  0  0  0  0
    3.4246   -5.1727    2.4565 C   0  0  1  0  0  0  0  0  0  0  0  0
    2.7694   -6.0530    1.5980 O   0  0  0  0  0  0  0  0  0  0  0  0
    2.1929   -5.4635    0.4907 C   0  0  0  0  0  0  0  0  0  0  0  0
    1.1671   -5.8378   -0.0355 O   0  0  0  0  0  0  0  0  0  0  0  0
    2.9317   -4.3616    0.0831 O   0  0  0  0  0  0  0  0  0  0  0  0
    4.3248   -4.4471    0.2963 C   0  0  1  0  0  0  0  0  0  0  0  0
    3.6673   -5.6327    3.7343 O   0  0  0  0  0  0  0  0  0  0  0  0
    4.6562   -0.9464   -1.3870 H   0  0  0  0  0  0  0  0  0  0  0  0
    3.0818   -1.7485   -1.2115 H   0  0  0  0  0  0  0  0  0  0  0  0
    3.4211   -0.7103   -2.6027 H   0  0  0  0  0  0  0  0  0  0  0  0
    5.0548   -2.4941   -0.0709 H   0  0  0  0  0  0  0  0  0  0  0  0
    7.2820   -3.8459   -1.1165 H   0  0  0  0  0  0  0  0  0  0  0  0
    7.1128   -2.9140    0.3361 H   0  0  0  0  0  0  0  0  0  0  0  0
    6.5915   -5.9032    0.1349 H   0  0  0  0  0  0  0  0  0  0  0  0
    8.8885   -4.4852    1.5318 H   0  0  0  0  0  0  0  0  0  0  0  0
    8.9702   -5.2392   -0.0605 H   0  0  0  0  0  0  0  0  0  0  0  0
    8.6561   -6.2313    1.3413 H   0  0  0  0  0  0  0  0  0  0  0  0
    6.6041   -4.0540    2.4862 H   0  0  0  0  0  0  0  0  0  0  0  0
    5.7095   -6.9016    2.7756 H   0  0  0  0  0  0  0  0  0  0  0  0
    7.3260   -6.3392    3.1141 H   0  0  0  0  0  0  0  0  0  0  0  0
    5.8503   -6.3693    5.1254 H   0  0  0  0  0  0  0  0  0  0  0  0
    6.6496   -4.8469    4.8688 H   0  0  0  0  0  0  0  0  0  0  0  0
    2.9756   -4.2174    5.8787 H   0  0  0  0  0  0  0  0  0  0  0  0
    4.5943   -4.1120    6.5440 H   0  0  0  0  0  0  0  0  0  0  0  0
    3.8266   -5.6803    6.3388 H   0  0  0  0  0  0  0  0  0  0  0  0
    2.6804   -4.3937    2.6526 H   0  0  0  0  0  0  0  0  0  0  0  0
    4.5677   -5.4484   -0.0732 H   0  0  0  0  0  0  0  0  0  0  0  0
  1  2  1  0
  1 24  1  0
  1 25  1  0
  1 26  1  0
  2  3  2  0
  2  4  1  0
  4  5  1  0
  5 22  1  0
  5  6  1  0
  5 27  1  1
  6  7  1  0
  6 28  1  0
  6 29  1  0
  7  8  1  0
  7  9  1  0
  7 30  1  6
  8 31  1  0
  8 32  1  0
  8 33  1  0
  9 16  1  0
  9 10  1  0
  9 34  1  1
 10 11  1  0
 10 35  1  0
 10 36  1  0
 11 12  1  0
 11 37  1  0
 11 38  1  0
 12 23  1  0
 12 13  1  1
 12 14  1  0
 13 39  1  0
 13 40  1  0
 13 41  1  0
 14 15  1  0
 16 15  1  1
 16 22  1  0
 16 17  1  0
 17 18  1  0
 17 23  1  0
 17 42  1  1
 18 19  1  0
 19 20  2  0
 19 21  1  0
 21 22  1  0
 22 43  1  6
M  END
>  <i_m_ct_stereo_status>  (235) 
1

>  <s_m_source_file>  (235) 
/var/tmp/pbs.5076255.sched01/tmpbhhv4xqx/80i1gy0gug.sdf

>  <i_m_source_file_index>  (235) 
30

>  <i_lp_mmshare_version>  (235) 
48012

>  <i_f3d_flags>  (235) 
0

>  <s_epik_input>  (235) 
W0NAQF0xMjNbQ0BASF00W0NASF0oW0NIM10pW0NIMl1bQ0BASF0oT0MoPU8pW0NIM10pW0NAQEhdM09DKD1PKU9bQ0BIXTJPW0NAXShbQ0gzXSkoT08xKVtDSDJdW0NIMl00

>  <s_epik_cmdline>  (235) 
J2VwaWtfcHl0aG9uJywgJy1waHQnLCAnMi4wJywgJy1waCcsICc3LjAnLCAnLXRuJywgJzgnLCAnLW1hJywgJzIwMCcsICctaW1hZScsICc8aW5maWxlLm1hZT4nLCAnLW9tYWUnLCAnPG91dGZpbGUubWFlPic=

>  <r_lp_tautomer_probability>  (235) 
1

>  <r_epik_Ionization_Penalty>  (235) 
1.95588e-11

>  <r_epik_Ionization_Penalty_Charging>  (235) 
0

>  <r_epik_Ionization_Penalty_Neutral>  (235) 
1.95588e-11

>  <r_epik_State_Penalty>  (235) 
-0

>  <r_epik_Charging_Adjusted_Penalty>  (235) 
0

>  <i_epik_Tot_Q>  (235) 
0

>  <i_epik_Tot_abs_Q>  (235) 
0

>  <s_epik_Chemistry_Notes>  (235) 
This compound has an ester and may undergo hydrolysis at high or low pH. This compound contains an acetal/aminal-like group ( X-CH(R)-Y where X, Y are N, S, or O) that may be acid/base labile, releasing an aldehyde.

>  <s_lp_Force_Field>  (235) 
OPLS3e

>  <r_lp_Energy>  (235) 
61.5562

>  <b_lp_Chiralities_Consistent>  (235) 
1

>  <s_lp_Variant>  (235) 
78:0-1

>  <s_i_glide_gridfile>  (235) 
pfpi4k_grid

>  <i_i_glide_lignum>  (235) 
30

>  <i_i_glide_rotatable_bonds>  (235) 
2

>  <r_i_docking_score>  (235) 
-3.87816

>  <r_i_glide_ligand_efficiency>  (235) 
-0.168616

>  <r_i_glide_ligand_efficiency_sa>  (235) 
-0.47952

>  <r_i_glide_ligand_efficiency_ln>  (235) 
-0.937774

>  <r_i_glide_gscore>  (235) 
-3.87816

>  <r_i_glide_lipo>  (235) 
-0.383401

>  <r_i_glide_hbond>  (235) 
-0.49451

>  <r_i_glide_metal>  (235) 
-0

>  <r_i_glide_rewards>  (235) 
-1.27863

>  <r_i_glide_evdw>  (235) 
-23.9269

>  <r_i_glide_ecoul>  (235) 
-4.27429

>  <r_i_glide_erotb>  (235) 
0.174226

>  <r_i_glide_esite>  (235) 
-0.0583572

>  <r_i_glide_emodel>  (235) 
-32.0622

>  <r_i_glide_energy>  (235) 
-28.2012

>  <r_i_glide_einternal>  (235) 
5.53487

>  <r_i_glide_intrahb_reward>  (235) 
-0

>  <i_i_glide_confnum>  (235) 
4

>  <i_i_glide_posenum>  (235) 
4

>  <r_i_glide_eff_state_penalty>  (235) 
0

>  <ligand_id>  (235) 
78

>  <original_smiles>  (235) 
CC(=O)OC1CC(C)C2CCC3(C)OOC24C(OC(=O)OC14)O3

>  <smiles>  (235) 
[H]C([H])([H])C(=O)OC1([H])C([H])([H])C([H])(C([H])([H])[H])C2([H])C([H])([H])C([H])([H])C3(C([H])([H])[H])OOC24C([H])(OC(=O)OC14[H])O3

$$$$
78:0:1
     RDKit          3D

 43 46  0  0  1  0  0  0  0  0999 V2000
    3.9110   -2.9019   -3.8385 C   0  0  0  0  0  0  0  0  0  0  0  0
    4.5082   -2.5968   -2.4696 C   0  0  0  0  0  0  0  0  0  0  0  0
    4.9461   -1.4750   -2.1977 O   0  0  0  0  0  0  0  0  0  0  0  0
    4.5016   -3.6628   -1.6448 O   0  0  0  0  0  0  0  0  0  0  0  0
    4.8600   -3.5287   -0.2724 C   0  0  2  0  0  0  0  0  0  0  0  0
    6.3869   -3.7487   -0.0889 C   0  0  0  0  0  0  0  0  0  0  0  0
    6.7696   -5.0549    0.6702 C   0  0  1  0  0  0  0  0  0  0  0  0
    8.3053   -5.1860    0.7446 C   0  0  0  0  0  0  0  0  0  0  0  0
    6.0574   -5.0939    2.0606 C   0  0  2  0  0  0  0  0  0  0  0  0
    6.3906   -6.2655    2.9887 C   0  0  0  0  0  0  0  0  0  0  0  0
    6.0703   -5.8911    4.4450 C   0  0  0  0  0  0  0  0  0  0  0  0
    4.6707   -5.2724    4.6092 C   0  0  1  0  0  0  0  0  0  0  0  0
    4.2053   -5.3384    6.0749 C   0  0  0  0  0  0  0  0  0  0  0  0
    4.6270   -3.8558    4.2584 O   0  0  0  0  0  0  0  0  0  0  0  0
    4.4386   -3.5352    2.7459 O   0  0  0  0  0  0  0  0  0  0  0  0
    4.5338   -4.7192    1.9918 C   0  0  2  0  0  0  0  0  0  0  0  0
    3.4470   -5.5910    2.6664 C   0  0  1  0  0  0  0  0  0  0  0  0
    2.7755   -6.4459    1.7803 O   0  0  0  0  0  0  0  0  0  0  0  0
    2.0689   -5.8121    0.7809 C   0  0  0  0  0  0  0  0  0  0  0  0
    1.0089   -6.2238    0.3011 O   0  0  0  0  0  0  0  0  0  0  0  0
    2.6849   -4.6476    0.4150 O   0  0  0  0  0  0  0  0  0  0  0  0
    4.0994   -4.6002    0.5229 C   0  0  1  0  0  0  0  0  0  0  0  0
    3.8097   -6.1275    3.8775 O   0  0  0  0  0  0  0  0  0  0  0  0
    2.9084   -3.3178   -3.7324 H   0  0  0  0  0  0  0  0  0  0  0  0
    4.5273   -3.6225   -4.3760 H   0  0  0  0  0  0  0  0  0  0  0  0
    3.8338   -1.9943   -4.4373 H   0  0  0  0  0  0  0  0  0  0  0  0
    4.5818   -2.5403    0.0943 H   0  0  0  0  0  0  0  0  0  0  0  0
    6.8876   -3.7132   -1.0582 H   0  0  0  0  0  0  0  0  0  0  0  0
    6.7836   -2.9016    0.4717 H   0  0  0  0  0  0  0  0  0  0  0  0
    6.4370   -5.9115    0.0838 H   0  0  0  0  0  0  0  0  0  0  0  0
    8.7481   -4.4390    1.4068 H   0  0  0  0  0  0  0  0  0  0  0  0
    8.7515   -5.0615   -0.2453 H   0  0  0  0  0  0  0  0  0  0  0  0
    8.6112   -6.1760    1.0910 H   0  0  0  0  0  0  0  0  0  0  0  0
    6.5363   -4.2485    2.5455 H   0  0  0  0  0  0  0  0  0  0  0  0
    5.8503   -7.1629    2.6808 H   0  0  0  0  0  0  0  0  0  0  0  0
    7.4464   -6.5190    2.9431 H   0  0  0  0  0  0  0  0  0  0  0  0
    6.1442   -6.7997    5.0456 H   0  0  0  0  0  0  0  0  0  0  0  0
    6.8180   -5.2073    4.8468 H   0  0  0  0  0  0  0  0  0  0  0  0
    3.1980   -4.9369    6.1794 H   0  0  0  0  0  0  0  0  0  0  0  0
    4.8559   -4.7571    6.7287 H   0  0  0  0  0  0  0  0  0  0  0  0
    4.1838   -6.3616    6.4547 H   0  0  0  0  0  0  0  0  0  0  0  0
    2.6591   -4.8975    2.9752 H   0  0  0  0  0  0  0  0  0  0  0  0
    4.3836   -5.5419    0.0492 H   0  0  0  0  0  0  0  0  0  0  0  0
  1  2  1  0
  1 24  1  0
  1 25  1  0
  1 26  1  0
  2  3  2  0
  2  4  1  0
  4  5  1  0
  5 22  1  0
  5  6  1  0
  5 27  1  1
  6  7  1  0
  6 28  1  0
  6 29  1  0
  7  8  1  0
  7  9  1  0
  7 30  1  6
  8 31  1  0
  8 32  1  0
  8 33  1  0
  9 16  1  0
  9 10  1  0
  9 34  1  1
 10 11  1  0
 10 35  1  0
 10 36  1  0
 11 12  1  0
 11 37  1  0
 11 38  1  0
 12 23  1  0
 12 13  1  1
 12 14  1  0
 13 39  1  0
 13 40  1  0
 13 41  1  0
 14 15  1  0
 16 15  1  1
 16 22  1  0
 16 17  1  0
 17 18  1  0
 17 23  1  0
 17 42  1  1
 18 19  1  0
 19 20  2  0
 19 21  1  0
 21 22  1  0
 22 43  1  6
M  END
>  <i_m_ct_stereo_status>  (236) 
1

>  <s_m_source_file>  (236) 
/var/tmp/pbs.5076255.sched01/tmpbhhv4xqx/80i1gy0gug.sdf

>  <i_m_source_file_index>  (236) 
30

>  <i_lp_mmshare_version>  (236) 
48012

>  <i_f3d_flags>  (236) 
0

>  <s_epik_input>  (236) 
W0NAQF0xMjNbQ0BASF00W0NASF0oW0NIM10pW0NIMl1bQ0BASF0oT0MoPU8pW0NIM10pW0NAQEhdM09DKD1PKU9bQ0BIXTJPW0NAXShbQ0gzXSkoT08xKVtDSDJdW0NIMl00

>  <s_epik_cmdline>  (236) 
J2VwaWtfcHl0aG9uJywgJy1waHQnLCAnMi4wJywgJy1waCcsICc3LjAnLCAnLXRuJywgJzgnLCAnLW1hJywgJzIwMCcsICctaW1hZScsICc8aW5maWxlLm1hZT4nLCAnLW9tYWUnLCAnPG91dGZpbGUubWFlPic=

>  <r_lp_tautomer_probability>  (236) 
1

>  <r_epik_Ionization_Penalty>  (236) 
1.95588e-11

>  <r_epik_Ionization_Penalty_Charging>  (236) 
0

>  <r_epik_Ionization_Penalty_Neutral>  (236) 
1.95588e-11

>  <r_epik_State_Penalty>  (236) 
-0

>  <r_epik_Charging_Adjusted_Penalty>  (236) 
0

>  <i_epik_Tot_Q>  (236) 
0

>  <i_epik_Tot_abs_Q>  (236) 
0

>  <s_epik_Chemistry_Notes>  (236) 
This compound has an ester and may undergo hydrolysis at high or low pH. This compound contains an acetal/aminal-like group ( X-CH(R)-Y where X, Y are N, S, or O) that may be acid/base labile, releasing an aldehyde.

>  <s_lp_Force_Field>  (236) 
OPLS3e

>  <r_lp_Energy>  (236) 
61.5562

>  <b_lp_Chiralities_Consistent>  (236) 
1

>  <s_lp_Variant>  (236) 
78:0-1

>  <s_i_glide_gridfile>  (236) 
pfpi4k_grid

>  <i_i_glide_lignum>  (236) 
30

>  <i_i_glide_rotatable_bonds>  (236) 
2

>  <r_i_docking_score>  (236) 
-3.50071

>  <r_i_glide_ligand_efficiency>  (236) 
-0.152205

>  <r_i_glide_ligand_efficiency_sa>  (236) 
-0.43285

>  <r_i_glide_ligand_efficiency_ln>  (236) 
-0.846502

>  <r_i_glide_gscore>  (236) 
-3.50071

>  <r_i_glide_lipo>  (236) 
-0.514688

>  <r_i_glide_hbond>  (236) 
-0.29608

>  <r_i_glide_metal>  (236) 
-0

>  <r_i_glide_rewards>  (236) 
-1.28382

>  <r_i_glide_evdw>  (236) 
-24.4474

>  <r_i_glide_ecoul>  (236) 
-2.06484

>  <r_i_glide_erotb>  (236) 
0.174226

>  <r_i_glide_esite>  (236) 
-0.0482447

>  <r_i_glide_emodel>  (236) 
-32.3815

>  <r_i_glide_energy>  (236) 
-26.5123

>  <r_i_glide_einternal>  (236) 
0.275911

>  <r_i_glide_intrahb_reward>  (236) 
-0

>  <i_i_glide_confnum>  (236) 
1

>  <i_i_glide_posenum>  (236) 
10

>  <r_i_glide_eff_state_penalty>  (236) 
0

>  <ligand_id>  (236) 
78

>  <original_smiles>  (236) 
CC(=O)OC1CC(C)C2CCC3(C)OOC24C(OC(=O)OC14)O3

>  <smiles>  (236) 
[H]C([H])([H])C(=O)OC1([H])C([H])([H])C([H])(C([H])([H])[H])C2([H])C([H])([H])C([H])([H])C3(C([H])([H])[H])OOC24C([H])(OC(=O)OC14[H])O3

$$$$
78:0:2
     RDKit          3D

 43 46  0  0  1  0  0  0  0  0999 V2000
    1.6243   -4.4681    5.7737 C   0  0  0  0  0  0  0  0  0  0  0  0
    1.5438   -4.7088    4.2707 C   0  0  0  0  0  0  0  0  0  0  0  0
    0.6451   -5.4013    3.7802 O   0  0  0  0  0  0  0  0  0  0  0  0
    2.5347   -4.0961    3.5873 O   0  0  0  0  0  0  0  0  0  0  0  0
    2.6162   -4.2041    2.1674 C   0  0  2  0  0  0  0  0  0  0  0  0
    3.6215   -5.3257    1.8024 C   0  0  0  0  0  0  0  0  0  0  0  0
    4.9396   -4.8207    1.1442 C   0  0  1  0  0  0  0  0  0  0  0  0
    5.8718   -6.0154    0.8784 C   0  0  0  0  0  0  0  0  0  0  0  0
    4.6077   -3.9804   -0.1355 C   0  0  2  0  0  0  0  0  0  0  0  0
    5.7826   -3.4678   -0.9696 C   0  0  0  0  0  0  0  0  0  0  0  0
    5.3168   -3.1677   -2.4050 C   0  0  0  0  0  0  0  0  0  0  0  0
    4.0457   -2.2992   -2.4424 C   0  0  1  0  0  0  0  0  0  0  0  0
    3.8622   -1.6314   -3.8169 C   0  0  0  0  0  0  0  0  0  0  0  0
    2.8105   -3.0516   -2.2369 O   0  0  0  0  0  0  0  0  0  0  0  0
    2.4431   -3.3698   -0.7556 O   0  0  0  0  0  0  0  0  0  0  0  0
    3.4713   -2.9276    0.0964 C   0  0  2  0  0  0  0  0  0  0  0  0
    3.6385   -1.4477   -0.3299 C   0  0  1  0  0  0  0  0  0  0  0  0
    3.9719   -0.5849    0.7248 O   0  0  0  0  0  0  0  0  0  0  0  0
    3.0308   -0.4936    1.7421 C   0  0  0  0  0  0  0  0  0  0  0  0
    2.8404    0.5012    2.4343 O   0  0  0  0  0  0  0  0  0  0  0  0
    2.3845   -1.6945    1.8897 O   0  0  0  0  0  0  0  0  0  0  0  0
    3.1126   -2.8717    1.5892 C   0  0  1  0  0  0  0  0  0  0  0  0
    4.3118   -1.2611   -1.5152 O   0  0  0  0  0  0  0  0  0  0  0  0
    1.6372   -3.3999    5.9921 H   0  0  0  0  0  0  0  0  0  0  0  0
    2.5311   -4.9137    6.1836 H   0  0  0  0  0  0  0  0  0  0  0  0
    0.7707   -4.9085    6.2893 H   0  0  0  0  0  0  0  0  0  0  0  0
    1.6444   -4.4383    1.7369 H   0  0  0  0  0  0  0  0  0  0  0  0
    3.8464   -5.9267    2.6858 H   0  0  0  0  0  0  0  0  0  0  0  0
    3.1312   -6.0070    1.1062 H   0  0  0  0  0  0  0  0  0  0  0  0
    5.4718   -4.1974    1.8646 H   0  0  0  0  0  0  0  0  0  0  0  0
    5.4715   -6.6555    0.0876 H   0  0  0  0  0  0  0  0  0  0  0  0
    5.9934   -6.6285    1.7733 H   0  0  0  0  0  0  0  0  0  0  0  0
    6.8757   -5.6944    0.5884 H   0  0  0  0  0  0  0  0  0  0  0  0
    4.1701   -4.7451   -0.7795 H   0  0  0  0  0  0  0  0  0  0  0  0
    6.2401   -2.5966   -0.4995 H   0  0  0  0  0  0  0  0  0  0  0  0
    6.5642   -4.2199   -1.0276 H   0  0  0  0  0  0  0  0  0  0  0  0
    6.1344   -2.6573   -2.9183 H   0  0  0  0  0  0  0  0  0  0  0  0
    5.1453   -4.0885   -2.9642 H   0  0  0  0  0  0  0  0  0  0  0  0
    2.9824   -0.9881   -3.8217 H   0  0  0  0  0  0  0  0  0  0  0  0
    3.7233   -2.3735   -4.6027 H   0  0  0  0  0  0  0  0  0  0  0  0
    4.7119   -1.0076   -4.0910 H   0  0  0  0  0  0  0  0  0  0  0  0
    2.6382   -1.1076   -0.5989 H   0  0  0  0  0  0  0  0  0  0  0  0
    4.0514   -2.6833    2.1126 H   0  0  0  0  0  0  0  0  0  0  0  0
  1  2  1  0
  1 24  1  0
  1 25  1  0
  1 26  1  0
  2  3  2  0
  2  4  1  0
  4  5  1  0
  5 22  1  0
  5  6  1  0
  5 27  1  6
  6  7  1  0
  6 28  1  0
  6 29  1  0
  7  8  1  0
  7  9  1  0
  7 30  1  1
  8 31  1  0
  8 32  1  0
  8 33  1  0
  9 16  1  0
  9 10  1  0
  9 34  1  6
 10 11  1  0
 10 35  1  0
 10 36  1  0
 11 12  1  0
 11 37  1  0
 11 38  1  0
 12 23  1  0
 12 13  1  6
 12 14  1  0
 13 39  1  0
 13 40  1  0
 13 41  1  0
 14 15  1  0
 16 15  1  6
 16 22  1  0
 16 17  1  0
 17 18  1  0
 17 23  1  0
 17 42  1  6
 18 19  1  0
 19 20  2  0
 19 21  1  0
 21 22  1  0
 22 43  1  1
M  END
>  <i_m_ct_stereo_status>  (237) 
1

>  <s_m_source_file>  (237) 
/var/tmp/pbs.5076255.sched01/tmpbhhv4xqx/80i1gy0gug.sdf

>  <i_m_source_file_index>  (237) 
30

>  <i_lp_mmshare_version>  (237) 
48012

>  <i_f3d_flags>  (237) 
0

>  <s_epik_input>  (237) 
W0NAQF0xMjNbQ0BASF00W0NASF0oW0NIM10pW0NIMl1bQ0BASF0oT0MoPU8pW0NIM10pW0NAQEhdM09DKD1PKU9bQ0BIXTJPW0NAXShbQ0gzXSkoT08xKVtDSDJdW0NIMl00

>  <s_epik_cmdline>  (237) 
J2VwaWtfcHl0aG9uJywgJy1waHQnLCAnMi4wJywgJy1waCcsICc3LjAnLCAnLXRuJywgJzgnLCAnLW1hJywgJzIwMCcsICctaW1hZScsICc8aW5maWxlLm1hZT4nLCAnLW9tYWUnLCAnPG91dGZpbGUubWFlPic=

>  <r_lp_tautomer_probability>  (237) 
1

>  <r_epik_Ionization_Penalty>  (237) 
1.95588e-11

>  <r_epik_Ionization_Penalty_Charging>  (237) 
0

>  <r_epik_Ionization_Penalty_Neutral>  (237) 
1.95588e-11

>  <r_epik_State_Penalty>  (237) 
-0

>  <r_epik_Charging_Adjusted_Penalty>  (237) 
0

>  <i_epik_Tot_Q>  (237) 
0

>  <i_epik_Tot_abs_Q>  (237) 
0

>  <s_epik_Chemistry_Notes>  (237) 
This compound has an ester and may undergo hydrolysis at high or low pH. This compound contains an acetal/aminal-like group ( X-CH(R)-Y where X, Y are N, S, or O) that may be acid/base labile, releasing an aldehyde.

>  <s_lp_Force_Field>  (237) 
OPLS3e

>  <r_lp_Energy>  (237) 
61.5562

>  <b_lp_Chiralities_Consistent>  (237) 
1

>  <s_lp_Variant>  (237) 
78:0-1

>  <s_i_glide_gridfile>  (237) 
pfpi4k_grid

>  <i_i_glide_lignum>  (237) 
30

>  <i_i_glide_rotatable_bonds>  (237) 
2

>  <r_i_docking_score>  (237) 
-3.02945

>  <r_i_glide_ligand_efficiency>  (237) 
-0.131715

>  <r_i_glide_ligand_efficiency_sa>  (237) 
-0.37458

>  <r_i_glide_ligand_efficiency_ln>  (237) 
-0.732548

>  <r_i_glide_gscore>  (237) 
-3.02945

>  <r_i_glide_lipo>  (237) 
-0.562159

>  <r_i_glide_hbond>  (237) 
0

>  <r_i_glide_metal>  (237) 
-0

>  <r_i_glide_rewards>  (237) 
-1.24284

>  <r_i_glide_evdw>  (237) 
-26.7636

>  <r_i_glide_ecoul>  (237) 
0.373808

>  <r_i_glide_erotb>  (237) 
0.174226

>  <r_i_glide_esite>  (237) 
-0.116566

>  <r_i_glide_emodel>  (237) 
-31.5695

>  <r_i_glide_energy>  (237) 
-26.3898

>  <r_i_glide_einternal>  (237) 
0.052706

>  <r_i_glide_intrahb_reward>  (237) 
-0

>  <i_i_glide_confnum>  (237) 
3

>  <i_i_glide_posenum>  (237) 
1

>  <r_i_glide_eff_state_penalty>  (237) 
0

>  <ligand_id>  (237) 
78

>  <original_smiles>  (237) 
CC(=O)OC1CC(C)C2CCC3(C)OOC24C(OC(=O)OC14)O3

>  <smiles>  (237) 
[H]C([H])([H])C(=O)OC1([H])C([H])([H])C([H])(C([H])([H])[H])C2([H])C([H])([H])C([H])([H])C3(C([H])([H])[H])OOC24C([H])(OC(=O)OC14[H])O3

$$$$
80:0:0
     RDKit          3D

 42 46  0  0  1  0  0  0  0  0999 V2000
   -2.5263    3.2529    6.1873 C   0  0  0  0  0  0  0  0  0  0  0  0
   -1.2171    2.5569    6.5915 C   0  0  2  0  0  0  0  0  0  0  0  0
   -0.0581    3.5802    6.7534 C   0  0  0  0  0  0  0  0  0  0  0  0
    1.2550    2.9777    7.3191 C   0  0  0  0  0  0  0  0  0  0  0  0
    1.7369    1.7469    6.5200 C   0  0  1  0  0  0  0  0  0  0  0  0
    1.9823    0.5377    7.3225 O   0  0  0  0  0  0  0  0  0  0  0  0
    0.5952    0.2620    7.1344 C   0  0  2  0  0  0  0  0  0  0  0  0
    0.0716   -1.0291    6.9293 O   0  0  0  0  0  0  0  0  0  0  0  0
   -0.9563   -1.0336    5.9910 C   0  0  0  0  0  0  0  0  0  0  0  0
   -0.4998   -1.7752    4.9255 N   0  0  0  0  0  0  0  0  0  0  0  0
    0.8721   -1.4139    4.5395 C   0  0  1  0  0  0  0  0  0  0  0  0
    1.3134   -2.1682    3.3020 C   0  0  0  0  0  0  0  0  0  0  0  0
    2.0193   -1.6151    2.3024 C   0  0  0  0  0  0  0  0  0  0  0  0
    2.5025   -0.1799    2.3053 C   0  0  1  0  0  0  0  0  0  0  0  0
    1.7824    0.5427    1.3183 O   0  0  0  0  0  0  0  0  0  0  0  0
    2.3967    0.4821    3.7179 C   0  0  1  0  0  0  0  0  0  0  0  0
    2.6185    1.8733    3.5524 O   0  0  0  0  0  0  0  0  0  0  0  0
    1.0457    0.1523    4.4205 C   0  0  2  0  0  0  0  0  0  0  0  0
    0.6517    0.9742    5.7509 C   0  0  2  0  0  0  0  0  0  0  0  0
   -0.8002    1.4400    5.5869 C   0  0  1  0  0  0  0  0  0  0  0  0
   -1.6036    0.1209    5.6352 C   0  0  0  0  0  0  0  0  0  0  0  0
   -2.4411    3.7435    5.2156 H   0  0  0  0  0  0  0  0  0  0  0  0
   -2.8010    4.0100    6.9236 H   0  0  0  0  0  0  0  0  0  0  0  0
   -3.3533    2.5437    6.1383 H   0  0  0  0  0  0  0  0  0  0  0  0
   -1.4222    2.1355    7.5743 H   0  0  0  0  0  0  0  0  0  0  0  0
    0.1495    4.0248    5.7776 H   0  0  0  0  0  0  0  0  0  0  0  0
   -0.3779    4.3998    7.3979 H   0  0  0  0  0  0  0  0  0  0  0  0
    2.0300    3.7440    7.3146 H   0  0  0  0  0  0  0  0  0  0  0  0
    1.1040    2.7270    8.3710 H   0  0  0  0  0  0  0  0  0  0  0  0
    2.6225    1.9794    5.9349 H   0  0  0  0  0  0  0  0  0  0  0  0
    0.0278    0.7248    7.9418 H   0  0  0  0  0  0  0  0  0  0  0  0
    1.5447   -1.7782    5.3180 H   0  0  0  0  0  0  0  0  0  0  0  0
    1.0232   -3.2081    3.2444 H   0  0  0  0  0  0  0  0  0  0  0  0
    2.2777   -2.2091    1.4377 H   0  0  0  0  0  0  0  0  0  0  0  0
    3.5515   -0.1924    1.9961 H   0  0  0  0  0  0  0  0  0  0  0  0
    1.4835   -0.0507    0.6279 H   0  0  0  0  0  0  0  0  0  0  0  0
    3.2056    0.0920    4.3404 H   0  0  0  0  0  0  0  0  0  0  0  0
    3.4145    2.0027    3.0535 H   0  0  0  0  0  0  0  0  0  0  0  0
    0.3297    0.4327    3.6460 H   0  0  0  0  0  0  0  0  0  0  0  0
   -0.9273    1.8633    4.5883 H   0  0  0  0  0  0  0  0  0  0  0  0
   -2.2583    0.0751    4.7762 H   0  0  0  0  0  0  0  0  0  0  0  0
   -1.1070   -1.7612    4.1223 H   0  0  0  0  0  0  0  0  0  0  0  0
  1  2  1  0
  1 22  1  0
  1 23  1  0
  1 24  1  0
  2 20  1  0
  2  3  1  0
  2 25  1  1
  3  4  1  0
  3 26  1  0
  3 27  1  0
  4  5  1  0
  4 28  1  0
  4 29  1  0
 19  5  1  1
  5  6  1  0
  5 30  1  6
  6  7  1  0
  7 19  1  0
  7  8  1  0
  7 31  1  1
  8  9  1  0
  9 10  1  0
  9 21  2  0
 10 11  1  0
 10 42  1  0
 11 18  1  0
 11 12  1  0
 11 32  1  1
 12 13  2  0
 12 33  1  0
 13 14  1  0
 13 34  1  0
 14 15  1  0
 14 16  1  0
 14 35  1  6
 15 36  1  0
 16 17  1  0
 16 18  1  0
 16 37  1  1
 17 38  1  0
 18 19  1  0
 18 39  1  6
 19 20  1  0
 20 40  1  6
 20 21  1  0
 21 41  1  0
M  END
>  <i_m_ct_stereo_status>  (238) 
1

>  <s_m_source_file>  (238) 
/var/tmp/pbs.5076255.sched01/tmpbhhv4xqx/80i1gy0gug.sdf

>  <i_m_source_file_index>  (238) 
33

>  <i_lp_mmshare_version>  (238) 
48012

>  <i_f3d_flags>  (238) 
1

>  <s_epik_input>  (238) 
W0NAQF0xMjNbQ0BIXTRbQ0gyXVtDSDJdW0NAQEhdKFtDSDNdKVtDQEBIXTNbQ0gyXUMoT1tDQEhdMU80KT1OW0NAQEhdNVtDQEBIXTJbQ0BIXShbT0hdKVtDQEhdKFtPSF0pW0NIXT1bQ0hdNQ==

>  <s_epik_cmdline>  (238) 
J2VwaWtfcHl0aG9uJywgJy1waHQnLCAnMi4wJywgJy1waCcsICc3LjAnLCAnLXRuJywgJzgnLCAnLW1hJywgJzIwMCcsICctaW1hZScsICc8aW5maWxlLm1hZT4nLCAnLW9tYWUnLCAnPG91dGZpbGUubWFlPic=

>  <r_lp_tautomer_probability>  (238) 
1

>  <r_epik_Ionization_Penalty>  (238) 
5.63876e-06

>  <r_epik_Ionization_Penalty_Charging>  (238) 
6.58056e-08

>  <r_epik_Ionization_Penalty_Neutral>  (238) 
5.57295e-06

>  <r_epik_State_Penalty>  (238) 
-0

>  <r_epik_Charging_Adjusted_Penalty>  (238) 
6.58056e-08

>  <i_epik_Tot_Q>  (238) 
0

>  <i_epik_Tot_abs_Q>  (238) 
0

>  <s_epik_Chemistry_Notes>  (238) 
This compound has an imine and may undergo hydrolysis. This compound contains an acetal/aminal-like group ( X-CH(R)-Y where X, Y are N, S, or O) that may be acid/base labile, releasing an aldehyde.

>  <s_lp_Force_Field>  (238) 
OPLS3e

>  <r_lp_Energy>  (238) 
106.375

>  <b_lp_Chiralities_Consistent>  (238) 
1

>  <s_lp_Variant>  (238) 
80:0-1

>  <s_i_glide_gridfile>  (238) 
pfpi4k_grid

>  <i_i_glide_lignum>  (238) 
33

>  <i_i_glide_rotatable_bonds>  (238) 
2

>  <r_i_docking_score>  (238) 
-3.41355

>  <r_i_glide_ligand_efficiency>  (238) 
-0.16255

>  <r_i_glide_ligand_efficiency_sa>  (238) 
-0.448463

>  <r_i_glide_ligand_efficiency_ln>  (238) 
-0.843994

>  <r_i_glide_gscore>  (238) 
-3.41355

>  <r_i_glide_lipo>  (238) 
-0.140813

>  <r_i_glide_hbond>  (238) 
0

>  <r_i_glide_metal>  (238) 
-0

>  <r_i_glide_rewards>  (238) 
-1.42267

>  <r_i_glide_evdw>  (238) 
-16.8794

>  <r_i_glide_ecoul>  (238) 
-6.48728

>  <r_i_glide_erotb>  (238) 
0

>  <r_i_glide_esite>  (238) 
-0.0330091

>  <r_i_glide_emodel>  (238) 
-27.6456

>  <r_i_glide_energy>  (238) 
-23.3667

>  <r_i_glide_einternal>  (238) 
1.28006

>  <r_i_glide_intrahb_reward>  (238) 
-0

>  <i_i_glide_confnum>  (238) 
1

>  <i_i_glide_posenum>  (238) 
31

>  <r_i_glide_eff_state_penalty>  (238) 
0

>  <ligand_id>  (238) 
80

>  <original_smiles>  (238) 
CC1CCC2OC3OC4=NC5C=CC(O)C(O)C5C23C1C4

>  <smiles>  (238) 
[H]OC1([H])C([H])=C([H])C2([H])N([H])C3=C([H])C4([H])C([H])(C([H])([H])[H])C([H])([H])C([H])([H])C5([H])OC([H])(O3)C54C2([H])C1([H])O[H]

$$$$
80:0:1
     RDKit          3D

 42 46  0  0  1  0  0  0  0  0999 V2000
    3.0344   -1.2752   -2.7703 C   0  0  0  0  0  0  0  0  0  0  0  0
    4.3048   -1.5963   -1.9710 C   0  0  2  0  0  0  0  0  0  0  0  0
    5.1198   -2.7261   -2.6600 C   0  0  0  0  0  0  0  0  0  0  0  0
    6.5023   -3.0052   -2.0169 C   0  0  0  0  0  0  0  0  0  0  0  0
    6.4126   -3.2639   -0.4999 C   0  0  1  0  0  0  0  0  0  0  0  0
    7.2832   -2.4061    0.3173 O   0  0  0  0  0  0  0  0  0  0  0  0
    6.1944   -1.4831    0.3262 C   0  0  2  0  0  0  0  0  0  0  0  0
    5.8317   -0.7111    1.4391 O   0  0  0  0  0  0  0  0  0  0  0  0
    4.4497   -0.5595    1.5358 C   0  0  0  0  0  0  0  0  0  0  0  0
    4.0847   -1.1833    2.7042 N   0  0  0  0  0  0  0  0  0  0  0  0
    4.7275   -2.4943    2.8604 C   0  0  1  0  0  0  0  0  0  0  0  0
    4.2412   -3.2049    4.1071 C   0  0  0  0  0  0  0  0  0  0  0  0
    3.9800   -4.5175    4.1600 C   0  0  0  0  0  0  0  0  0  0  0  0
    4.1832   -5.4598    2.9911 C   0  0  1  0  0  0  0  0  0  0  0  0
    2.9088   -5.8864    2.5429 O   0  0  0  0  0  0  0  0  0  0  0  0
    5.0263   -4.8278    1.8428 C   0  0  1  0  0  0  0  0  0  0  0  0
    4.8827   -5.6889    0.7235 O   0  0  0  0  0  0  0  0  0  0  0  0
    4.6050   -3.3620    1.5448 C   0  0  2  0  0  0  0  0  0  0  0  0
    5.1875   -2.6617    0.2176 C   0  0  2  0  0  0  0  0  0  0  0  0
    4.0084   -1.9870   -0.4893 C   0  0  1  0  0  0  0  0  0  0  0  0
    3.6321   -0.8423    0.4775 C   0  0  0  0  0  0  0  0  0  0  0  0
    2.3519   -2.1287   -2.8178 H   0  0  0  0  0  0  0  0  0  0  0  0
    3.2770   -0.9752   -3.7900 H   0  0  0  0  0  0  0  0  0  0  0  0
    2.4945   -0.4415   -2.3233 H   0  0  0  0  0  0  0  0  0  0  0  0
    4.8913   -0.6788   -2.0142 H   0  0  0  0  0  0  0  0  0  0  0  0
    4.5254   -3.6436   -2.6364 H   0  0  0  0  0  0  0  0  0  0  0  0
    5.2543   -2.4769   -3.7107 H   0  0  0  0  0  0  0  0  0  0  0  0
    6.9530   -3.8461   -2.5199 H   0  0  0  0  0  0  0  0  0  0  0  0
    7.1735   -2.1725   -2.2343 H   0  0  0  0  0  0  0  0  0  0  0  0
    6.6062   -4.3111   -0.2642 H   0  0  0  0  0  0  0  0  0  0  0  0
    6.2756   -0.8061   -0.5198 H   0  0  0  0  0  0  0  0  0  0  0  0
    5.7886   -2.3281    3.0604 H   0  0  0  0  0  0  0  0  0  0  0  0
    4.1134   -2.5922    4.9887 H   0  0  0  0  0  0  0  0  0  0  0  0
    3.6163   -4.9671    5.0733 H   0  0  0  0  0  0  0  0  0  0  0  0
    4.7045   -6.3444    3.3673 H   0  0  0  0  0  0  0  0  0  0  0  0
    3.0466   -6.6751    2.0342 H   0  0  0  0  0  0  0  0  0  0  0  0
    6.0761   -4.8263    2.1465 H   0  0  0  0  0  0  0  0  0  0  0  0
    5.3914   -5.3315    0.0138 H   0  0  0  0  0  0  0  0  0  0  0  0
    3.5268   -3.4718    1.4087 H   0  0  0  0  0  0  0  0  0  0  0  0
    3.1654   -2.6821   -0.5211 H   0  0  0  0  0  0  0  0  0  0  0  0
    2.5694   -0.8876    0.6724 H   0  0  0  0  0  0  0  0  0  0  0  0
    3.0866   -1.2293    2.8405 H   0  0  0  0  0  0  0  0  0  0  0  0
  1  2  1  0
  1 22  1  0
  1 23  1  0
  1 24  1  0
  2 20  1  0
  2  3  1  0
  2 25  1  1
  3  4  1  0
  3 26  1  0
  3 27  1  0
  4  5  1  0
  4 28  1  0
  4 29  1  0
 19  5  1  6
  5  6  1  0
  5 30  1  6
  6  7  1  0
  7 19  1  0
  7  8  1  0
  7 31  1  6
  8  9  1  0
  9 10  1  0
  9 21  2  0
 10 11  1  0
 10 42  1  0
 11 18  1  0
 11 12  1  0
 11 32  1  1
 12 13  2  0
 12 33  1  0
 13 14  1  0
 13 34  1  0
 14 15  1  0
 14 16  1  0
 14 35  1  1
 15 36  1  0
 16 17  1  0
 16 18  1  0
 16 37  1  1
 17 38  1  0
 18 19  1  0
 18 39  1  6
 19 20  1  0
 20 40  1  6
 20 21  1  0
 21 41  1  0
M  END
>  <i_m_ct_stereo_status>  (239) 
1

>  <s_m_source_file>  (239) 
/var/tmp/pbs.5076255.sched01/tmpbhhv4xqx/80i1gy0gug.sdf

>  <i_m_source_file_index>  (239) 
33

>  <i_lp_mmshare_version>  (239) 
48012

>  <i_f3d_flags>  (239) 
1

>  <s_epik_input>  (239) 
W0NAQF0xMjNbQ0BIXTRbQ0gyXVtDSDJdW0NAQEhdKFtDSDNdKVtDQEBIXTNbQ0gyXUMoT1tDQEhdMU80KT1OW0NAQEhdNVtDQEBIXTJbQ0BIXShbT0hdKVtDQEhdKFtPSF0pW0NIXT1bQ0hdNQ==

>  <s_epik_cmdline>  (239) 
J2VwaWtfcHl0aG9uJywgJy1waHQnLCAnMi4wJywgJy1waCcsICc3LjAnLCAnLXRuJywgJzgnLCAnLW1hJywgJzIwMCcsICctaW1hZScsICc8aW5maWxlLm1hZT4nLCAnLW9tYWUnLCAnPG91dGZpbGUubWFlPic=

>  <r_lp_tautomer_probability>  (239) 
1

>  <r_epik_Ionization_Penalty>  (239) 
5.63876e-06

>  <r_epik_Ionization_Penalty_Charging>  (239) 
6.58056e-08

>  <r_epik_Ionization_Penalty_Neutral>  (239) 
5.57295e-06

>  <r_epik_State_Penalty>  (239) 
-0

>  <r_epik_Charging_Adjusted_Penalty>  (239) 
6.58056e-08

>  <i_epik_Tot_Q>  (239) 
0

>  <i_epik_Tot_abs_Q>  (239) 
0

>  <s_epik_Chemistry_Notes>  (239) 
This compound has an imine and may undergo hydrolysis. This compound contains an acetal/aminal-like group ( X-CH(R)-Y where X, Y are N, S, or O) that may be acid/base labile, releasing an aldehyde.

>  <s_lp_Force_Field>  (239) 
OPLS3e

>  <r_lp_Energy>  (239) 
106.375

>  <b_lp_Chiralities_Consistent>  (239) 
1

>  <s_lp_Variant>  (239) 
80:0-1

>  <s_i_glide_gridfile>  (239) 
pfpi4k_grid

>  <i_i_glide_lignum>  (239) 
33

>  <i_i_glide_rotatable_bonds>  (239) 
2

>  <r_i_docking_score>  (239) 
-3.29781

>  <r_i_glide_ligand_efficiency>  (239) 
-0.157038

>  <r_i_glide_ligand_efficiency_sa>  (239) 
-0.433257

>  <r_i_glide_ligand_efficiency_ln>  (239) 
-0.815376

>  <r_i_glide_gscore>  (239) 
-3.29781

>  <r_i_glide_lipo>  (239) 
-0.532686

>  <r_i_glide_hbond>  (239) 
0

>  <r_i_glide_metal>  (239) 
-0

>  <r_i_glide_rewards>  (239) 
-1.50988

>  <r_i_glide_evdw>  (239) 
-23.8378

>  <r_i_glide_ecoul>  (239) 
-0.422329

>  <r_i_glide_erotb>  (239) 
0

>  <r_i_glide_esite>  (239) 
0

>  <r_i_glide_emodel>  (239) 
-28.6538

>  <r_i_glide_energy>  (239) 
-24.2602

>  <r_i_glide_einternal>  (239) 
0.884082

>  <r_i_glide_intrahb_reward>  (239) 
-0

>  <i_i_glide_confnum>  (239) 
1

>  <i_i_glide_posenum>  (239) 
29

>  <r_i_glide_eff_state_penalty>  (239) 
0

>  <ligand_id>  (239) 
80

>  <original_smiles>  (239) 
CC1CCC2OC3OC4=NC5C=CC(O)C(O)C5C23C1C4

>  <smiles>  (239) 
[H]OC1([H])C([H])=C([H])C2([H])N([H])C3=C([H])C4([H])C([H])(C([H])([H])[H])C([H])([H])C([H])([H])C5([H])OC([H])(O3)C54C2([H])C1([H])O[H]

$$$$
80:0:2
     RDKit          3D

 42 46  0  0  1  0  0  0  0  0999 V2000
    3.3842   -0.6757   -3.0951 C   0  0  0  0  0  0  0  0  0  0  0  0
    4.3234   -1.6446   -2.3753 C   0  0  2  0  0  0  0  0  0  0  0  0
    4.1894   -3.0651   -2.9709 C   0  0  0  0  0  0  0  0  0  0  0  0
    5.2351   -4.0555   -2.4247 C   0  0  0  0  0  0  0  0  0  0  0  0
    5.2622   -4.1419   -0.8857 C   0  0  1  0  0  0  0  0  0  0  0  0
    6.5836   -3.9442   -0.2788 O   0  0  0  0  0  0  0  0  0  0  0  0
    6.2762   -2.5546   -0.3252 C   0  0  2  0  0  0  0  0  0  0  0  0
    6.6266   -1.6454    0.6839 O   0  0  0  0  0  0  0  0  0  0  0  0
    5.6276   -0.6992    0.9021 C   0  0  0  0  0  0  0  0  0  0  0  0
    5.1815   -0.8942    2.1870 N   0  0  0  0  0  0  0  0  0  0  0  0
    4.9488   -2.3162    2.4740 C   0  0  1  0  0  0  0  0  0  0  0  0
    4.3658   -2.5158    3.8558 C   0  0  0  0  0  0  0  0  0  0  0  0
    3.4018   -3.4096    4.1353 C   0  0  0  0  0  0  0  0  0  0  0  0
    2.8114   -4.3549    3.1105 C   0  0  1  0  0  0  0  0  0  0  0  0
    1.4648   -3.9711    2.8956 O   0  0  0  0  0  0  0  0  0  0  0  0
    3.6451   -4.4188    1.7926 C   0  0  1  0  0  0  0  0  0  0  0  0
    2.8376   -5.0694    0.8238 O   0  0  0  0  0  0  0  0  0  0  0  0
    4.1218   -3.0159    1.3230 C   0  0  2  0  0  0  0  0  0  0  0  0
    4.7693   -2.8907   -0.1482 C   0  0  2  0  0  0  0  0  0  0  0  0
    4.0985   -1.6995   -0.8309 C   0  0  1  0  0  0  0  0  0  0  0  0
    4.6177   -0.5090   -0.0020 C   0  0  0  0  0  0  0  0  0  0  0  0
    2.3430   -0.9548   -2.9244 H   0  0  0  0  0  0  0  0  0  0  0  0
    3.5634   -0.6632   -4.1708 H   0  0  0  0  0  0  0  0  0  0  0  0
    3.5386    0.3369   -2.7305 H   0  0  0  0  0  0  0  0  0  0  0  0
    5.3207   -1.2770   -2.6048 H   0  0  0  0  0  0  0  0  0  0  0  0
    3.1893   -3.4474   -2.7514 H   0  0  0  0  0  0  0  0  0  0  0  0
    4.2730   -3.0260   -4.0574 H   0  0  0  0  0  0  0  0  0  0  0  0
    5.0199   -5.0461   -2.8301 H   0  0  0  0  0  0  0  0  0  0  0  0
    6.2166   -3.7967   -2.8252 H   0  0  0  0  0  0  0  0  0  0  0  0
    4.8405   -5.0796   -0.5284 H   0  0  0  0  0  0  0  0  0  0  0  0
    6.6090   -2.1519   -1.2792 H   0  0  0  0  0  0  0  0  0  0  0  0
    5.9224   -2.8058    2.5355 H   0  0  0  0  0  0  0  0  0  0  0  0
    4.7654   -1.8861    4.6383 H   0  0  0  0  0  0  0  0  0  0  0  0
    3.0048   -3.4844    5.1351 H   0  0  0  0  0  0  0  0  0  0  0  0
    2.7819   -5.3512    3.5573 H   0  0  0  0  0  0  0  0  0  0  0  0
    1.4569   -3.1294    2.4670 H   0  0  0  0  0  0  0  0  0  0  0  0
    4.5310   -5.0315    1.9833 H   0  0  0  0  0  0  0  0  0  0  0  0
    3.3648   -5.2144    0.0504 H   0  0  0  0  0  0  0  0  0  0  0  0
    3.1785   -2.4659    1.3093 H   0  0  0  0  0  0  0  0  0  0  0  0
    3.0145   -1.7612   -0.6775 H   0  0  0  0  0  0  0  0  0  0  0  0
    3.7812    0.0966    0.3139 H   0  0  0  0  0  0  0  0  0  0  0  0
    4.3795   -0.3306    2.4247 H   0  0  0  0  0  0  0  0  0  0  0  0
  1  2  1  0
  1 22  1  0
  1 23  1  0
  1 24  1  0
  2 20  1  0
  2  3  1  0
  2 25  1  1
  3  4  1  0
  3 26  1  0
  3 27  1  0
  4  5  1  0
  4 28  1  0
  4 29  1  0
 19  5  1  6
  5  6  1  0
  5 30  1  6
  6  7  1  0
  7 19  1  0
  7  8  1  0
  7 31  1  6
  8  9  1  0
  9 10  1  0
  9 21  2  0
 10 11  1  0
 10 42  1  0
 11 18  1  0
 11 12  1  0
 11 32  1  1
 12 13  2  0
 12 33  1  0
 13 14  1  0
 13 34  1  0
 14 15  1  0
 14 16  1  0
 14 35  1  1
 15 36  1  0
 16 17  1  0
 16 18  1  0
 16 37  1  1
 17 38  1  0
 18 19  1  0
 18 39  1  6
 19 20  1  0
 20 40  1  6
 20 21  1  0
 21 41  1  0
M  END
>  <i_m_ct_stereo_status>  (240) 
1

>  <s_m_source_file>  (240) 
/var/tmp/pbs.5076255.sched01/tmpbhhv4xqx/80i1gy0gug.sdf

>  <i_m_source_file_index>  (240) 
33

>  <i_lp_mmshare_version>  (240) 
48012

>  <i_f3d_flags>  (240) 
1

>  <s_epik_input>  (240) 
W0NAQF0xMjNbQ0BIXTRbQ0gyXVtDSDJdW0NAQEhdKFtDSDNdKVtDQEBIXTNbQ0gyXUMoT1tDQEhdMU80KT1OW0NAQEhdNVtDQEBIXTJbQ0BIXShbT0hdKVtDQEhdKFtPSF0pW0NIXT1bQ0hdNQ==

>  <s_epik_cmdline>  (240) 
J2VwaWtfcHl0aG9uJywgJy1waHQnLCAnMi4wJywgJy1waCcsICc3LjAnLCAnLXRuJywgJzgnLCAnLW1hJywgJzIwMCcsICctaW1hZScsICc8aW5maWxlLm1hZT4nLCAnLW9tYWUnLCAnPG91dGZpbGUubWFlPic=

>  <r_lp_tautomer_probability>  (240) 
1

>  <r_epik_Ionization_Penalty>  (240) 
5.63876e-06

>  <r_epik_Ionization_Penalty_Charging>  (240) 
6.58056e-08

>  <r_epik_Ionization_Penalty_Neutral>  (240) 
5.57295e-06

>  <r_epik_State_Penalty>  (240) 
-0

>  <r_epik_Charging_Adjusted_Penalty>  (240) 
6.58056e-08

>  <i_epik_Tot_Q>  (240) 
0

>  <i_epik_Tot_abs_Q>  (240) 
0

>  <s_epik_Chemistry_Notes>  (240) 
This compound has an imine and may undergo hydrolysis. This compound contains an acetal/aminal-like group ( X-CH(R)-Y where X, Y are N, S, or O) that may be acid/base labile, releasing an aldehyde.

>  <s_lp_Force_Field>  (240) 
OPLS3e

>  <r_lp_Energy>  (240) 
106.375

>  <b_lp_Chiralities_Consistent>  (240) 
1

>  <s_lp_Variant>  (240) 
80:0-1

>  <s_i_glide_gridfile>  (240) 
pfpi4k_grid

>  <i_i_glide_lignum>  (240) 
33

>  <i_i_glide_rotatable_bonds>  (240) 
2

>  <r_i_docking_score>  (240) 
-3.14575

>  <r_i_glide_ligand_efficiency>  (240) 
-0.149798

>  <r_i_glide_ligand_efficiency_sa>  (240) 
-0.413281

>  <r_i_glide_ligand_efficiency_ln>  (240) 
-0.777781

>  <r_i_glide_gscore>  (240) 
-3.14575

>  <r_i_glide_lipo>  (240) 
-0.382371

>  <r_i_glide_hbond>  (240) 
0

>  <r_i_glide_metal>  (240) 
-0

>  <r_i_glide_rewards>  (240) 
-1.42267

>  <r_i_glide_evdw>  (240) 
-20.8845

>  <r_i_glide_ecoul>  (240) 
-1.94079

>  <r_i_glide_erotb>  (240) 
0

>  <r_i_glide_esite>  (240) 
-0.00537205

>  <r_i_glide_emodel>  (240) 
-27.2473

>  <r_i_glide_energy>  (240) 
-22.8253

>  <r_i_glide_einternal>  (240) 
0.346598

>  <r_i_glide_intrahb_reward>  (240) 
-0

>  <i_i_glide_confnum>  (240) 
1

>  <i_i_glide_posenum>  (240) 
5

>  <r_i_glide_eff_state_penalty>  (240) 
0

>  <ligand_id>  (240) 
80

>  <original_smiles>  (240) 
CC1CCC2OC3OC4=NC5C=CC(O)C(O)C5C23C1C4

>  <smiles>  (240) 
[H]OC1([H])C([H])=C([H])C2([H])N([H])C3=C([H])C4([H])C([H])(C([H])([H])[H])C([H])([H])C([H])([H])C5([H])OC([H])(O3)C54C2([H])C1([H])O[H]

$$$$
81:0:0
     RDKit          3D

 53 57  0  0  1  0  0  0  0  0999 V2000
   -0.1943   -7.2478    2.1592 C   0  0  0  0  0  0  0  0  0  0  0  0
    0.8406   -8.3303    2.5070 C   0  0  2  0  0  0  0  0  0  0  0  0
    0.1240   -9.5471    3.1350 C   0  0  0  0  0  0  0  0  0  0  0  0
    1.0634  -10.6787    3.5595 C   0  0  0  0  0  0  0  0  0  0  0  0
    0.6317  -11.8272    3.6763 O   0  0  0  0  0  0  0  0  0  0  0  0
    2.5366  -10.3455    3.8666 C   0  0  0  0  0  0  0  0  0  0  0  0
    3.2535  -11.1437    4.4698 O   0  0  0  0  0  0  0  0  0  0  0  0
    3.1075   -8.9888    3.4289 C   0  0  1  0  0  0  0  0  0  0  0  0
    3.9043   -9.1635    2.1367 C   0  0  0  0  0  0  0  0  0  0  0  0
    3.9316   -8.2475    1.1482 C   0  0  0  0  0  0  0  0  0  0  0  0
    3.2009   -6.9096    1.1912 C   0  0  2  0  0  0  0  0  0  0  0  0
    4.0431   -5.8085    0.5115 C   0  0  1  0  0  0  0  0  0  0  0  0
    3.3526   -4.4811    0.1350 C   0  0  0  0  0  0  0  0  0  0  0  0
    2.2148   -4.1578   -0.1914 O   0  0  0  0  0  0  0  0  0  0  0  0
    4.6830   -3.7345    0.4356 C   0  0  1  0  0  0  0  0  0  0  0  0
    4.5846   -2.3247    0.9983 C   0  0  0  0  0  0  0  0  0  0  0  0
    3.5057   -1.4120    0.8747 C   0  0  0  0  0  0  0  0  0  0  0  0
    3.9123   -0.2946    1.5450 C   0  0  0  0  0  0  0  0  0  0  0  0
    5.1714   -0.4557    2.0523 O   0  0  0  0  0  0  0  0  0  0  0  0
    5.5769   -1.7050    1.7026 C   0  0  0  0  0  0  0  0  0  0  0  0
    5.0200   -4.9502    1.3499 C   0  0  2  0  0  0  0  0  0  0  0  0
    6.4686   -5.4225    1.2747 C   0  0  0  0  0  0  0  0  0  0  0  0
    4.6112   -4.7786    2.8267 C   0  0  0  0  0  0  0  0  0  0  0  0
    4.0279   -6.0586    3.4382 C   0  0  0  0  0  0  0  0  0  0  0  0
    2.7897   -6.5918    2.6577 C   0  0  2  0  0  0  0  0  0  0  0  0
    2.0770   -7.8233    3.3409 C   0  0  1  0  0  0  0  0  0  0  0  0
    1.6082   -7.4272    4.7696 C   0  0  0  0  0  0  0  0  0  0  0  0
   -0.6345   -6.8081    3.0539 H   0  0  0  0  0  0  0  0  0  0  0  0
   -0.9974   -7.6858    1.5661 H   0  0  0  0  0  0  0  0  0  0  0  0
    0.2379   -6.4540    1.5547 H   0  0  0  0  0  0  0  0  0  0  0  0
    1.2098   -8.7037    1.5509 H   0  0  0  0  0  0  0  0  0  0  0  0
   -0.4661   -9.2547    4.0058 H   0  0  0  0  0  0  0  0  0  0  0  0
   -0.5837   -9.9648    2.4143 H   0  0  0  0  0  0  0  0  0  0  0  0
    3.8438   -8.7414    4.1951 H   0  0  0  0  0  0  0  0  0  0  0  0
    4.4599  -10.0858    2.0420 H   0  0  0  0  0  0  0  0  0  0  0  0
    4.5117   -8.4518    0.2579 H   0  0  0  0  0  0  0  0  0  0  0  0
    2.2956   -7.0379    0.6077 H   0  0  0  0  0  0  0  0  0  0  0  0
    4.5338   -6.1748   -0.3882 H   0  0  0  0  0  0  0  0  0  0  0  0
    5.3155   -3.7030   -0.4494 H   0  0  0  0  0  0  0  0  0  0  0  0
    2.5608   -1.5365    0.3728 H   0  0  0  0  0  0  0  0  0  0  0  0
    3.4616    0.6622    1.7509 H   0  0  0  0  0  0  0  0  0  0  0  0
    6.5662   -1.9813    2.0334 H   0  0  0  0  0  0  0  0  0  0  0  0
    7.1492   -4.6997    1.7235 H   0  0  0  0  0  0  0  0  0  0  0  0
    6.7771   -5.5598    0.2363 H   0  0  0  0  0  0  0  0  0  0  0  0
    6.5977   -6.3808    1.7759 H   0  0  0  0  0  0  0  0  0  0  0  0
    5.4433   -4.4046    3.4248 H   0  0  0  0  0  0  0  0  0  0  0  0
    3.8302   -4.0197    2.9068 H   0  0  0  0  0  0  0  0  0  0  0  0
    4.8193   -6.8083    3.4787 H   0  0  0  0  0  0  0  0  0  0  0  0
    3.7658   -5.8262    4.4683 H   0  0  0  0  0  0  0  0  0  0  0  0
    2.0744   -5.7711    2.6335 H   0  0  0  0  0  0  0  0  0  0  0  0
    2.4483   -7.2671    5.4452 H   0  0  0  0  0  0  0  0  0  0  0  0
    0.9983   -8.1940    5.2471 H   0  0  0  0  0  0  0  0  0  0  0  0
    1.0206   -6.5100    4.7529 H   0  0  0  0  0  0  0  0  0  0  0  0
  1  2  1  0
  1 28  1  0
  1 29  1  0
  1 30  1  0
  2 26  1  0
  2  3  1  0
  2 31  1  6
  3  4  1  0
  3 32  1  0
  3 33  1  0
  4  5  2  0
  4  6  1  0
  6  7  2  0
  6  8  1  0
  8 26  1  0
  8  9  1  0
  8 34  1  1
  9 10  2  0
  9 35  1  0
 10 11  1  0
 10 36  1  0
 11 25  1  0
 11 12  1  0
 11 37  1  6
 12 21  1  0
 12 13  1  0
 12 38  1  6
 13 14  2  0
 13 15  1  0
 15 16  1  0
 15 21  1  0
 15 39  1  6
 16 20  2  0
 16 17  1  0
 17 18  2  0
 17 40  1  0
 18 19  1  0
 18 41  1  0
 19 20  1  0
 20 42  1  0
 21 22  1  1
 21 23  1  0
 22 43  1  0
 22 44  1  0
 22 45  1  0
 23 24  1  0
 23 46  1  0
 23 47  1  0
 24 25  1  0
 24 48  1  0
 24 49  1  0
 25 26  1  0
 25 50  1  6
 26 27  1  1
 27 51  1  0
 27 52  1  0
 27 53  1  0
M  END
>  <i_m_ct_stereo_status>  (241) 
1

>  <s_m_source_file>  (241) 
/var/tmp/pbs.5076255.sched01/tmpbhhv4xqx/80i1gy0gug.sdf

>  <i_m_source_file_index>  (241) 
34

>  <i_lp_mmshare_version>  (241) 
48012

>  <i_f3d_flags>  (241) 
0

>  <s_epik_input>  (241) 
W0NIM11bQ0BASF0xW0NIMl1DKD1PKUMoPU8pW0NAQEhdKFtDSF09W0NIXTIpW0NAQF0xKFtDSDNdKVtDQEBIXShbQ0gyXVtDSDJdMylbQ0BIXTJbQ0BIXShbQ0BdMzRbQ0gzXSlDKD1PKVtDQEhdNGM1W2NIXVtjSF1vW2NIXTU=

>  <s_epik_cmdline>  (241) 
J2VwaWtfcHl0aG9uJywgJy1waHQnLCAnMi4wJywgJy1waCcsICc3LjAnLCAnLXRuJywgJzgnLCAnLW1hJywgJzIwMCcsICctaW1hZScsICc8aW5maWxlLm1hZT4nLCAnLW9tYWUnLCAnPG91dGZpbGUubWFlPic=

>  <r_lp_tautomer_probability>  (241) 
1

>  <r_epik_Ionization_Penalty>  (241) 
4.12304e-13

>  <r_epik_Ionization_Penalty_Charging>  (241) 
0

>  <r_epik_Ionization_Penalty_Neutral>  (241) 
4.12304e-13

>  <r_epik_State_Penalty>  (241) 
-0

>  <r_epik_Charging_Adjusted_Penalty>  (241) 
0

>  <i_epik_Tot_Q>  (241) 
0

>  <i_epik_Tot_abs_Q>  (241) 
0

>  <s_lp_Force_Field>  (241) 
OPLS3e

>  <r_lp_Energy>  (241) 
29.8189

>  <b_lp_Chiralities_Consistent>  (241) 
1

>  <s_lp_Variant>  (241) 
81:0-1

>  <s_i_glide_gridfile>  (241) 
pfpi4k_grid

>  <i_i_glide_lignum>  (241) 
34

>  <i_i_glide_rotatable_bonds>  (241) 
1

>  <r_i_docking_score>  (241) 
-2.82478

>  <r_i_glide_ligand_efficiency>  (241) 
-0.104621

>  <r_i_glide_ligand_efficiency_sa>  (241) 
-0.313864

>  <r_i_glide_ligand_efficiency_ln>  (241) 
-0.657562

>  <r_i_glide_gscore>  (241) 
-2.82478

>  <r_i_glide_lipo>  (241) 
-0.477198

>  <r_i_glide_hbond>  (241) 
-0.0412026

>  <r_i_glide_metal>  (241) 
-0

>  <r_i_glide_rewards>  (241) 
-1.09347

>  <r_i_glide_evdw>  (241) 
-26.2454

>  <r_i_glide_ecoul>  (241) 
-0.113839

>  <r_i_glide_erotb>  (241) 
0.143333

>  <r_i_glide_esite>  (241) 
-0.0268945

>  <r_i_glide_emodel>  (241) 
-30.634

>  <r_i_glide_energy>  (241) 
-26.3592

>  <r_i_glide_einternal>  (241) 
0.250551

>  <r_i_glide_intrahb_reward>  (241) 
-0

>  <i_i_glide_confnum>  (241) 
5

>  <i_i_glide_posenum>  (241) 
17

>  <r_i_glide_eff_state_penalty>  (241) 
0

>  <ligand_id>  (241) 
81

>  <original_smiles>  (241) 
CC1CC(=O)C(=O)C2C=CC3C4C(=O)C(c5ccoc5)C4(C)CCC3C12C

>  <smiles>  (241) 
[H]C1=C([H])C2([H])C3([H])C(=O)C([H])(c4c([H])oc([H])c4[H])C3(C([H])([H])[H])C([H])([H])C([H])([H])C2([H])C2(C([H])([H])[H])C1([H])C(=O)C(=O)C([H])([H])C2([H])C([H])([H])[H]

$$$$
81:0:1
     RDKit          3D

 53 57  0  0  1  0  0  0  0  0999 V2000
   -0.2034   -7.2837    2.3520 C   0  0  0  0  0  0  0  0  0  0  0  0
    0.8188   -8.3801    2.7072 C   0  0  2  0  0  0  0  0  0  0  0  0
    0.1087   -9.5683    3.3929 C   0  0  0  0  0  0  0  0  0  0  0  0
    1.0510  -10.7004    3.8220 C   0  0  0  0  0  0  0  0  0  0  0  0
    0.6285  -11.8456    3.9727 O   0  0  0  0  0  0  0  0  0  0  0  0
    2.5308  -10.3689    4.0913 C   0  0  0  0  0  0  0  0  0  0  0  0
    3.2551  -11.1566    4.6984 O   0  0  0  0  0  0  0  0  0  0  0  0
    3.1040   -9.0398    3.5892 C   0  0  1  0  0  0  0  0  0  0  0  0
    3.8547   -9.2795    2.2820 C   0  0  0  0  0  0  0  0  0  0  0  0
    3.8676   -8.3965    1.2648 C   0  0  0  0  0  0  0  0  0  0  0  0
    3.1678   -7.0392    1.2874 C   0  0  2  0  0  0  0  0  0  0  0  0
    4.0132   -5.9758    0.5492 C   0  0  1  0  0  0  0  0  0  0  0  0
    3.3473   -4.6389    0.1606 C   0  0  0  0  0  0  0  0  0  0  0  0
    2.2145   -4.2856   -0.1506 O   0  0  0  0  0  0  0  0  0  0  0  0
    4.6953   -3.9176    0.3905 C   0  0  1  0  0  0  0  0  0  0  0  0
    4.6455   -2.4942    0.9178 C   0  0  0  0  0  0  0  0  0  0  0  0
    5.5434   -1.9924    1.8963 C   0  0  0  0  0  0  0  0  0  0  0  0
    5.1865   -0.6890    2.0661 C   0  0  0  0  0  0  0  0  0  0  0  0
    4.1633   -0.3483    1.2195 O   0  0  0  0  0  0  0  0  0  0  0  0
    3.8388   -1.4683    0.5098 C   0  0  0  0  0  0  0  0  0  0  0  0
    5.0316   -5.1166    1.3319 C   0  0  2  0  0  0  0  0  0  0  0  0
    6.4677   -5.6212    1.2393 C   0  0  0  0  0  0  0  0  0  0  0  0
    4.6663   -4.9037    2.8173 C   0  0  0  0  0  0  0  0  0  0  0  0
    4.0742   -6.1472    3.4845 C   0  0  0  0  0  0  0  0  0  0  0  0
    2.8062   -6.6727    2.7540 C   0  0  2  0  0  0  0  0  0  0  0  0
    2.0873   -7.8671    3.4917 C   0  0  1  0  0  0  0  0  0  0  0  0
    1.6643   -7.4170    4.9171 C   0  0  0  0  0  0  0  0  0  0  0  0
   -0.6087   -6.8036    3.2437 H   0  0  0  0  0  0  0  0  0  0  0  0
   -1.0359   -7.7176    1.7930 H   0  0  0  0  0  0  0  0  0  0  0  0
    0.2289   -6.5160    1.7119 H   0  0  0  0  0  0  0  0  0  0  0  0
    1.1514   -8.7862    1.7506 H   0  0  0  0  0  0  0  0  0  0  0  0
   -0.4574   -9.2336    4.2645 H   0  0  0  0  0  0  0  0  0  0  0  0
   -0.6320   -9.9889    2.7080 H   0  0  0  0  0  0  0  0  0  0  0  0
    3.8614   -8.7886    4.3296 H   0  0  0  0  0  0  0  0  0  0  0  0
    4.3869  -10.2177    2.2057 H   0  0  0  0  0  0  0  0  0  0  0  0
    4.4202   -8.6416    0.3668 H   0  0  0  0  0  0  0  0  0  0  0  0
    2.2335   -7.1517    0.7516 H   0  0  0  0  0  0  0  0  0  0  0  0
    4.4815   -6.3818   -0.3453 H   0  0  0  0  0  0  0  0  0  0  0  0
    5.3007   -3.9294   -0.5123 H   0  0  0  0  0  0  0  0  0  0  0  0
    6.3310   -2.5097    2.4244 H   0  0  0  0  0  0  0  0  0  0  0  0
    5.5523    0.0894    2.7119 H   0  0  0  0  0  0  0  0  0  0  0  0
    3.0412   -1.3434   -0.2094 H   0  0  0  0  0  0  0  0  0  0  0  0
    7.1756   -4.9009    1.6500 H   0  0  0  0  0  0  0  0  0  0  0  0
    6.7511   -5.7986    0.1988 H   0  0  0  0  0  0  0  0  0  0  0  0
    6.5913   -6.5667    1.7680 H   0  0  0  0  0  0  0  0  0  0  0  0
    5.5222   -4.5433    3.3886 H   0  0  0  0  0  0  0  0  0  0  0  0
    3.9053   -4.1267    2.8990 H   0  0  0  0  0  0  0  0  0  0  0  0
    4.8522   -6.9109    3.5269 H   0  0  0  0  0  0  0  0  0  0  0  0
    3.8442   -5.8736    4.5114 H   0  0  0  0  0  0  0  0  0  0  0  0
    2.1082   -5.8379    2.7223 H   0  0  0  0  0  0  0  0  0  0  0  0
    2.5246   -7.2537    5.5658 H   0  0  0  0  0  0  0  0  0  0  0  0
    1.0524   -8.1561    5.4344 H   0  0  0  0  0  0  0  0  0  0  0  0
    1.0956   -6.4886    4.8866 H   0  0  0  0  0  0  0  0  0  0  0  0
  1  2  1  0
  1 28  1  0
  1 29  1  0
  1 30  1  0
  2 26  1  0
  2  3  1  0
  2 31  1  6
  3  4  1  0
  3 32  1  0
  3 33  1  0
  4  5  2  0
  4  6  1  0
  6  7  2  0
  6  8  1  0
  8 26  1  0
  8  9  1  0
  8 34  1  1
  9 10  2  0
  9 35  1  0
 10 11  1  0
 10 36  1  0
 11 25  1  0
 11 12  1  0
 11 37  1  6
 12 21  1  0
 12 13  1  0
 12 38  1  6
 13 14  2  0
 13 15  1  0
 15 16  1  0
 15 21  1  0
 15 39  1  6
 16 20  2  0
 16 17  1  0
 17 18  2  0
 17 40  1  0
 18 19  1  0
 18 41  1  0
 19 20  1  0
 20 42  1  0
 21 22  1  1
 21 23  1  0
 22 43  1  0
 22 44  1  0
 22 45  1  0
 23 24  1  0
 23 46  1  0
 23 47  1  0
 24 25  1  0
 24 48  1  0
 24 49  1  0
 25 26  1  0
 25 50  1  6
 26 27  1  1
 27 51  1  0
 27 52  1  0
 27 53  1  0
M  END
>  <i_m_ct_stereo_status>  (242) 
1

>  <s_m_source_file>  (242) 
/var/tmp/pbs.5076255.sched01/tmpbhhv4xqx/80i1gy0gug.sdf

>  <i_m_source_file_index>  (242) 
34

>  <i_lp_mmshare_version>  (242) 
48012

>  <i_f3d_flags>  (242) 
0

>  <s_epik_input>  (242) 
W0NIM11bQ0BASF0xW0NIMl1DKD1PKUMoPU8pW0NAQEhdKFtDSF09W0NIXTIpW0NAQF0xKFtDSDNdKVtDQEBIXShbQ0gyXVtDSDJdMylbQ0BIXTJbQ0BIXShbQ0BdMzRbQ0gzXSlDKD1PKVtDQEhdNGM1W2NIXVtjSF1vW2NIXTU=

>  <s_epik_cmdline>  (242) 
J2VwaWtfcHl0aG9uJywgJy1waHQnLCAnMi4wJywgJy1waCcsICc3LjAnLCAnLXRuJywgJzgnLCAnLW1hJywgJzIwMCcsICctaW1hZScsICc8aW5maWxlLm1hZT4nLCAnLW9tYWUnLCAnPG91dGZpbGUubWFlPic=

>  <r_lp_tautomer_probability>  (242) 
1

>  <r_epik_Ionization_Penalty>  (242) 
4.12304e-13

>  <r_epik_Ionization_Penalty_Charging>  (242) 
0

>  <r_epik_Ionization_Penalty_Neutral>  (242) 
4.12304e-13

>  <r_epik_State_Penalty>  (242) 
-0

>  <r_epik_Charging_Adjusted_Penalty>  (242) 
0

>  <i_epik_Tot_Q>  (242) 
0

>  <i_epik_Tot_abs_Q>  (242) 
0

>  <s_lp_Force_Field>  (242) 
OPLS3e

>  <r_lp_Energy>  (242) 
29.8189

>  <b_lp_Chiralities_Consistent>  (242) 
1

>  <s_lp_Variant>  (242) 
81:0-1

>  <s_i_glide_gridfile>  (242) 
pfpi4k_grid

>  <i_i_glide_lignum>  (242) 
34

>  <i_i_glide_rotatable_bonds>  (242) 
1

>  <r_i_docking_score>  (242) 
-2.70201

>  <r_i_glide_ligand_efficiency>  (242) 
-0.100075

>  <r_i_glide_ligand_efficiency_sa>  (242) 
-0.300224

>  <r_i_glide_ligand_efficiency_ln>  (242) 
-0.628984

>  <r_i_glide_gscore>  (242) 
-2.70201

>  <r_i_glide_lipo>  (242) 
-0.548378

>  <r_i_glide_hbond>  (242) 
0

>  <r_i_glide_metal>  (242) 
-0

>  <r_i_glide_rewards>  (242) 
-1.02071

>  <r_i_glide_evdw>  (242) 
-26.5771

>  <r_i_glide_ecoul>  (242) 
0.564504

>  <r_i_glide_erotb>  (242) 
0.143333

>  <r_i_glide_esite>  (242) 
-0.0320752

>  <r_i_glide_emodel>  (242) 
-29.9127

>  <r_i_glide_energy>  (242) 
-26.0126

>  <r_i_glide_einternal>  (242) 
0.212134

>  <r_i_glide_intrahb_reward>  (242) 
-0

>  <i_i_glide_confnum>  (242) 
5

>  <i_i_glide_posenum>  (242) 
9

>  <r_i_glide_eff_state_penalty>  (242) 
0

>  <ligand_id>  (242) 
81

>  <original_smiles>  (242) 
CC1CC(=O)C(=O)C2C=CC3C4C(=O)C(c5ccoc5)C4(C)CCC3C12C

>  <smiles>  (242) 
[H]C1=C([H])C2([H])C3([H])C(=O)C([H])(c4c([H])oc([H])c4[H])C3(C([H])([H])[H])C([H])([H])C([H])([H])C2([H])C2(C([H])([H])[H])C1([H])C(=O)C(=O)C([H])([H])C2([H])C([H])([H])[H]

$$$$
81:0:2
     RDKit          3D

 53 57  0  0  1  0  0  0  0  0999 V2000
    1.4904   -9.1214    2.5870 C   0  0  0  0  0  0  0  0  0  0  0  0
    1.4599   -8.5773    4.0300 C   0  0  2  0  0  0  0  0  0  0  0  0
    0.5546   -9.4716    4.9059 C   0  0  0  0  0  0  0  0  0  0  0  0
    0.3914   -8.9919    6.3503 C   0  0  0  0  0  0  0  0  0  0  0  0
   -0.0034   -9.7541    7.2313 O   0  0  0  0  0  0  0  0  0  0  0  0
    0.6422   -7.5040    6.6691 C   0  0  0  0  0  0  0  0  0  0  0  0
    0.2631   -7.0236    7.7422 O   0  0  0  0  0  0  0  0  0  0  0  0
    1.3392   -6.6120    5.6290 C   0  0  1  0  0  0  0  0  0  0  0  0
    2.8141   -6.4462    5.9897 C   0  0  0  0  0  0  0  0  0  0  0  0
    3.8075   -6.3873    5.0792 C   0  0  0  0  0  0  0  0  0  0  0  0
    3.5924   -6.4418    3.5679 C   0  0  2  0  0  0  0  0  0  0  0  0
    4.5771   -5.4986    2.8387 C   0  0  1  0  0  0  0  0  0  0  0  0
    4.7599   -5.6509    1.3090 C   0  0  0  0  0  0  0  0  0  0  0  0
    4.6926   -6.5812    0.5058 O   0  0  0  0  0  0  0  0  0  0  0  0
    4.9821   -4.1153    1.2173 C   0  0  1  0  0  0  0  0  0  0  0  0
    4.5107   -3.4269   -0.0553 C   0  0  0  0  0  0  0  0  0  0  0  0
    4.6420   -3.8993   -1.3854 C   0  0  0  0  0  0  0  0  0  0  0  0
    4.0877   -2.9156   -2.1573 C   0  0  0  0  0  0  0  0  0  0  0  0
    3.6752   -1.8653   -1.3946 O   0  0  0  0  0  0  0  0  0  0  0  0
    3.9403   -2.1875   -0.1015 C   0  0  0  0  0  0  0  0  0  0  0  0
    4.1734   -4.0305    2.5471 C   0  0  2  0  0  0  0  0  0  0  0  0
    4.7175   -3.0240    3.5575 C   0  0  0  0  0  0  0  0  0  0  0  0
    2.6584   -3.8109    2.3637 C   0  0  0  0  0  0  0  0  0  0  0  0
    1.8135   -4.6276    3.3449 C   0  0  0  0  0  0  0  0  0  0  0  0
    2.0912   -6.1616    3.2512 C   0  0  2  0  0  0  0  0  0  0  0  0
    1.1342   -7.0421    4.1462 C   0  0  1  0  0  0  0  0  0  0  0  0
   -0.3396   -6.7957    3.7301 C   0  0  0  0  0  0  0  0  0  0  0  0
    0.5289   -9.0113    2.0818 H   0  0  0  0  0  0  0  0  0  0  0  0
    1.7395  -10.1860    2.5911 H   0  0  0  0  0  0  0  0  0  0  0  0
    2.2526   -8.6335    1.9779 H   0  0  0  0  0  0  0  0  0  0  0  0
    2.4630   -8.7425    4.4267 H   0  0  0  0  0  0  0  0  0  0  0  0
   -0.4430   -9.5496    4.4762 H   0  0  0  0  0  0  0  0  0  0  0  0
    0.9537  -10.4875    4.9297 H   0  0  0  0  0  0  0  0  0  0  0  0
    0.8906   -5.6298    5.7715 H   0  0  0  0  0  0  0  0  0  0  0  0
    3.0392   -6.3704    7.0426 H   0  0  0  0  0  0  0  0  0  0  0  0
    4.8296   -6.2756    5.4154 H   0  0  0  0  0  0  0  0  0  0  0  0
    3.8375   -7.4603    3.2756 H   0  0  0  0  0  0  0  0  0  0  0  0
    5.5665   -5.5315    3.2937 H   0  0  0  0  0  0  0  0  0  0  0  0
    6.0329   -3.8692    1.3668 H   0  0  0  0  0  0  0  0  0  0  0  0
    5.0469   -4.8344   -1.7437 H   0  0  0  0  0  0  0  0  0  0  0  0
    3.9115   -2.8026   -3.2090 H   0  0  0  0  0  0  0  0  0  0  0  0
    3.6551   -1.4469    0.6302 H   0  0  0  0  0  0  0  0  0  0  0  0
    4.5745   -2.0006    3.2158 H   0  0  0  0  0  0  0  0  0  0  0  0
    5.7880   -3.1662    3.7100 H   0  0  0  0  0  0  0  0  0  0  0  0
    4.2367   -3.1362    4.5266 H   0  0  0  0  0  0  0  0  0  0  0  0
    2.4036   -2.7526    2.4203 H   0  0  0  0  0  0  0  0  0  0  0  0
    2.3580   -4.1313    1.3644 H   0  0  0  0  0  0  0  0  0  0  0  0
    2.0050   -4.2519    4.3518 H   0  0  0  0  0  0  0  0  0  0  0  0
    0.7720   -4.4044    3.1261 H   0  0  0  0  0  0  0  0  0  0  0  0
    1.9170   -6.4351    2.2095 H   0  0  0  0  0  0  0  0  0  0  0  0
   -0.6620   -5.7971    4.0145 H   0  0  0  0  0  0  0  0  0  0  0  0
   -1.0442   -7.4691    4.2162 H   0  0  0  0  0  0  0  0  0  0  0  0
   -0.4749   -6.9132    2.6551 H   0  0  0  0  0  0  0  0  0  0  0  0
  1  2  1  0
  1 28  1  0
  1 29  1  0
  1 30  1  0
  2 26  1  0
  2  3  1  0
  2 31  1  1
  3  4  1  0
  3 32  1  0
  3 33  1  0
  4  5  2  0
  4  6  1  0
  6  7  2  0
  6  8  1  0
  8 26  1  0
  8  9  1  0
  8 34  1  6
  9 10  2  0
  9 35  1  0
 10 11  1  0
 10 36  1  0
 11 25  1  0
 11 12  1  0
 11 37  1  6
 12 21  1  0
 12 13  1  0
 12 38  1  1
 13 14  2  0
 13 15  1  0
 15 16  1  0
 15 21  1  0
 15 39  1  1
 16 20  2  0
 16 17  1  0
 17 18  2  0
 17 40  1  0
 18 19  1  0
 18 41  1  0
 19 20  1  0
 20 42  1  0
 21 22  1  1
 21 23  1  0
 22 43  1  0
 22 44  1  0
 22 45  1  0
 23 24  1  0
 23 46  1  0
 23 47  1  0
 24 25  1  0
 24 48  1  0
 24 49  1  0
 25 26  1  0
 25 50  1  6
 26 27  1  6
 27 51  1  0
 27 52  1  0
 27 53  1  0
M  END
>  <i_m_ct_stereo_status>  (243) 
1

>  <s_m_source_file>  (243) 
/var/tmp/pbs.5076255.sched01/tmpbhhv4xqx/80i1gy0gug.sdf

>  <i_m_source_file_index>  (243) 
34

>  <i_lp_mmshare_version>  (243) 
48012

>  <i_f3d_flags>  (243) 
0

>  <s_epik_input>  (243) 
W0NIM11bQ0BASF0xW0NIMl1DKD1PKUMoPU8pW0NAQEhdKFtDSF09W0NIXTIpW0NAQF0xKFtDSDNdKVtDQEBIXShbQ0gyXVtDSDJdMylbQ0BIXTJbQ0BIXShbQ0BdMzRbQ0gzXSlDKD1PKVtDQEhdNGM1W2NIXVtjSF1vW2NIXTU=

>  <s_epik_cmdline>  (243) 
J2VwaWtfcHl0aG9uJywgJy1waHQnLCAnMi4wJywgJy1waCcsICc3LjAnLCAnLXRuJywgJzgnLCAnLW1hJywgJzIwMCcsICctaW1hZScsICc8aW5maWxlLm1hZT4nLCAnLW9tYWUnLCAnPG91dGZpbGUubWFlPic=

>  <r_lp_tautomer_probability>  (243) 
1

>  <r_epik_Ionization_Penalty>  (243) 
4.12304e-13

>  <r_epik_Ionization_Penalty_Charging>  (243) 
0

>  <r_epik_Ionization_Penalty_Neutral>  (243) 
4.12304e-13

>  <r_epik_State_Penalty>  (243) 
-0

>  <r_epik_Charging_Adjusted_Penalty>  (243) 
0

>  <i_epik_Tot_Q>  (243) 
0

>  <i_epik_Tot_abs_Q>  (243) 
0

>  <s_lp_Force_Field>  (243) 
OPLS3e

>  <r_lp_Energy>  (243) 
29.8189

>  <b_lp_Chiralities_Consistent>  (243) 
1

>  <s_lp_Variant>  (243) 
81:0-1

>  <s_i_glide_gridfile>  (243) 
pfpi4k_grid

>  <i_i_glide_lignum>  (243) 
34

>  <i_i_glide_rotatable_bonds>  (243) 
1

>  <r_i_docking_score>  (243) 
-2.28801

>  <r_i_glide_ligand_efficiency>  (243) 
-0.0847411

>  <r_i_glide_ligand_efficiency_sa>  (243) 
-0.254223

>  <r_i_glide_ligand_efficiency_ln>  (243) 
-0.532611

>  <r_i_glide_gscore>  (243) 
-2.28801

>  <r_i_glide_lipo>  (243) 
-0.130385

>  <r_i_glide_hbond>  (243) 
0

>  <r_i_glide_metal>  (243) 
-0

>  <r_i_glide_rewards>  (243) 
-0.984254

>  <r_i_glide_evdw>  (243) 
-22.4636

>  <r_i_glide_ecoul>  (243) 
-0.852743

>  <r_i_glide_erotb>  (243) 
0.143333

>  <r_i_glide_esite>  (243) 
-0.0656092

>  <r_i_glide_emodel>  (243) 
-26.6482

>  <r_i_glide_energy>  (243) 
-23.3164

>  <r_i_glide_einternal>  (243) 
0.194904

>  <r_i_glide_intrahb_reward>  (243) 
-0

>  <i_i_glide_confnum>  (243) 
5

>  <i_i_glide_posenum>  (243) 
21

>  <r_i_glide_eff_state_penalty>  (243) 
0

>  <ligand_id>  (243) 
81

>  <original_smiles>  (243) 
CC1CC(=O)C(=O)C2C=CC3C4C(=O)C(c5ccoc5)C4(C)CCC3C12C

>  <smiles>  (243) 
[H]C1=C([H])C2([H])C3([H])C(=O)C([H])(c4c([H])oc([H])c4[H])C3(C([H])([H])[H])C([H])([H])C([H])([H])C2([H])C2(C([H])([H])[H])C1([H])C(=O)C(=O)C([H])([H])C2([H])C([H])([H])[H]

$$$$
82:0:0
     RDKit          3D

 48 52  0  0  1  0  0  0  0  0999 V2000
    2.5157    4.3369    2.4764 C   0  0  0  0  0  0  0  0  0  0  0  0
    1.5029    3.6126    3.2670 N   0  0  2  0  0  0  0  0  0  0  0  0
    1.9235    3.4651    4.6916 C   0  0  0  0  0  0  0  0  0  0  0  0
    2.6953    2.1560    5.0068 C   0  0  0  0  0  0  0  0  0  0  0  0
    2.0978    0.9224    4.3186 C   0  0  2  0  0  0  0  0  0  0  0  0
    2.6947   -0.4788    4.5038 C   0  0  2  0  0  0  0  0  0  0  0  0
    2.4311   -1.0626    3.1241 C   0  0  0  0  0  0  0  0  0  0  0  0
    2.0275   -0.1308    2.2423 C   0  0  0  0  0  0  0  0  0  0  0  0
    2.0593    1.2512    2.8543 C   0  0  1  0  0  0  0  0  0  0  0  0
    1.0049    2.3615    2.6073 C   0  0  1  0  0  0  0  0  0  0  0  0
   -0.4967    2.0918    2.9652 C   0  0  0  0  0  0  0  0  0  0  0  0
   -0.8957    2.1078    4.4412 C   0  0  0  0  0  0  0  0  0  0  0  0
   -1.9009    2.9769    4.8760 C   0  0  0  0  0  0  0  0  0  0  0  0
   -2.2756    3.0135    6.2241 C   0  0  0  0  0  0  0  0  0  0  0  0
   -1.6144    2.2093    7.1925 C   0  0  0  0  0  0  0  0  0  0  0  0
   -1.8956    2.2911    8.5349 O   0  0  0  0  0  0  0  0  0  0  0  0
   -2.7696    3.6192    9.1320 S   0  0  0  0  0  0  0  0  0  0  0  0
   -2.3548    3.5004   10.8878 C   0  0  0  0  0  0  0  0  0  0  0  0
   -2.1666    4.8523    8.6153 O   0  0  0  0  0  0  0  0  0  0  0  0
   -4.1967    3.3288    8.9397 O   0  0  0  0  0  0  0  0  0  0  0  0
   -0.6197    1.3083    6.7584 C   0  0  0  0  0  0  0  0  0  0  0  0
   -0.2691    1.2489    5.3996 C   0  0  0  0  0  0  0  0  0  0  0  0
    0.7787    0.3183    4.8683 C   0  0  2  0  0  0  0  0  0  0  0  0
    1.6443   -0.7026    5.6094 C   0  0  0  0  0  0  0  0  0  0  0  0
    3.4593    3.8045    2.4864 H   0  0  0  0  0  0  0  0  0  0  0  0
    2.6933    5.3348    2.8752 H   0  0  0  0  0  0  0  0  0  0  0  0
    2.2133    4.4493    1.4347 H   0  0  0  0  0  0  0  0  0  0  0  0
    2.5508    4.3079    4.9837 H   0  0  0  0  0  0  0  0  0  0  0  0
    1.0584    3.5497    5.3399 H   0  0  0  0  0  0  0  0  0  0  0  0
    3.7455    2.2685    4.7207 H   0  0  0  0  0  0  0  0  0  0  0  0
    2.6965    2.0110    6.0874 H   0  0  0  0  0  0  0  0  0  0  0  0
    3.7415   -0.4821    4.8105 H   0  0  0  0  0  0  0  0  0  0  0  0
    2.5574   -2.1101    2.8895 H   0  0  0  0  0  0  0  0  0  0  0  0
    1.8107   -0.3197    1.1992 H   0  0  0  0  0  0  0  0  0  0  0  0
    3.0241    1.6266    2.5068 H   0  0  0  0  0  0  0  0  0  0  0  0
    1.0101    2.5294    1.5319 H   0  0  0  0  0  0  0  0  0  0  0  0
   -1.0880    2.8721    2.4744 H   0  0  0  0  0  0  0  0  0  0  0  0
   -0.8404    1.1636    2.5142 H   0  0  0  0  0  0  0  0  0  0  0  0
   -2.4128    3.6418    4.1889 H   0  0  0  0  0  0  0  0  0  0  0  0
   -3.0610    3.6982    6.4749 H   0  0  0  0  0  0  0  0  0  0  0  0
   -2.8619    4.3017   11.4253 H   0  0  0  0  0  0  0  0  0  0  0  0
   -1.2803    3.6016   10.9970 H   0  0  0  0  0  0  0  0  0  0  0  0
   -2.6850    2.5410   11.2764 H   0  0  0  0  0  0  0  0  0  0  0  0
   -0.1047    0.6727    7.4750 H   0  0  0  0  0  0  0  0  0  0  0  0
    0.2243   -0.2453    4.1171 H   0  0  0  0  0  0  0  0  0  0  0  0
    1.2326   -1.7109    5.6655 H   0  0  0  0  0  0  0  0  0  0  0  0
    1.9970   -0.3346    6.5707 H   0  0  0  0  0  0  0  0  0  0  0  0
    0.7028    4.2411    3.2377 H   0  0  0  0  0  0  0  0  0  0  0  0
  1  2  1  0
  1 25  1  0
  1 26  1  0
  1 27  1  0
  2 10  1  0
  2  3  1  0
  2 48  1  1
  3  4  1  0
  3 28  1  0
  3 29  1  0
  5  4  1  1
  4 30  1  0
  4 31  1  0
  5  9  1  0
  5 23  1  0
  5  6  1  0
  6 24  1  0
  6  7  1  0
  6 32  1  1
  7  8  2  0
  7 33  1  0
  8  9  1  0
  8 34  1  0
  9 10  1  0
  9 35  1  6
 10 11  1  0
 10 36  1  6
 11 12  1  0
 11 37  1  0
 11 38  1  0
 12 22  2  0
 12 13  1  0
 13 14  2  0
 13 39  1  0
 14 15  1  0
 14 40  1  0
 15 16  1  0
 15 21  2  0
 16 17  1  0
 17 18  1  0
 17 19  2  0
 17 20  2  0
 18 41  1  0
 18 42  1  0
 18 43  1  0
 21 22  1  0
 21 44  1  0
 22 23  1  0
 23 24  1  0
 23 45  1  6
 24 46  1  0
 24 47  1  0
M  CHG  1   2   1
M  END
>  <i_m_ct_stereo_status>  (244) 
1

>  <s_m_source_file>  (244) 
/var/tmp/pbs.5076255.sched01/tmpbhhv4xqx/80i1gy0gug.sdf

>  <i_m_source_file_index>  (244) 
35

>  <i_lp_mmshare_version>  (244) 
48012

>  <i_f3d_flags>  (244) 
0

>  <s_epik_input>  (244) 
W0NAXTEyM1tDQEBIXTRbQ0hdPVtDSF1bQ0BIXTJbQ0BIXShOKFtDSDNdKVtDSDJdW0NIMl0xKVtDSDJdYzVjKFtDQEBIXTNbQ0gyXTQpW2NIXWMoW2NIXVtjSF01KU9TKD1PKSg9TylbQ0gzXQ==

>  <s_epik_cmdline>  (244) 
J2VwaWtfcHl0aG9uJywgJy1waHQnLCAnMi4wJywgJy1waCcsICc3LjAnLCAnLXRuJywgJzgnLCAnLW1hJywgJzIwMCcsICctaW1hZScsICc8aW5maWxlLm1hZT4nLCAnLW9tYWUnLCAnPG91dGZpbGUubWFlPic=

>  <r_epik_Ionization_Penalty>  (244) 
0.00445721

>  <r_epik_Ionization_Penalty_Charging>  (244) 
0.00445721

>  <r_epik_Ionization_Penalty_Neutral>  (244) 
0

>  <r_epik_State_Penalty>  (244) 
0.00321496

>  <r_epik_Charging_Adjusted_Penalty>  (244) 
0.00767217

>  <i_epik_Tot_Q>  (244) 
1

>  <i_epik_Tot_abs_Q>  (244) 
1

>  <s_lp_Force_Field>  (244) 
OPLS3e

>  <r_lp_Energy>  (244) 
56.1438

>  <b_lp_Chiralities_Consistent>  (244) 
1

>  <s_lp_Variant>  (244) 
82:0-1

>  <s_i_glide_gridfile>  (244) 
pfpi4k_grid

>  <i_i_glide_lignum>  (244) 
35

>  <i_i_glide_rotatable_bonds>  (244) 
2

>  <r_i_docking_score>  (244) 
-3.27869

>  <r_i_glide_ligand_efficiency>  (244) 
-0.136612

>  <r_i_glide_ligand_efficiency_sa>  (244) 
-0.394057

>  <r_i_glide_ligand_efficiency_ln>  (244) 
-0.78474

>  <r_i_glide_gscore>  (244) 
-3.27869

>  <r_i_glide_lipo>  (244) 
-0.0958882

>  <r_i_glide_hbond>  (244) 
0

>  <r_i_glide_metal>  (244) 
-0

>  <r_i_glide_rewards>  (244) 
-1.04683

>  <r_i_glide_evdw>  (244) 
-23.8636

>  <r_i_glide_ecoul>  (244) 
-6.73284

>  <r_i_glide_erotb>  (244) 
0.158387

>  <r_i_glide_esite>  (244) 
-0.0912463

>  <r_i_glide_emodel>  (244) 
-35.1397

>  <r_i_glide_energy>  (244) 
-30.5965

>  <r_i_glide_einternal>  (244) 
6.41025

>  <r_i_glide_intrahb_reward>  (244) 
-0

>  <i_i_glide_confnum>  (244) 
4

>  <i_i_glide_posenum>  (244) 
3

>  <r_i_glide_eff_state_penalty>  (244) 
0

>  <ligand_id>  (244) 
82

>  <original_smiles>  (244) 
CN1CCC23C4C=CC2C1Cc1ccc(OS(C)(=O)=O)cc1C3C4

>  <smiles>  (244) 
[H]C1=C([H])C2([H])C34C([H])([H])C([H])([H])[N+]([H])(C([H])([H])[H])C2([H])C([H])([H])c2c([H])c([H])c(OS(=O)(=O)C([H])([H])[H])c([H])c2C3([H])C([H])([H])C14[H]

$$$$
82:0:1
     RDKit          3D

 48 52  0  0  1  0  0  0  0  0999 V2000
    2.5533    4.3128    2.6097 C   0  0  0  0  0  0  0  0  0  0  0  0
    1.4441    3.5772    3.2586 N   0  0  2  0  0  0  0  0  0  0  0  0
    1.6933    3.3990    4.7265 C   0  0  0  0  0  0  0  0  0  0  0  0
    2.4199    2.0796    5.1046 C   0  0  0  0  0  0  0  0  0  0  0  0
    1.9140    0.8620    4.3158 C   0  0  2  0  0  0  0  0  0  0  0  0
    2.4861   -0.5412    4.5470 C   0  0  2  0  0  0  0  0  0  0  0  0
    2.3960   -1.0993    3.1321 C   0  0  0  0  0  0  0  0  0  0  0  0
    2.1026   -0.1503    2.2240 C   0  0  0  0  0  0  0  0  0  0  0  0
    2.0527    1.2222    2.8640 C   0  0  1  0  0  0  0  0  0  0  0  0
    1.0290    2.3368    2.5175 C   0  0  1  0  0  0  0  0  0  0  0  0
   -0.5081    2.0684    2.6935 C   0  0  0  0  0  0  0  0  0  0  0  0
   -1.0784    2.0535    4.1204 C   0  0  0  0  0  0  0  0  0  0  0  0
   -2.1248    2.9357    4.4699 C   0  0  0  0  0  0  0  0  0  0  0  0
   -2.6144    2.9524    5.7853 C   0  0  0  0  0  0  0  0  0  0  0  0
   -2.0848    2.0942    6.7697 C   0  0  0  0  0  0  0  0  0  0  0  0
   -2.5873    2.1130    8.0388 O   0  0  0  0  0  0  0  0  0  0  0  0
   -2.0976    3.3830    9.0335 S   0  0  0  0  0  0  0  0  0  0  0  0
   -3.1633    3.0456   10.4798 C   0  0  0  0  0  0  0  0  0  0  0  0
   -0.6892    3.1535    9.3830 O   0  0  0  0  0  0  0  0  0  0  0  0
   -2.5381    4.6428    8.4156 O   0  0  0  0  0  0  0  0  0  0  0  0
   -1.0606    1.1951    6.4293 C   0  0  0  0  0  0  0  0  0  0  0  0
   -0.5662    1.1774    5.1111 C   0  0  0  0  0  0  0  0  0  0  0  0
    0.5359    0.2501    4.6880 C   0  0  2  0  0  0  0  0  0  0  0  0
    1.3071   -0.7853    5.5088 C   0  0  0  0  0  0  0  0  0  0  0  0
    3.4950    3.7807    2.7309 H   0  0  0  0  0  0  0  0  0  0  0  0
    2.6746    5.3018    3.0536 H   0  0  0  0  0  0  0  0  0  0  0  0
    2.3548    4.4509    1.5504 H   0  0  0  0  0  0  0  0  0  0  0  0
    2.2789    4.2347    5.1079 H   0  0  0  0  0  0  0  0  0  0  0  0
    0.7522    3.4712    5.2626 H   0  0  0  0  0  0  0  0  0  0  0  0
    3.4975    2.1965    4.9527 H   0  0  0  0  0  0  0  0  0  0  0  0
    2.2886    1.9089    6.1743 H   0  0  0  0  0  0  0  0  0  0  0  0
    3.4874   -0.5548    4.9788 H   0  0  0  0  0  0  0  0  0  0  0  0
    2.5518   -2.1418    2.9028 H   0  0  0  0  0  0  0  0  0  0  0  0
    2.0152   -0.3161    1.1579 H   0  0  0  0  0  0  0  0  0  0  0  0
    3.0536    1.6048    2.6483 H   0  0  0  0  0  0  0  0  0  0  0  0
    1.1553    2.5298    1.4533 H   0  0  0  0  0  0  0  0  0  0  0  0
   -1.0358    2.8538    2.1493 H   0  0  0  0  0  0  0  0  0  0  0  0
   -0.7893    1.1476    2.1823 H   0  0  0  0  0  0  0  0  0  0  0  0
   -2.5594    3.5972    3.7332 H   0  0  0  0  0  0  0  0  0  0  0  0
   -3.4167    3.6202    6.0473 H   0  0  0  0  0  0  0  0  0  0  0  0
   -2.9784    3.7896   11.2606 H   0  0  0  0  0  0  0  0  0  0  0  0
   -2.9236    2.0631   10.8846 H   0  0  0  0  0  0  0  0  0  0  0  0
   -4.2062    3.0826   10.1786 H   0  0  0  0  0  0  0  0  0  0  0  0
   -0.6453    0.5352    7.1753 H   0  0  0  0  0  0  0  0  0  0  0  0
    0.0810   -0.3003    3.8621 H   0  0  0  0  0  0  0  0  0  0  0  0
    0.8955   -1.7937    5.4965 H   0  0  0  0  0  0  0  0  0  0  0  0
    1.5376   -0.4416    6.5160 H   0  0  0  0  0  0  0  0  0  0  0  0
    0.6554    4.2019    3.1487 H   0  0  0  0  0  0  0  0  0  0  0  0
  1  2  1  0
  1 25  1  0
  1 26  1  0
  1 27  1  0
  2 10  1  0
  2  3  1  0
  2 48  1  1
  3  4  1  0
  3 28  1  0
  3 29  1  0
  5  4  1  1
  4 30  1  0
  4 31  1  0
  5  9  1  0
  5 23  1  0
  5  6  1  0
  6 24  1  0
  6  7  1  0
  6 32  1  1
  7  8  2  0
  7 33  1  0
  8  9  1  0
  8 34  1  0
  9 10  1  0
  9 35  1  1
 10 11  1  0
 10 36  1  6
 11 12  1  0
 11 37  1  0
 11 38  1  0
 12 22  2  0
 12 13  1  0
 13 14  2  0
 13 39  1  0
 14 15  1  0
 14 40  1  0
 15 16  1  0
 15 21  2  0
 16 17  1  0
 17 18  1  0
 17 19  2  0
 17 20  2  0
 18 41  1  0
 18 42  1  0
 18 43  1  0
 21 22  1  0
 21 44  1  0
 22 23  1  0
 23 24  1  0
 23 45  1  6
 24 46  1  0
 24 47  1  0
M  CHG  1   2   1
M  END
>  <i_m_ct_stereo_status>  (245) 
1

>  <s_m_source_file>  (245) 
/var/tmp/pbs.5076255.sched01/tmpbhhv4xqx/80i1gy0gug.sdf

>  <i_m_source_file_index>  (245) 
35

>  <i_lp_mmshare_version>  (245) 
48012

>  <i_f3d_flags>  (245) 
0

>  <s_epik_input>  (245) 
W0NAXTEyM1tDQEBIXTRbQ0hdPVtDSF1bQ0BIXTJbQ0BIXShOKFtDSDNdKVtDSDJdW0NIMl0xKVtDSDJdYzVjKFtDQEBIXTNbQ0gyXTQpW2NIXWMoW2NIXVtjSF01KU9TKD1PKSg9TylbQ0gzXQ==

>  <s_epik_cmdline>  (245) 
J2VwaWtfcHl0aG9uJywgJy1waHQnLCAnMi4wJywgJy1waCcsICc3LjAnLCAnLXRuJywgJzgnLCAnLW1hJywgJzIwMCcsICctaW1hZScsICc8aW5maWxlLm1hZT4nLCAnLW9tYWUnLCAnPG91dGZpbGUubWFlPic=

>  <r_epik_Ionization_Penalty>  (245) 
0.00445721

>  <r_epik_Ionization_Penalty_Charging>  (245) 
0.00445721

>  <r_epik_Ionization_Penalty_Neutral>  (245) 
0

>  <r_epik_State_Penalty>  (245) 
0.00321496

>  <r_epik_Charging_Adjusted_Penalty>  (245) 
0.00767217

>  <i_epik_Tot_Q>  (245) 
1

>  <i_epik_Tot_abs_Q>  (245) 
1

>  <s_lp_Force_Field>  (245) 
OPLS3e

>  <r_lp_Energy>  (245) 
56.1438

>  <b_lp_Chiralities_Consistent>  (245) 
1

>  <s_lp_Variant>  (245) 
82:0-1

>  <s_i_glide_gridfile>  (245) 
pfpi4k_grid

>  <i_i_glide_lignum>  (245) 
35

>  <i_i_glide_rotatable_bonds>  (245) 
2

>  <r_i_docking_score>  (245) 
-3.12147

>  <r_i_glide_ligand_efficiency>  (245) 
-0.130061

>  <r_i_glide_ligand_efficiency_sa>  (245) 
-0.375162

>  <r_i_glide_ligand_efficiency_ln>  (245) 
-0.747111

>  <r_i_glide_gscore>  (245) 
-3.12147

>  <r_i_glide_lipo>  (245) 
-0.0503065

>  <r_i_glide_hbond>  (245) 
0

>  <r_i_glide_metal>  (245) 
-0

>  <r_i_glide_rewards>  (245) 
-1.04683

>  <r_i_glide_evdw>  (245) 
-23.1077

>  <r_i_glide_ecoul>  (245) 
-6.17396

>  <r_i_glide_erotb>  (245) 
0.158387

>  <r_i_glide_esite>  (245) 
-0.101244

>  <r_i_glide_emodel>  (245) 
-36.7064

>  <r_i_glide_energy>  (245) 
-29.2816

>  <r_i_glide_einternal>  (245) 
0.198439

>  <r_i_glide_intrahb_reward>  (245) 
-0

>  <i_i_glide_confnum>  (245) 
4

>  <i_i_glide_posenum>  (245) 
8

>  <r_i_glide_eff_state_penalty>  (245) 
0

>  <ligand_id>  (245) 
82

>  <original_smiles>  (245) 
CN1CCC23C4C=CC2C1Cc1ccc(OS(C)(=O)=O)cc1C3C4

>  <smiles>  (245) 
[H]C1=C([H])C2([H])C34C([H])([H])C([H])([H])[N+]([H])(C([H])([H])[H])C2([H])C([H])([H])c2c([H])c([H])c(OS(=O)(=O)C([H])([H])[H])c([H])c2C3([H])C([H])([H])C14[H]

$$$$
82:0:2
     RDKit          3D

 48 52  0  0  1  0  0  0  0  0999 V2000
    2.1336    0.9804    1.7153 C   0  0  0  0  0  0  0  0  0  0  0  0
    1.2139    1.1152    2.8680 N   0  0  2  0  0  0  0  0  0  0  0  0
    1.9112    1.7159    4.0538 C   0  0  0  0  0  0  0  0  0  0  0  0
    2.5541    0.6884    5.0249 C   0  0  0  0  0  0  0  0  0  0  0  0
    1.6749   -0.5466    5.2687 C   0  0  2  0  0  0  0  0  0  0  0  0
    2.1180   -1.6766    6.2048 C   0  0  2  0  0  0  0  0  0  0  0  0
    1.5032   -2.8716    5.4853 C   0  0  0  0  0  0  0  0  0  0  0  0
    1.0455   -2.5521    4.2609 C   0  0  0  0  0  0  0  0  0  0  0  0
    1.3731   -1.1140    3.9106 C   0  0  1  0  0  0  0  0  0  0  0  0
    0.4345   -0.1378    3.1477 C   0  0  1  0  0  0  0  0  0  0  0  0
   -0.9797    0.2062    3.7372 C   0  0  0  0  0  0  0  0  0  0  0  0
   -1.0491    1.1534    4.9449 C   0  0  0  0  0  0  0  0  0  0  0  0
   -1.8106    2.3410    4.8659 C   0  0  0  0  0  0  0  0  0  0  0  0
   -1.8556    3.2264    5.9532 C   0  0  0  0  0  0  0  0  0  0  0  0
   -1.1405    2.9441    7.1345 C   0  0  0  0  0  0  0  0  0  0  0  0
   -1.1768    3.8291    8.1734 O   0  0  0  0  0  0  0  0  0  0  0  0
   -2.3946    3.6079    9.3290 S   0  0  0  0  0  0  0  0  0  0  0  0
   -1.5341    2.4191   10.4354 C   0  0  0  0  0  0  0  0  0  0  0  0
   -2.5654    4.8864   10.0326 O   0  0  0  0  0  0  0  0  0  0  0  0
   -3.5316    2.9434    8.6729 O   0  0  0  0  0  0  0  0  0  0  0  0
   -0.3797    1.7625    7.2290 C   0  0  0  0  0  0  0  0  0  0  0  0
   -0.3504    0.8673    6.1453 C   0  0  0  0  0  0  0  0  0  0  0  0
    0.4334   -0.4119    6.1895 C   0  0  2  0  0  0  0  0  0  0  0  0
    1.2972   -0.9868    7.3119 C   0  0  0  0  0  0  0  0  0  0  0  0
    3.0053    0.3680    1.9532 H   0  0  0  0  0  0  0  0  0  0  0  0
    2.4922    1.9705    1.4460 H   0  0  0  0  0  0  0  0  0  0  0  0
    1.6286    0.5520    0.8490 H   0  0  0  0  0  0  0  0  0  0  0  0
    2.6840    2.4109    3.7204 H   0  0  0  0  0  0  0  0  0  0  0  0
    1.2128    2.3490    4.5956 H   0  0  0  0  0  0  0  0  0  0  0  0
    3.5296    0.3805    4.6362 H   0  0  0  0  0  0  0  0  0  0  0  0
    2.7602    1.1898    5.9712 H   0  0  0  0  0  0  0  0  0  0  0  0
    3.1963   -1.7434    6.3569 H   0  0  0  0  0  0  0  0  0  0  0  0
    1.4548   -3.8553    5.9251 H   0  0  0  0  0  0  0  0  0  0  0  0
    0.6060   -3.2494    3.5642 H   0  0  0  0  0  0  0  0  0  0  0  0
    2.2887   -1.2305    3.3256 H   0  0  0  0  0  0  0  0  0  0  0  0
    0.2258   -0.6092    2.1873 H   0  0  0  0  0  0  0  0  0  0  0  0
   -1.5556    0.6721    2.9361 H   0  0  0  0  0  0  0  0  0  0  0  0
   -1.5198   -0.7075    3.9792 H   0  0  0  0  0  0  0  0  0  0  0  0
   -2.3752    2.5725    3.9730 H   0  0  0  0  0  0  0  0  0  0  0  0
   -2.4472    4.1238    5.8951 H   0  0  0  0  0  0  0  0  0  0  0  0
   -2.1883    2.1637   11.2692 H   0  0  0  0  0  0  0  0  0  0  0  0
   -0.6298    2.8848   10.8223 H   0  0  0  0  0  0  0  0  0  0  0  0
   -1.2858    1.5160    9.8873 H   0  0  0  0  0  0  0  0  0  0  0  0
    0.1840    1.5423    8.1271 H   0  0  0  0  0  0  0  0  0  0  0  0
   -0.3274   -1.1659    5.9820 H   0  0  0  0  0  0  0  0  0  0  0  0
    0.7881   -1.6590    8.0021 H   0  0  0  0  0  0  0  0  0  0  0  0
    1.8851   -0.2272    7.8277 H   0  0  0  0  0  0  0  0  0  0  0  0
    0.5405    1.8062    2.5642 H   0  0  0  0  0  0  0  0  0  0  0  0
  1  2  1  0
  1 25  1  0
  1 26  1  0
  1 27  1  0
  2 10  1  0
  2  3  1  0
  2 48  1  6
  3  4  1  0
  3 28  1  0
  3 29  1  0
  5  4  1  6
  4 30  1  0
  4 31  1  0
  5  9  1  0
  5 23  1  0
  5  6  1  0
  6 24  1  0
  6  7  1  0
  6 32  1  1
  7  8  2  0
  7 33  1  0
  8  9  1  0
  8 34  1  0
  9 10  1  0
  9 35  1  6
 10 11  1  0
 10 36  1  6
 11 12  1  0
 11 37  1  0
 11 38  1  0
 12 22  2  0
 12 13  1  0
 13 14  2  0
 13 39  1  0
 14 15  1  0
 14 40  1  0
 15 16  1  0
 15 21  2  0
 16 17  1  0
 17 18  1  0
 17 19  2  0
 17 20  2  0
 18 41  1  0
 18 42  1  0
 18 43  1  0
 21 22  1  0
 21 44  1  0
 22 23  1  0
 23 24  1  0
 23 45  1  6
 24 46  1  0
 24 47  1  0
M  CHG  1   2   1
M  END
>  <i_m_ct_stereo_status>  (246) 
1

>  <s_m_source_file>  (246) 
/var/tmp/pbs.5076255.sched01/tmpbhhv4xqx/80i1gy0gug.sdf

>  <i_m_source_file_index>  (246) 
35

>  <i_lp_mmshare_version>  (246) 
48012

>  <i_f3d_flags>  (246) 
0

>  <s_epik_input>  (246) 
W0NAXTEyM1tDQEBIXTRbQ0hdPVtDSF1bQ0BIXTJbQ0BIXShOKFtDSDNdKVtDSDJdW0NIMl0xKVtDSDJdYzVjKFtDQEBIXTNbQ0gyXTQpW2NIXWMoW2NIXVtjSF01KU9TKD1PKSg9TylbQ0gzXQ==

>  <s_epik_cmdline>  (246) 
J2VwaWtfcHl0aG9uJywgJy1waHQnLCAnMi4wJywgJy1waCcsICc3LjAnLCAnLXRuJywgJzgnLCAnLW1hJywgJzIwMCcsICctaW1hZScsICc8aW5maWxlLm1hZT4nLCAnLW9tYWUnLCAnPG91dGZpbGUubWFlPic=

>  <r_epik_Ionization_Penalty>  (246) 
0.00445721

>  <r_epik_Ionization_Penalty_Charging>  (246) 
0.00445721

>  <r_epik_Ionization_Penalty_Neutral>  (246) 
0

>  <r_epik_State_Penalty>  (246) 
0.00321496

>  <r_epik_Charging_Adjusted_Penalty>  (246) 
0.00767217

>  <i_epik_Tot_Q>  (246) 
1

>  <i_epik_Tot_abs_Q>  (246) 
1

>  <s_lp_Force_Field>  (246) 
OPLS3e

>  <r_lp_Energy>  (246) 
56.1438

>  <b_lp_Chiralities_Consistent>  (246) 
1

>  <s_lp_Variant>  (246) 
82:0-1

>  <s_i_glide_gridfile>  (246) 
pfpi4k_grid

>  <i_i_glide_lignum>  (246) 
35

>  <i_i_glide_rotatable_bonds>  (246) 
2

>  <r_i_docking_score>  (246) 
-2.91854

>  <r_i_glide_ligand_efficiency>  (246) 
-0.121606

>  <r_i_glide_ligand_efficiency_sa>  (246) 
-0.350772

>  <r_i_glide_ligand_efficiency_ln>  (246) 
-0.698541

>  <r_i_glide_gscore>  (246) 
-2.91854

>  <r_i_glide_lipo>  (246) 
-0.0600732

>  <r_i_glide_hbond>  (246) 
0

>  <r_i_glide_metal>  (246) 
-0

>  <r_i_glide_rewards>  (246) 
-1.04683

>  <r_i_glide_evdw>  (246) 
-20.0054

>  <r_i_glide_ecoul>  (246) 
-6.06923

>  <r_i_glide_erotb>  (246) 
0.158387

>  <r_i_glide_esite>  (246) 
-0.0593701

>  <r_i_glide_emodel>  (246) 
-32.595

>  <r_i_glide_energy>  (246) 
-26.0747

>  <r_i_glide_einternal>  (246) 
1.10629

>  <r_i_glide_intrahb_reward>  (246) 
-0

>  <i_i_glide_confnum>  (246) 
3

>  <i_i_glide_posenum>  (246) 
28

>  <r_i_glide_eff_state_penalty>  (246) 
0

>  <ligand_id>  (246) 
82

>  <original_smiles>  (246) 
CN1CCC23C4C=CC2C1Cc1ccc(OS(C)(=O)=O)cc1C3C4

>  <smiles>  (246) 
[H]C1=C([H])C2([H])C34C([H])([H])C([H])([H])[N+]([H])(C([H])([H])[H])C2([H])C([H])([H])c2c([H])c([H])c(OS(=O)(=O)C([H])([H])[H])c([H])c2C3([H])C([H])([H])C14[H]

$$$$
83:0:0
     RDKit          3D

 65 71  0  0  1  0  0  0  0  0999 V2000
   -1.5827   -9.1226    2.6999 C   0  0  0  0  0  0  0  0  0  0  0  0
   -0.2860   -8.7538    2.2330 O   0  0  0  0  0  0  0  0  0  0  0  0
    0.8043   -9.1408    2.9917 C   0  0  0  0  0  0  0  0  0  0  0  0
    0.6717   -9.7134    4.2819 C   0  0  0  0  0  0  0  0  0  0  0  0
    1.7904  -10.0741    5.0445 C   0  0  0  0  0  0  0  0  0  0  0  0
    3.0796   -9.8707    4.5513 C   0  0  0  0  0  0  0  0  0  0  0  0
    3.2381   -9.3052    3.2370 C   0  0  0  0  0  0  0  0  0  0  0  0
    2.1036   -8.9440    2.4659 C   0  0  0  0  0  0  0  0  0  0  0  0
    4.7139   -9.1660    2.7692 C   0  0  1  0  0  0  0  0  0  0  0  0
    5.2680   -8.8773    1.3756 C   0  0  0  0  0  0  0  0  0  0  0  0
    6.8577   -8.9176    1.6267 C   0  0  0  0  0  0  0  0  0  0  0  0
    7.4186   -9.4848    3.0928 C   0  0  2  0  0  0  0  0  0  0  0  0
    6.8676   -8.0411    3.6803 C   0  0  1  0  0  0  0  0  0  0  0  0
    7.7550   -6.7727    3.4612 C   0  0  0  0  0  0  0  0  0  0  0  0
    7.3128   -6.0001    2.3589 O   0  0  0  0  0  0  0  0  0  0  0  0
    8.3135   -5.2213    1.7403 C   0  0  0  0  0  0  0  0  0  0  0  0
    7.6926   -4.2634    0.7377 C   0  0  0  0  0  0  0  0  0  0  0  0
    6.3800   -3.8015    0.9237 C   0  0  0  0  0  0  0  0  0  0  0  0
    5.7909   -2.9249   -0.0065 C   0  0  0  0  0  0  0  0  0  0  0  0
    6.5240   -2.5034   -1.1283 C   0  0  0  0  0  0  0  0  0  0  0  0
    7.8418   -2.9538   -1.3143 C   0  0  0  0  0  0  0  0  0  0  0  0
    8.4233   -3.8289   -0.3800 C   0  0  0  0  0  0  0  0  0  0  0  0
    5.3212   -7.8240    3.4786 C   0  0  0  0  0  0  0  0  0  0  0  0
    7.0488  -10.2041    4.6159 C   0  0  2  0  0  0  0  0  0  0  0  0
    8.0893  -11.2331    5.0641 C   0  0  0  0  0  0  0  0  0  0  0  0
    8.3538  -11.4752    6.2404 O   0  0  0  0  0  0  0  0  0  0  0  0
    8.6690  -12.0283    3.9312 C   0  0  0  0  0  0  0  0  0  0  0  0
    7.5438  -12.2066    2.9083 C   0  0  0  0  0  0  0  0  0  0  0  0
    6.7237  -10.8831    2.5822 C   0  0  2  0  0  0  0  0  0  0  0  0
    6.5217  -11.3779    1.2488 O   0  0  0  0  0  0  0  0  0  0  0  0
    5.2962  -10.6279    3.1344 C   0  0  2  0  0  0  0  0  0  0  0  0
    5.5518  -10.8706    4.5927 C   0  0  2  0  0  0  0  0  0  0  0  0
    4.3007  -10.3074    5.4503 C   0  0  0  0  0  0  0  0  0  0  0  0
   -2.3667   -8.8138    2.0072 H   0  0  0  0  0  0  0  0  0  0  0  0
   -1.7954   -8.6332    3.6518 H   0  0  0  0  0  0  0  0  0  0  0  0
   -1.6582  -10.2069    2.8207 H   0  0  0  0  0  0  0  0  0  0  0  0
   -0.2928   -9.8989    4.7386 H   0  0  0  0  0  0  0  0  0  0  0  0
    1.6444  -10.5141    6.0210 H   0  0  0  0  0  0  0  0  0  0  0  0
    2.2246   -8.5277    1.4763 H   0  0  0  0  0  0  0  0  0  0  0  0
    4.9155   -9.6065    0.6487 H   0  0  0  0  0  0  0  0  0  0  0  0
    4.9628   -7.9078    0.9875 H   0  0  0  0  0  0  0  0  0  0  0  0
    7.3784   -9.3613    0.7791 H   0  0  0  0  0  0  0  0  0  0  0  0
    7.2715   -7.9576    1.3614 H   0  0  0  0  0  0  0  0  0  0  0  0
    6.9513   -7.9439    4.7579 H   0  0  0  0  0  0  0  0  0  0  0  0
    7.6607   -6.0926    4.3114 H   0  0  0  0  0  0  0  0  0  0  0  0
    8.8101   -7.0642    3.4056 H   0  0  0  0  0  0  0  0  0  0  0  0
    8.8850   -4.6658    2.4812 H   0  0  0  0  0  0  0  0  0  0  0  0
    9.0056   -5.8989    1.2444 H   0  0  0  0  0  0  0  0  0  0  0  0
    5.8041   -4.1282    1.7746 H   0  0  0  0  0  0  0  0  0  0  0  0
    4.7737   -2.5895    0.1432 H   0  0  0  0  0  0  0  0  0  0  0  0
    6.0610   -1.8451   -1.8507 H   0  0  0  0  0  0  0  0  0  0  0  0
    8.4184   -2.6515   -2.1786 H   0  0  0  0  0  0  0  0  0  0  0  0
    9.4200   -4.1827   -0.5558 H   0  0  0  0  0  0  0  0  0  0  0  0
    5.0906   -6.9141    2.9167 H   0  0  0  0  0  0  0  0  0  0  0  0
    4.8712   -7.6704    4.4604 H   0  0  0  0  0  0  0  0  0  0  0  0
    7.1111   -9.5964    5.5187 H   0  0  0  0  0  0  0  0  0  0  0  0
    9.4931  -11.4509    3.5032 H   0  0  0  0  0  0  0  0  0  0  0  0
    9.0706  -12.9901    4.2553 H   0  0  0  0  0  0  0  0  0  0  0  0
    8.0900  -12.6124    2.0420 H   0  0  0  0  0  0  0  0  0  0  0  0
    6.8759  -13.0155    3.2098 H   0  0  0  0  0  0  0  0  0  0  0  0
    5.6001  -11.6097    1.1341 H   0  0  0  0  0  0  0  0  0  0  0  0
    5.3004   -9.8266    3.7181 H   0  0  0  0  0  0  0  0  0  0  0  0
    5.6036  -11.9428    4.7730 H   0  0  0  0  0  0  0  0  0  0  0  0
    4.6094   -9.4259    6.0209 H   0  0  0  0  0  0  0  0  0  0  0  0
    3.9690  -11.0563    6.1772 H   0  0  0  0  0  0  0  0  0  0  0  0
  1  2  1  0
  1 34  1  0
  1 35  1  0
  1 36  1  0
  2  3  1  0
  3  8  2  0
  3  4  1  0
  4  5  2  0
  4 37  1  0
  5  6  1  0
  5 38  1  0
  6 33  1  0
  6  7  2  0
  7  8  1  0
  9  7  1  6
  8 39  1  0
  9 23  1  0
  9 31  1  0
  9 10  1  0
 10 11  1  0
 10 40  1  0
 10 41  1  0
 12 11  1  1
 11 42  1  0
 11 43  1  0
 12 29  1  0
 12 13  1  0
 12 24  1  0
 13 14  1  0
 13 23  1  0
 13 44  1  1
 14 15  1  0
 14 45  1  0
 14 46  1  0
 15 16  1  0
 16 17  1  0
 16 47  1  0
 16 48  1  0
 17 22  1  0
 17 18  2  0
 18 19  1  0
 18 49  1  0
 19 20  2  0
 19 50  1  0
 20 21  1  0
 20 51  1  0
 21 22  2  0
 21 52  1  0
 22 53  1  0
 23 54  1  0
 23 55  1  0
 24 32  1  0
 24 25  1  0
 24 56  1  1
 25 26  2  0
 25 27  1  0
 27 28  1  0
 27 57  1  0
 27 58  1  0
 28 29  1  0
 28 59  1  0
 28 60  1  0
 29 30  1  6
 29 31  1  0
 30 61  1  0
 31 32  1  0
 31 62  1  6
 32 33  1  0
 32 63  1  6
 33 64  1  0
 33 65  1  0
M  END
>  <i_m_ct_stereo_status>  (247) 
1

>  <s_m_source_file>  (247) 
/var/tmp/pbs.5076255.sched01/tmpbhhv4xqx/80i1gy0gug.sdf

>  <i_m_source_file_index>  (247) 
36

>  <i_lp_mmshare_version>  (247) 
48012

>  <i_f3d_flags>  (247) 
0

>  <s_epik_input>  (247) 
W0NIM11PYyhbY0hdMSlbY0hdW2NIXWMoYzFbQ0BAXTIzNClbQ0gyXVtDQEhdNVtDQEBIXTZbQ0BAXShbQ0gyXVtDSDJdMikoW0NAXShbT0hdKShbQ0BASF00NSlbQ0gyXVtDSDJdQzY9TylbQ0BIXShbQ0gyXTMpW0NIMl1PW0NIMl1jN1tjSF1bY0hdW2NIXVtjSF1bY0hdNw==

>  <s_epik_cmdline>  (247) 
J2VwaWtfcHl0aG9uJywgJy1waHQnLCAnMi4wJywgJy1waCcsICc3LjAnLCAnLXRuJywgJzgnLCAnLW1hJywgJzIwMCcsICctaW1hZScsICc8aW5maWxlLm1hZT4nLCAnLW9tYWUnLCAnPG91dGZpbGUubWFlPic=

>  <r_lp_tautomer_probability>  (247) 
1

>  <r_epik_Ionization_Penalty>  (247) 
3.35702e-07

>  <r_epik_Ionization_Penalty_Charging>  (247) 
0

>  <r_epik_Ionization_Penalty_Neutral>  (247) 
3.35702e-07

>  <r_epik_State_Penalty>  (247) 
-0

>  <r_epik_Charging_Adjusted_Penalty>  (247) 
0

>  <i_epik_Tot_Q>  (247) 
0

>  <i_epik_Tot_abs_Q>  (247) 
0

>  <s_lp_Force_Field>  (247) 
OPLS3e

>  <r_lp_Energy>  (247) 
411.903

>  <b_lp_Chiralities_Consistent>  (247) 
1

>  <s_lp_Variant>  (247) 
83:0-1

>  <s_i_glide_gridfile>  (247) 
pfpi4k_grid

>  <i_i_glide_lignum>  (247) 
36

>  <i_i_glide_rotatable_bonds>  (247) 
6

>  <r_i_docking_score>  (247) 
-3.34463

>  <r_i_glide_ligand_efficiency>  (247) 
-0.101352

>  <r_i_glide_ligand_efficiency_sa>  (247) 
-0.325092

>  <r_i_glide_ligand_efficiency_ln>  (247) 
-0.743829

>  <r_i_glide_gscore>  (247) 
-3.34463

>  <r_i_glide_lipo>  (247) 
-0.60053

>  <r_i_glide_hbond>  (247) 
-0.3271

>  <r_i_glide_metal>  (247) 
-0

>  <r_i_glide_rewards>  (247) 
-0.378842

>  <r_i_glide_evdw>  (247) 
-28.8058

>  <r_i_glide_ecoul>  (247) 
-6.00982

>  <r_i_glide_erotb>  (247) 
0.303604

>  <r_i_glide_esite>  (247) 
0

>  <r_i_glide_emodel>  (247) 
-36.8799

>  <r_i_glide_energy>  (247) 
-34.8156

>  <r_i_glide_einternal>  (247) 
8.80551

>  <r_i_glide_intrahb_reward>  (247) 
-0

>  <i_i_glide_confnum>  (247) 
2

>  <i_i_glide_posenum>  (247) 
8

>  <r_i_glide_eff_state_penalty>  (247) 
0

>  <ligand_id>  (247) 
83

>  <original_smiles>  (247) 
COc1ccc2c(c1)C13CCC4(C(COCc5ccccc5)C1)C1C(=O)CCC4(O)C3C1C2

>  <smiles>  (247) 
[H]OC12C([H])([H])C([H])([H])C(=O)C3([H])C4([H])C([H])([H])c5c([H])c([H])c(OC([H])([H])[H])c([H])c5C5(C([H])([H])C([H])([H])C31C([H])(C([H])([H])OC([H])([H])c1c([H])c([H])c([H])c([H])c1[H])C5([H])[H])C42[H]

$$$$
83:0:1
     RDKit          3D

 65 71  0  0  1  0  0  0  0  0999 V2000
   -1.8358   -8.8413    2.7102 C   0  0  0  0  0  0  0  0  0  0  0  0
   -0.5482   -8.6793    2.1158 O   0  0  0  0  0  0  0  0  0  0  0  0
    0.5596   -8.8932    2.8986 C   0  0  0  0  0  0  0  0  0  0  0  0
    0.4747   -9.2457    4.2777 C   0  0  0  0  0  0  0  0  0  0  0  0
    1.6262   -9.4225    5.0571 C   0  0  0  0  0  0  0  0  0  0  0  0
    2.8909   -9.2639    4.5029 C   0  0  0  0  0  0  0  0  0  0  0  0
    3.0015   -8.9361    3.0980 C   0  0  0  0  0  0  0  0  0  0  0  0
    1.8365   -8.7510    2.3074 C   0  0  0  0  0  0  0  0  0  0  0  0
    4.4504   -8.8235    2.5768 C   0  0  1  0  0  0  0  0  0  0  0  0
    4.9725   -8.7656    1.1352 C   0  0  0  0  0  0  0  0  0  0  0  0
    6.5674   -8.7061    1.3553 C   0  0  0  0  0  0  0  0  0  0  0  0
    7.1816   -8.9959    2.8765 C   0  0  2  0  0  0  0  0  0  0  0  0
    6.5872   -7.4892    3.2138 C   0  0  1  0  0  0  0  0  0  0  0  0
    7.4129   -6.2510    2.7411 C   0  0  0  0  0  0  0  0  0  0  0  0
    6.8411   -5.6452    1.5884 O   0  0  0  0  0  0  0  0  0  0  0  0
    7.5429   -4.5252    1.0762 C   0  0  0  0  0  0  0  0  0  0  0  0
    6.5977   -3.5868    0.3555 C   0  0  0  0  0  0  0  0  0  0  0  0
    6.6755   -2.1933    0.5599 C   0  0  0  0  0  0  0  0  0  0  0  0
    5.7720   -1.3305   -0.0955 C   0  0  0  0  0  0  0  0  0  0  0  0
    4.7978   -1.8600   -0.9626 C   0  0  0  0  0  0  0  0  0  0  0  0
    4.7202   -3.2528   -1.1722 C   0  0  0  0  0  0  0  0  0  0  0  0
    5.6195   -4.1103   -0.5070 C   0  0  0  0  0  0  0  0  0  0  0  0
    5.0297   -7.3693    3.0240 C   0  0  0  0  0  0  0  0  0  0  0  0
    6.8707   -9.4474    4.5128 C   0  0  2  0  0  0  0  0  0  0  0  0
    7.9561  -10.3492    5.0942 C   0  0  0  0  0  0  0  0  0  0  0  0
    8.2494  -10.3621    6.2887 O   0  0  0  0  0  0  0  0  0  0  0  0
    8.5401  -11.3039    4.1075 C   0  0  0  0  0  0  0  0  0  0  0  0
    7.3998  -11.6919    3.1578 C   0  0  0  0  0  0  0  0  0  0  0  0
    6.5156  -10.4802    2.6333 C   0  0  2  0  0  0  0  0  0  0  0  0
    6.2749  -11.1983    1.4035 O   0  0  0  0  0  0  0  0  0  0  0  0
    5.1013  -10.1834    3.1780 C   0  0  2  0  0  0  0  0  0  0  0  0
    5.4028  -10.1542    4.6523 C   0  0  2  0  0  0  0  0  0  0  0  0
    4.1448   -9.4939    5.4201 C   0  0  0  0  0  0  0  0  0  0  0  0
   -2.6348   -8.6960    1.9838 H   0  0  0  0  0  0  0  0  0  0  0  0
   -1.9720   -8.1020    3.4953 H   0  0  0  0  0  0  0  0  0  0  0  0
   -1.9645   -9.8409    3.1231 H   0  0  0  0  0  0  0  0  0  0  0  0
   -0.4649   -9.4129    4.8028 H   0  0  0  0  0  0  0  0  0  0  0  0
    1.5141   -9.6971    6.1023 H   0  0  0  0  0  0  0  0  0  0  0  0
    1.9108   -8.5187    1.2605 H   0  0  0  0  0  0  0  0  0  0  0  0
    4.6344   -9.6185    0.5528 H   0  0  0  0  0  0  0  0  0  0  0  0
    4.6236   -7.8907    0.5978 H   0  0  0  0  0  0  0  0  0  0  0  0
    7.0950   -9.2729    0.5915 H   0  0  0  0  0  0  0  0  0  0  0  0
    6.9375   -7.7878    0.9255 H   0  0  0  0  0  0  0  0  0  0  0  0
    6.6858   -7.2086    4.2543 H   0  0  0  0  0  0  0  0  0  0  0  0
    7.3691   -5.4693    3.5019 H   0  0  0  0  0  0  0  0  0  0  0  0
    8.4688   -6.5140    2.6137 H   0  0  0  0  0  0  0  0  0  0  0  0
    8.0578   -3.9834    1.8666 H   0  0  0  0  0  0  0  0  0  0  0  0
    8.3165   -4.8864    0.3992 H   0  0  0  0  0  0  0  0  0  0  0  0
    7.3995   -1.7792    1.2378 H   0  0  0  0  0  0  0  0  0  0  0  0
    5.8185   -0.2665    0.0850 H   0  0  0  0  0  0  0  0  0  0  0  0
    4.0953   -1.2025   -1.4560 H   0  0  0  0  0  0  0  0  0  0  0  0
    3.9697   -3.6703   -1.8242 H   0  0  0  0  0  0  0  0  0  0  0  0
    5.5440   -5.1737   -0.6524 H   0  0  0  0  0  0  0  0  0  0  0  0
    4.7326   -6.5826    2.3240 H   0  0  0  0  0  0  0  0  0  0  0  0
    4.5965   -7.0671    3.9766 H   0  0  0  0  0  0  0  0  0  0  0  0
    6.9276   -8.6868    5.2928 H   0  0  0  0  0  0  0  0  0  0  0  0
    9.3396  -10.7831    3.5719 H   0  0  0  0  0  0  0  0  0  0  0  0
    8.9886  -12.1783    4.5849 H   0  0  0  0  0  0  0  0  0  0  0  0
    7.9321  -12.2031    2.3468 H   0  0  0  0  0  0  0  0  0  0  0  0
    6.7806  -12.4646    3.6151 H   0  0  0  0  0  0  0  0  0  0  0  0
    5.3551  -11.4620    1.3348 H   0  0  0  0  0  0  0  0  0  0  0  0
    5.0873   -9.2932    3.6123 H   0  0  0  0  0  0  0  0  0  0  0  0
    5.5004  -11.1781    5.0048 H   0  0  0  0  0  0  0  0  0  0  0  0
    4.4328   -8.5198    5.8213 H   0  0  0  0  0  0  0  0  0  0  0  0
    3.8601  -10.1184    6.2742 H   0  0  0  0  0  0  0  0  0  0  0  0
  1  2  1  0
  1 34  1  0
  1 35  1  0
  1 36  1  0
  2  3  1  0
  3  8  2  0
  3  4  1  0
  4  5  2  0
  4 37  1  0
  5  6  1  0
  5 38  1  0
  6 33  1  0
  6  7  2  0
  7  8  1  0
  9  7  1  6
  8 39  1  0
  9 23  1  0
  9 31  1  0
  9 10  1  0
 10 11  1  0
 10 40  1  0
 10 41  1  0
 12 11  1  1
 11 42  1  0
 11 43  1  0
 12 29  1  0
 12 13  1  0
 12 24  1  0
 13 14  1  0
 13 23  1  0
 13 44  1  1
 14 15  1  0
 14 45  1  0
 14 46  1  0
 15 16  1  0
 16 17  1  0
 16 47  1  0
 16 48  1  0
 17 22  1  0
 17 18  2  0
 18 19  1  0
 18 49  1  0
 19 20  2  0
 19 50  1  0
 20 21  1  0
 20 51  1  0
 21 22  2  0
 21 52  1  0
 22 53  1  0
 23 54  1  0
 23 55  1  0
 24 32  1  0
 24 25  1  0
 24 56  1  1
 25 26  2  0
 25 27  1  0
 27 28  1  0
 27 57  1  0
 27 58  1  0
 28 29  1  0
 28 59  1  0
 28 60  1  0
 29 30  1  6
 29 31  1  0
 30 61  1  0
 31 32  1  0
 31 62  1  1
 32 33  1  0
 32 63  1  1
 33 64  1  0
 33 65  1  0
M  END
>  <i_m_ct_stereo_status>  (248) 
1

>  <s_m_source_file>  (248) 
/var/tmp/pbs.5076255.sched01/tmpbhhv4xqx/80i1gy0gug.sdf

>  <i_m_source_file_index>  (248) 
36

>  <i_lp_mmshare_version>  (248) 
48012

>  <i_f3d_flags>  (248) 
0

>  <s_epik_input>  (248) 
W0NIM11PYyhbY0hdMSlbY0hdW2NIXWMoYzFbQ0BAXTIzNClbQ0gyXVtDQEhdNVtDQEBIXTZbQ0BAXShbQ0gyXVtDSDJdMikoW0NAXShbT0hdKShbQ0BASF00NSlbQ0gyXVtDSDJdQzY9TylbQ0BIXShbQ0gyXTMpW0NIMl1PW0NIMl1jN1tjSF1bY0hdW2NIXVtjSF1bY0hdNw==

>  <s_epik_cmdline>  (248) 
J2VwaWtfcHl0aG9uJywgJy1waHQnLCAnMi4wJywgJy1waCcsICc3LjAnLCAnLXRuJywgJzgnLCAnLW1hJywgJzIwMCcsICctaW1hZScsICc8aW5maWxlLm1hZT4nLCAnLW9tYWUnLCAnPG91dGZpbGUubWFlPic=

>  <r_lp_tautomer_probability>  (248) 
1

>  <r_epik_Ionization_Penalty>  (248) 
3.35702e-07

>  <r_epik_Ionization_Penalty_Charging>  (248) 
0

>  <r_epik_Ionization_Penalty_Neutral>  (248) 
3.35702e-07

>  <r_epik_State_Penalty>  (248) 
-0

>  <r_epik_Charging_Adjusted_Penalty>  (248) 
0

>  <i_epik_Tot_Q>  (248) 
0

>  <i_epik_Tot_abs_Q>  (248) 
0

>  <s_lp_Force_Field>  (248) 
OPLS3e

>  <r_lp_Energy>  (248) 
411.903

>  <b_lp_Chiralities_Consistent>  (248) 
1

>  <s_lp_Variant>  (248) 
83:0-1

>  <s_i_glide_gridfile>  (248) 
pfpi4k_grid

>  <i_i_glide_lignum>  (248) 
36

>  <i_i_glide_rotatable_bonds>  (248) 
6

>  <r_i_docking_score>  (248) 
-3.10913

>  <r_i_glide_ligand_efficiency>  (248) 
-0.094216

>  <r_i_glide_ligand_efficiency_sa>  (248) 
-0.302201

>  <r_i_glide_ligand_efficiency_ln>  (248) 
-0.691454

>  <r_i_glide_gscore>  (248) 
-3.10913

>  <r_i_glide_lipo>  (248) 
-0.665263

>  <r_i_glide_hbond>  (248) 
-0.145084

>  <r_i_glide_metal>  (248) 
-0

>  <r_i_glide_rewards>  (248) 
-0.383431

>  <r_i_glide_evdw>  (248) 
-28.0434

>  <r_i_glide_ecoul>  (248) 
-5.44523

>  <r_i_glide_erotb>  (248) 
0.303604

>  <r_i_glide_esite>  (248) 
0

>  <r_i_glide_emodel>  (248) 
-35.1302

>  <r_i_glide_energy>  (248) 
-33.4887

>  <r_i_glide_einternal>  (248) 
8.58243

>  <r_i_glide_intrahb_reward>  (248) 
-0

>  <i_i_glide_confnum>  (248) 
2

>  <i_i_glide_posenum>  (248) 
1

>  <r_i_glide_eff_state_penalty>  (248) 
0

>  <ligand_id>  (248) 
83

>  <original_smiles>  (248) 
COc1ccc2c(c1)C13CCC4(C(COCc5ccccc5)C1)C1C(=O)CCC4(O)C3C1C2

>  <smiles>  (248) 
[H]OC12C([H])([H])C([H])([H])C(=O)C3([H])C4([H])C([H])([H])c5c([H])c([H])c(OC([H])([H])[H])c([H])c5C5(C([H])([H])C([H])([H])C31C([H])(C([H])([H])OC([H])([H])c1c([H])c([H])c([H])c([H])c1[H])C5([H])[H])C42[H]

$$$$
83:0:2
     RDKit          3D

 65 71  0  0  1  0  0  0  0  0999 V2000
   -2.1228   -9.3973    2.2222 C   0  0  0  0  0  0  0  0  0  0  0  0
   -2.1204   -8.3746    3.1968 O   0  0  0  0  0  0  0  0  0  0  0  0
   -0.9061   -7.8055    3.4997 C   0  0  0  0  0  0  0  0  0  0  0  0
   -0.9154   -6.8377    4.5223 C   0  0  0  0  0  0  0  0  0  0  0  0
    0.2642   -6.1823    4.9261 C   0  0  0  0  0  0  0  0  0  0  0  0
    1.4855   -6.4872    4.3081 C   0  0  0  0  0  0  0  0  0  0  0  0
    1.5039   -7.4832    3.2635 C   0  0  0  0  0  0  0  0  0  0  0  0
    0.3196   -8.1330    2.8619 C   0  0  0  0  0  0  0  0  0  0  0  0
    2.8944   -7.7907    2.6661 C   0  0  1  0  0  0  0  0  0  0  0  0
    3.3146   -8.9541    1.7734 C   0  0  0  0  0  0  0  0  0  0  0  0
    4.8833   -8.6515    1.5617 C   0  0  0  0  0  0  0  0  0  0  0  0
    5.6082   -7.4870    2.5120 C   0  0  2  0  0  0  0  0  0  0  0  0
    4.7902   -6.4120    1.5599 C   0  0  1  0  0  0  0  0  0  0  0  0
    5.3412   -6.0900    0.1359 C   0  0  0  0  0  0  0  0  0  0  0  0
    4.8630   -4.8018   -0.2567 O   0  0  0  0  0  0  0  0  0  0  0  0
    5.3598   -4.3543   -1.5051 C   0  0  0  0  0  0  0  0  0  0  0  0
    4.7036   -3.0867   -1.9702 C   0  0  0  0  0  0  0  0  0  0  0  0
    4.8732   -1.9235   -1.2100 C   0  0  0  0  0  0  0  0  0  0  0  0
    4.2427   -0.7391   -1.6190 C   0  0  0  0  0  0  0  0  0  0  0  0
    3.4555   -0.7247   -2.7876 C   0  0  0  0  0  0  0  0  0  0  0  0
    3.3003   -1.8866   -3.5566 C   0  0  0  0  0  0  0  0  0  0  0  0
    3.9376   -3.0705   -3.1527 C   0  0  0  0  0  0  0  0  0  0  0  0
    3.2354   -6.6096    1.5966 C   0  0  0  0  0  0  0  0  0  0  0  0
    5.4511   -6.3701    3.8166 C   0  0  2  0  0  0  0  0  0  0  0  0
    6.6948   -6.3047    4.7019 C   0  0  0  0  0  0  0  0  0  0  0  0
    7.0224   -5.3017    5.3309 O   0  0  0  0  0  0  0  0  0  0  0  0
    7.3963   -7.6184    4.8587 C   0  0  0  0  0  0  0  0  0  0  0  0
    6.3000   -8.6836    4.8590 C   0  0  0  0  0  0  0  0  0  0  0  0
    5.1974   -8.5135    3.7245 C   0  0  2  0  0  0  0  0  0  0  0  0
    5.0039   -9.9394    3.7203 O   0  0  0  0  0  0  0  0  0  0  0  0
    3.7754   -7.9711    4.0030 C   0  0  2  0  0  0  0  0  0  0  0  0
    4.1267   -6.7040    4.7189 C   0  0  2  0  0  0  0  0  0  0  0  0
    2.8063   -5.7654    4.7931 C   0  0  0  0  0  0  0  0  0  0  0  0
   -3.1265   -9.7751    2.0784 H   0  0  0  0  0  0  0  0  0  0  0  0
   -1.5038  -10.2478    2.5067 H   0  0  0  0  0  0  0  0  0  0  0  0
   -1.7750   -8.9970    1.2764 H   0  0  0  0  0  0  0  0  0  0  0  0
   -1.8470   -6.6073    5.0208 H   0  0  0  0  0  0  0  0  0  0  0  0
    0.2257   -5.4526    5.7223 H   0  0  0  0  0  0  0  0  0  0  0  0
    0.3695   -8.8808    2.0841 H   0  0  0  0  0  0  0  0  0  0  0  0
    3.0923   -9.9207    2.2237 H   0  0  0  0  0  0  0  0  0  0  0  0
    2.7888   -8.9723    0.8242 H   0  0  0  0  0  0  0  0  0  0  0  0
    5.4668   -9.5724    1.5301 H   0  0  0  0  0  0  0  0  0  0  0  0
    5.0343   -8.4902    0.5023 H   0  0  0  0  0  0  0  0  0  0  0  0
    4.8869   -5.3821    1.8772 H   0  0  0  0  0  0  0  0  0  0  0  0
    6.4349   -6.1118    0.1360 H   0  0  0  0  0  0  0  0  0  0  0  0
    4.9898   -6.7985   -0.6105 H   0  0  0  0  0  0  0  0  0  0  0  0
    6.4257   -4.1570   -1.4229 H   0  0  0  0  0  0  0  0  0  0  0  0
    5.1698   -5.0825   -2.2829 H   0  0  0  0  0  0  0  0  0  0  0  0
    5.4580   -1.9516   -0.3042 H   0  0  0  0  0  0  0  0  0  0  0  0
    4.3367    0.1347   -0.9935 H   0  0  0  0  0  0  0  0  0  0  0  0
    2.9257    0.1656   -3.0864 H   0  0  0  0  0  0  0  0  0  0  0  0
    2.6570   -1.8743   -4.4247 H   0  0  0  0  0  0  0  0  0  0  0  0
    3.8025   -3.9678   -3.7339 H   0  0  0  0  0  0  0  0  0  0  0  0
    2.8266   -6.7929    0.6004 H   0  0  0  0  0  0  0  0  0  0  0  0
    2.7860   -5.6676    1.9111 H   0  0  0  0  0  0  0  0  0  0  0  0
    5.4252   -5.3024    3.6063 H   0  0  0  0  0  0  0  0  0  0  0  0
    8.0679   -7.7572    4.0072 H   0  0  0  0  0  0  0  0  0  0  0  0
    7.9996   -7.6577    5.7674 H   0  0  0  0  0  0  0  0  0  0  0  0
    6.8829   -9.6110    4.7556 H   0  0  0  0  0  0  0  0  0  0  0  0
    5.8336   -8.7464    5.8447 H   0  0  0  0  0  0  0  0  0  0  0  0
    4.3222  -10.1468    3.1003 H   0  0  0  0  0  0  0  0  0  0  0  0
    3.6285   -7.1271    3.5007 H   0  0  0  0  0  0  0  0  0  0  0  0
    4.4097   -6.9433    5.7421 H   0  0  0  0  0  0  0  0  0  0  0  0
    2.9481   -4.8936    4.1493 H   0  0  0  0  0  0  0  0  0  0  0  0
    2.6710   -5.3824    5.8081 H   0  0  0  0  0  0  0  0  0  0  0  0
  1  2  1  0
  1 34  1  0
  1 35  1  0
  1 36  1  0
  2  3  1  0
  3  8  2  0
  3  4  1  0
  4  5  2  0
  4 37  1  0
  5  6  1  0
  5 38  1  0
  6 33  1  0
  6  7  2  0
  7  8  1  0
  9  7  1  1
  8 39  1  0
  9 23  1  0
  9 31  1  0
  9 10  1  0
 10 11  1  0
 10 40  1  0
 10 41  1  0
 12 11  1  6
 11 42  1  0
 11 43  1  0
 12 29  1  0
 12 13  1  0
 12 24  1  0
 13 14  1  0
 13 23  1  0
 13 44  1  1
 14 15  1  0
 14 45  1  0
 14 46  1  0
 15 16  1  0
 16 17  1  0
 16 47  1  0
 16 48  1  0
 17 22  1  0
 17 18  2  0
 18 19  1  0
 18 49  1  0
 19 20  2  0
 19 50  1  0
 20 21  1  0
 20 51  1  0
 21 22  2  0
 21 52  1  0
 22 53  1  0
 23 54  1  0
 23 55  1  0
 24 32  1  0
 24 25  1  0
 24 56  1  6
 25 26  2  0
 25 27  1  0
 27 28  1  0
 27 57  1  0
 27 58  1  0
 28 29  1  0
 28 59  1  0
 28 60  1  0
 29 30  1  6
 29 31  1  0
 30 61  1  0
 31 32  1  0
 31 62  1  1
 32 33  1  0
 32 63  1  1
 33 64  1  0
 33 65  1  0
M  END
>  <i_m_ct_stereo_status>  (249) 
1

>  <s_m_source_file>  (249) 
/var/tmp/pbs.5076255.sched01/tmpbhhv4xqx/80i1gy0gug.sdf

>  <i_m_source_file_index>  (249) 
36

>  <i_lp_mmshare_version>  (249) 
48012

>  <i_f3d_flags>  (249) 
0

>  <s_epik_input>  (249) 
W0NIM11PYyhbY0hdMSlbY0hdW2NIXWMoYzFbQ0BAXTIzNClbQ0gyXVtDQEhdNVtDQEBIXTZbQ0BAXShbQ0gyXVtDSDJdMikoW0NAXShbT0hdKShbQ0BASF00NSlbQ0gyXVtDSDJdQzY9TylbQ0BIXShbQ0gyXTMpW0NIMl1PW0NIMl1jN1tjSF1bY0hdW2NIXVtjSF1bY0hdNw==

>  <s_epik_cmdline>  (249) 
J2VwaWtfcHl0aG9uJywgJy1waHQnLCAnMi4wJywgJy1waCcsICc3LjAnLCAnLXRuJywgJzgnLCAnLW1hJywgJzIwMCcsICctaW1hZScsICc8aW5maWxlLm1hZT4nLCAnLW9tYWUnLCAnPG91dGZpbGUubWFlPic=

>  <r_lp_tautomer_probability>  (249) 
1

>  <r_epik_Ionization_Penalty>  (249) 
3.35702e-07

>  <r_epik_Ionization_Penalty_Charging>  (249) 
0

>  <r_epik_Ionization_Penalty_Neutral>  (249) 
3.35702e-07

>  <r_epik_State_Penalty>  (249) 
-0

>  <r_epik_Charging_Adjusted_Penalty>  (249) 
0

>  <i_epik_Tot_Q>  (249) 
0

>  <i_epik_Tot_abs_Q>  (249) 
0

>  <s_lp_Force_Field>  (249) 
OPLS3e

>  <r_lp_Energy>  (249) 
411.903

>  <b_lp_Chiralities_Consistent>  (249) 
1

>  <s_lp_Variant>  (249) 
83:0-1

>  <s_i_glide_gridfile>  (249) 
pfpi4k_grid

>  <i_i_glide_lignum>  (249) 
36

>  <i_i_glide_rotatable_bonds>  (249) 
6

>  <r_i_docking_score>  (249) 
-2.43415

>  <r_i_glide_ligand_efficiency>  (249) 
-0.073762

>  <r_i_glide_ligand_efficiency_sa>  (249) 
-0.236594

>  <r_i_glide_ligand_efficiency_ln>  (249) 
-0.541341

>  <r_i_glide_gscore>  (249) 
-2.43415

>  <r_i_glide_lipo>  (249) 
-0.755606

>  <r_i_glide_hbond>  (249) 
0

>  <r_i_glide_metal>  (249) 
-0

>  <r_i_glide_rewards>  (249) 
-0.378304

>  <r_i_glide_evdw>  (249) 
-27.4601

>  <r_i_glide_ecoul>  (249) 
-1.5389

>  <r_i_glide_erotb>  (249) 
0.303604

>  <r_i_glide_esite>  (249) 
0

>  <r_i_glide_emodel>  (249) 
-33.7758

>  <r_i_glide_energy>  (249) 
-28.999

>  <r_i_glide_einternal>  (249) 
0.402581

>  <r_i_glide_intrahb_reward>  (249) 
-0

>  <i_i_glide_confnum>  (249) 
1

>  <i_i_glide_posenum>  (249) 
39

>  <r_i_glide_eff_state_penalty>  (249) 
0

>  <ligand_id>  (249) 
83

>  <original_smiles>  (249) 
COc1ccc2c(c1)C13CCC4(C(COCc5ccccc5)C1)C1C(=O)CCC4(O)C3C1C2

>  <smiles>  (249) 
[H]OC12C([H])([H])C([H])([H])C(=O)C3([H])C4([H])C([H])([H])c5c([H])c([H])c(OC([H])([H])[H])c([H])c5C5(C([H])([H])C([H])([H])C31C([H])(C([H])([H])OC([H])([H])c1c([H])c([H])c([H])c([H])c1[H])C5([H])[H])C42[H]

$$$$
84:0:0
     RDKit          3D

 49 53  0  0  1  0  0  0  0  0999 V2000
    5.3502   -3.8480    4.1867 C   0  0  0  0  0  0  0  0  0  0  0  0
    4.1731   -4.6933    3.6605 C   0  0  2  0  0  0  0  0  0  0  0  0
    3.0410   -4.5112    4.6690 C   0  0  0  0  0  0  0  0  0  0  0  0
    2.5094   -5.4839    5.4342 C   0  0  0  0  0  0  0  0  0  0  0  0
    3.0059   -6.8678    5.3215 C   0  0  0  0  0  0  0  0  0  0  0  0
    2.5244   -7.7610    6.0098 O   0  0  0  0  0  0  0  0  0  0  0  0
    4.0878   -7.1368    4.3587 C   0  0  0  0  0  0  0  0  0  0  0  0
    4.6338   -6.1628    3.6168 C   0  0  0  0  0  0  0  0  0  0  0  0
    5.7206   -6.4897    2.5951 C   0  0  1  0  0  0  0  0  0  0  0  0
    5.6070   -7.7477    2.1573 F   0  0  0  0  0  0  0  0  0  0  0  0
    5.7036   -5.5796    1.3517 C   0  0  0  0  0  0  0  0  0  0  0  0
    4.2891   -5.0639    1.0373 C   0  0  1  0  0  0  0  0  0  0  0  0
    3.6696   -4.2724    2.2303 C   0  0  2  0  0  0  0  0  0  0  0  0
    3.4936   -2.7492    1.9545 C   0  0  1  0  0  0  0  0  0  0  0  0
    4.7163   -2.0332    1.9006 O   0  0  0  0  0  0  0  0  0  0  0  0
    2.6871   -2.4978    0.6585 C   0  0  0  0  0  0  0  0  0  0  0  0
    3.1697   -3.2440   -0.6047 C   0  0  2  0  0  0  0  0  0  0  0  0
    1.9270   -3.6568   -1.4030 C   0  0  0  0  0  0  0  0  0  0  0  0
    4.2177   -4.3559   -0.3325 C   0  0  1  0  0  0  0  0  0  0  0  0
    5.3390   -3.4351   -0.8463 C   0  0  0  0  0  0  0  0  0  0  0  0
    4.2652   -2.5648   -1.4547 C   0  0  2  0  0  0  0  0  0  0  0  0
    4.4621   -1.0924   -1.2983 C   0  0  0  0  0  0  0  0  0  0  0  0
    4.4066   -0.5118   -2.4855 C   0  0  0  0  0  0  0  0  0  0  0  0
    4.1899   -1.5301   -3.4967 C   0  0  0  0  0  0  0  0  0  0  0  0
    4.1080   -1.3232   -4.7166 O   0  0  0  0  0  0  0  0  0  0  0  0
    4.1433   -2.7226   -2.8710 O   0  0  0  0  0  0  0  0  0  0  0  0
    5.7376   -4.2432    5.1274 H   0  0  0  0  0  0  0  0  0  0  0  0
    5.0684   -2.8128    4.3737 H   0  0  0  0  0  0  0  0  0  0  0  0
    6.1696   -3.8387    3.4730 H   0  0  0  0  0  0  0  0  0  0  0  0
    2.6700   -3.4997    4.7911 H   0  0  0  0  0  0  0  0  0  0  0  0
    1.7232   -5.2898    6.1476 H   0  0  0  0  0  0  0  0  0  0  0  0
    4.4186   -8.1638    4.2864 H   0  0  0  0  0  0  0  0  0  0  0  0
    6.6943   -6.4260    3.0792 H   0  0  0  0  0  0  0  0  0  0  0  0
    6.3572   -4.7214    1.5165 H   0  0  0  0  0  0  0  0  0  0  0  0
    6.1169   -6.1094    0.4923 H   0  0  0  0  0  0  0  0  0  0  0  0
    3.6919   -5.9705    0.9444 H   0  0  0  0  0  0  0  0  0  0  0  0
    2.6372   -4.6239    2.2168 H   0  0  0  0  0  0  0  0  0  0  0  0
    2.9235   -2.3141    2.7864 H   0  0  0  0  0  0  0  0  0  0  0  0
    4.5014   -1.1191    1.7895 H   0  0  0  0  0  0  0  0  0  0  0  0
    1.6930   -2.8212    0.9249 H   0  0  0  0  0  0  0  0  0  0  0  0
    2.5785   -1.4276    0.4835 H   0  0  0  0  0  0  0  0  0  0  0  0
    2.1899   -4.0804   -2.3618 H   0  0  0  0  0  0  0  0  0  0  0  0
    1.3208   -2.8143   -1.7191 H   0  0  0  0  0  0  0  0  0  0  0  0
    1.3049   -4.3890   -0.8888 H   0  0  0  0  0  0  0  0  0  0  0  0
    4.1395   -5.0965   -1.1178 H   0  0  0  0  0  0  0  0  0  0  0  0
    5.9098   -2.9603   -0.0476 H   0  0  0  0  0  0  0  0  0  0  0  0
    5.9968   -3.9105   -1.5758 H   0  0  0  0  0  0  0  0  0  0  0  0
    4.6128   -0.5732   -0.3677 H   0  0  0  0  0  0  0  0  0  0  0  0
    4.5118    0.5404   -2.7031 H   0  0  0  0  0  0  0  0  0  0  0  0
  2  1  1  1
  1 27  1  0
  1 28  1  0
  1 29  1  0
  2  8  1  0
  2 13  1  0
  2  3  1  0
  3  4  2  0
  3 30  1  0
  4  5  1  0
  4 31  1  0
  5  6  2  0
  5  7  1  0
  7  8  2  0
  7 32  1  0
  8  9  1  0
  9 10  1  0
  9 11  1  0
  9 33  1  1
 11 12  1  0
 11 34  1  0
 11 35  1  0
 12 19  1  0
 12 13  1  0
 12 36  1  6
 13 14  1  0
 13 37  1  1
 14 15  1  0
 14 16  1  0
 14 38  1  1
 15 39  1  0
 16 17  1  0
 16 40  1  0
 16 41  1  0
 17 21  1  0
 17 18  1  6
 17 19  1  0
 18 42  1  0
 18 43  1  0
 18 44  1  0
 19 20  1  0
 19 45  1  6
 20 21  1  0
 20 46  1  0
 20 47  1  0
 21 26  1  6
 21 22  1  0
 22 23  2  0
 22 48  1  0
 23 24  1  0
 23 49  1  0
 24 25  2  0
 24 26  1  0
M  END
>  <i_m_ct_stereo_status>  (250) 
1

>  <s_m_source_file>  (250) 
/var/tmp/pbs.5076255.sched01/tmpbhhv4xqx/80i1gy0gug.sdf

>  <i_m_source_file_index>  (250) 
37

>  <i_lp_mmshare_version>  (250) 
48012

>  <i_f3d_flags>  (250) 
0

>  <s_epik_input>  (250) 
W0NIXTE9W0NIXUMoPU8pW0NIXT1DKFtDQEBIXShGKVtDSDJdMilbQ0BAXTEoW0NIM10pW0NAQEhdKFtDQEBIXShbT0hdKVtDSDJdMylbQ0BIXTJbQ0BIXShbQ0gyXTQpW0NAXTMoW0NIM10pW0NAQF00NVtDSF09W0NIXUMoPU8pTzU=

>  <s_epik_cmdline>  (250) 
J2VwaWtfcHl0aG9uJywgJy1waHQnLCAnMi4wJywgJy1waCcsICc3LjAnLCAnLXRuJywgJzgnLCAnLW1hJywgJzIwMCcsICctaW1hZScsICc8aW5maWxlLm1hZT4nLCAnLW9tYWUnLCAnPG91dGZpbGUubWFlPic=

>  <r_lp_tautomer_probability>  (250) 
1

>  <r_epik_Ionization_Penalty>  (250) 
5.32683e-08

>  <r_epik_Ionization_Penalty_Charging>  (250) 
0

>  <r_epik_Ionization_Penalty_Neutral>  (250) 
5.32683e-08

>  <r_epik_State_Penalty>  (250) 
-0

>  <r_epik_Charging_Adjusted_Penalty>  (250) 
0

>  <i_epik_Tot_Q>  (250) 
0

>  <i_epik_Tot_abs_Q>  (250) 
0

>  <s_epik_Chemistry_Notes>  (250) 
This compound has an ester and may undergo hydrolysis at high or low pH.

>  <s_lp_Force_Field>  (250) 
OPLS3e

>  <r_lp_Energy>  (250) 
46.3383

>  <b_lp_Chiralities_Consistent>  (250) 
1

>  <s_lp_Variant>  (250) 
84:0-1

>  <s_i_glide_gridfile>  (250) 
pfpi4k_grid

>  <i_i_glide_lignum>  (250) 
37

>  <i_i_glide_rotatable_bonds>  (250) 
1

>  <r_i_docking_score>  (250) 
-3.32098

>  <r_i_glide_ligand_efficiency>  (250) 
-0.12773

>  <r_i_glide_ligand_efficiency_sa>  (250) 
-0.3784

>  <r_i_glide_ligand_efficiency_ln>  (250) 
-0.779922

>  <r_i_glide_gscore>  (250) 
-3.32098

>  <r_i_glide_lipo>  (250) 
-0.287945

>  <r_i_glide_hbond>  (250) 
-0.32

>  <r_i_glide_metal>  (250) 
-0

>  <r_i_glide_rewards>  (250) 
-1.24945

>  <r_i_glide_evdw>  (250) 
-16.5503

>  <r_i_glide_ecoul>  (250) 
-4.24051

>  <r_i_glide_erotb>  (250) 
0

>  <r_i_glide_esite>  (250) 
0

>  <r_i_glide_emodel>  (250) 
-23.8352

>  <r_i_glide_energy>  (250) 
-20.7908

>  <r_i_glide_einternal>  (250) 
0.330608

>  <r_i_glide_intrahb_reward>  (250) 
-0

>  <i_i_glide_confnum>  (250) 
2

>  <i_i_glide_posenum>  (250) 
1

>  <r_i_glide_eff_state_penalty>  (250) 
0

>  <ligand_id>  (250) 
84

>  <original_smiles>  (250) 
CC12C=CC(=O)C=C1C(F)CC1C2C(O)CC2(C)C1CC21C=CC(=O)O1

>  <smiles>  (250) 
[H]OC1([H])C([H])([H])C2(C([H])([H])[H])C3(OC(=O)C([H])=C3[H])C([H])([H])C2([H])C2([H])C([H])([H])C([H])(F)C3=C([H])C(=O)C([H])=C([H])C3(C([H])([H])[H])C12[H]

$$$$
84:0:1
     RDKit          3D

 49 53  0  0  1  0  0  0  0  0999 V2000
    5.3360   -3.7282    4.1850 C   0  0  0  0  0  0  0  0  0  0  0  0
    4.2196   -4.6320    3.6344 C   0  0  2  0  0  0  0  0  0  0  0  0
    3.0644   -4.5260    4.6294 C   0  0  0  0  0  0  0  0  0  0  0  0
    2.5810   -5.5383    5.3717 C   0  0  0  0  0  0  0  0  0  0  0  0
    3.1481   -6.8907    5.2630 C   0  0  0  0  0  0  0  0  0  0  0  0
    2.7090   -7.8203    5.9339 O   0  0  0  0  0  0  0  0  0  0  0  0
    4.2545   -7.0882    4.3197 C   0  0  0  0  0  0  0  0  0  0  0  0
    4.7618   -6.0759    3.5832 C   0  0  0  0  0  0  0  0  0  0  0  0
    5.8892   -6.3367    2.5745 C   0  0  1  0  0  0  0  0  0  0  0  0
    5.8436   -7.5963    2.1284 F   0  0  0  0  0  0  0  0  0  0  0  0
    5.8336   -5.4105    1.3449 C   0  0  0  0  0  0  0  0  0  0  0  0
    4.3958   -4.9773    1.0094 C   0  0  1  0  0  0  0  0  0  0  0  0
    3.7115   -4.2310    2.1973 C   0  0  2  0  0  0  0  0  0  0  0  0
    3.4565   -2.7235    1.9356 C   0  0  1  0  0  0  0  0  0  0  0  0
    4.6316   -1.9368    1.9049 O   0  0  0  0  0  0  0  0  0  0  0  0
    2.6655   -2.5047    0.6317 C   0  0  0  0  0  0  0  0  0  0  0  0
    3.1996   -3.2202   -0.6351 C   0  0  2  0  0  0  0  0  0  0  0  0
    1.9856   -3.7146   -1.4480 C   0  0  0  0  0  0  0  0  0  0  0  0
    4.3026   -4.2778   -0.3607 C   0  0  1  0  0  0  0  0  0  0  0  0
    5.3838   -3.2942   -0.8424 C   0  0  0  0  0  0  0  0  0  0  0  0
    4.2694   -2.4748   -1.4729 C   0  0  2  0  0  0  0  0  0  0  0  0
    4.3830   -0.9953   -1.3057 C   0  0  0  0  0  0  0  0  0  0  0  0
    4.3114   -0.4034   -2.4970 C   0  0  0  0  0  0  0  0  0  0  0  0
    4.1753   -1.4233   -3.5185 C   0  0  0  0  0  0  0  0  0  0  0  0
    4.1073   -1.2176   -4.7224 O   0  0  0  0  0  0  0  0  0  0  0  0
    4.1717   -2.6246   -2.8909 O   0  0  0  0  0  0  0  0  0  0  0  0
    5.7354   -4.1148    5.1264 H   0  0  0  0  0  0  0  0  0  0  0  0
    4.9915   -2.7156    4.3905 H   0  0  0  0  0  0  0  0  0  0  0  0
    6.1576   -3.6667    3.4804 H   0  0  0  0  0  0  0  0  0  0  0  0
    2.6315   -3.5383    4.7534 H   0  0  0  0  0  0  0  0  0  0  0  0
    1.7735   -5.3934    6.0752 H   0  0  0  0  0  0  0  0  0  0  0  0
    4.6506   -8.0867    4.2319 H   0  0  0  0  0  0  0  0  0  0  0  0
    6.8492   -6.2182    3.0806 H   0  0  0  0  0  0  0  0  0  0  0  0
    6.4373   -4.5211    1.5215 H   0  0  0  0  0  0  0  0  0  0  0  0
    6.2856   -5.9102    0.4873 H   0  0  0  0  0  0  0  0  0  0  0  0
    3.8509   -5.9164    0.9057 H   0  0  0  0  0  0  0  0  0  0  0  0
    2.7032   -4.6450    2.1678 H   0  0  0  0  0  0  0  0  0  0  0  0
    2.8474   -2.3268    2.7533 H   0  0  0  0  0  0  0  0  0  0  0  0
    5.0537   -2.0082    2.7490 H   0  0  0  0  0  0  0  0  0  0  0  0
    1.6868   -2.8900    0.8590 H   0  0  0  0  0  0  0  0  0  0  0  0
    2.5107   -1.4361    0.4837 H   0  0  0  0  0  0  0  0  0  0  0  0
    2.2766   -4.2131   -2.3671 H   0  0  0  0  0  0  0  0  0  0  0  0
    1.3558   -2.9016   -1.7989 H   0  0  0  0  0  0  0  0  0  0  0  0
    1.3776   -4.4323   -0.8989 H   0  0  0  0  0  0  0  0  0  0  0  0
    4.2433   -5.0450   -1.1313 H   0  0  0  0  0  0  0  0  0  0  0  0
    5.9096   -2.7758   -0.0398 H   0  0  0  0  0  0  0  0  0  0  0  0
    6.0795   -3.7214   -1.5634 H   0  0  0  0  0  0  0  0  0  0  0  0
    4.4847   -0.4879   -0.3601 H   0  0  0  0  0  0  0  0  0  0  0  0
    4.3553    0.6505   -2.7085 H   0  0  0  0  0  0  0  0  0  0  0  0
  2  1  1  1
  1 27  1  0
  1 28  1  0
  1 29  1  0
  2  8  1  0
  2 13  1  0
  2  3  1  0
  3  4  2  0
  3 30  1  0
  4  5  1  0
  4 31  1  0
  5  6  2  0
  5  7  1  0
  7  8  2  0
  7 32  1  0
  8  9  1  0
  9 10  1  0
  9 11  1  0
  9 33  1  1
 11 12  1  0
 11 34  1  0
 11 35  1  0
 12 19  1  0
 12 13  1  0
 12 36  1  6
 13 14  1  0
 13 37  1  1
 14 15  1  0
 14 16  1  0
 14 38  1  1
 15 39  1  0
 16 17  1  0
 16 40  1  0
 16 41  1  0
 17 21  1  0
 17 18  1  6
 17 19  1  0
 18 42  1  0
 18 43  1  0
 18 44  1  0
 19 20  1  0
 19 45  1  6
 20 21  1  0
 20 46  1  0
 20 47  1  0
 21 26  1  6
 21 22  1  0
 22 23  2  0
 22 48  1  0
 23 24  1  0
 23 49  1  0
 24 25  2  0
 24 26  1  0
M  END
>  <i_m_ct_stereo_status>  (251) 
1

>  <s_m_source_file>  (251) 
/var/tmp/pbs.5076255.sched01/tmpbhhv4xqx/80i1gy0gug.sdf

>  <i_m_source_file_index>  (251) 
37

>  <i_lp_mmshare_version>  (251) 
48012

>  <i_f3d_flags>  (251) 
0

>  <s_epik_input>  (251) 
W0NIXTE9W0NIXUMoPU8pW0NIXT1DKFtDQEBIXShGKVtDSDJdMilbQ0BAXTEoW0NIM10pW0NAQEhdKFtDQEBIXShbT0hdKVtDSDJdMylbQ0BIXTJbQ0BIXShbQ0gyXTQpW0NAXTMoW0NIM10pW0NAQF00NVtDSF09W0NIXUMoPU8pTzU=

>  <s_epik_cmdline>  (251) 
J2VwaWtfcHl0aG9uJywgJy1waHQnLCAnMi4wJywgJy1waCcsICc3LjAnLCAnLXRuJywgJzgnLCAnLW1hJywgJzIwMCcsICctaW1hZScsICc8aW5maWxlLm1hZT4nLCAnLW9tYWUnLCAnPG91dGZpbGUubWFlPic=

>  <r_lp_tautomer_probability>  (251) 
1

>  <r_epik_Ionization_Penalty>  (251) 
5.32683e-08

>  <r_epik_Ionization_Penalty_Charging>  (251) 
0

>  <r_epik_Ionization_Penalty_Neutral>  (251) 
5.32683e-08

>  <r_epik_State_Penalty>  (251) 
-0

>  <r_epik_Charging_Adjusted_Penalty>  (251) 
0

>  <i_epik_Tot_Q>  (251) 
0

>  <i_epik_Tot_abs_Q>  (251) 
0

>  <s_epik_Chemistry_Notes>  (251) 
This compound has an ester and may undergo hydrolysis at high or low pH.

>  <s_lp_Force_Field>  (251) 
OPLS3e

>  <r_lp_Energy>  (251) 
46.3383

>  <b_lp_Chiralities_Consistent>  (251) 
1

>  <s_lp_Variant>  (251) 
84:0-1

>  <s_i_glide_gridfile>  (251) 
pfpi4k_grid

>  <i_i_glide_lignum>  (251) 
37

>  <i_i_glide_rotatable_bonds>  (251) 
1

>  <r_i_docking_score>  (251) 
-3.26948

>  <r_i_glide_ligand_efficiency>  (251) 
-0.125749

>  <r_i_glide_ligand_efficiency_sa>  (251) 
-0.372531

>  <r_i_glide_ligand_efficiency_ln>  (251) 
-0.767826

>  <r_i_glide_gscore>  (251) 
-3.26948

>  <r_i_glide_lipo>  (251) 
-0.34741

>  <r_i_glide_hbond>  (251) 
-0.32

>  <r_i_glide_metal>  (251) 
-0

>  <r_i_glide_rewards>  (251) 
-1.27463

>  <r_i_glide_evdw>  (251) 
-15.6151

>  <r_i_glide_ecoul>  (251) 
-3.64453

>  <r_i_glide_erotb>  (251) 
0

>  <r_i_glide_esite>  (251) 
0

>  <r_i_glide_emodel>  (251) 
-22.3241

>  <r_i_glide_energy>  (251) 
-19.2596

>  <r_i_glide_einternal>  (251) 
0.327201

>  <r_i_glide_intrahb_reward>  (251) 
-0

>  <i_i_glide_confnum>  (251) 
1

>  <i_i_glide_posenum>  (251) 
5

>  <r_i_glide_eff_state_penalty>  (251) 
0

>  <ligand_id>  (251) 
84

>  <original_smiles>  (251) 
CC12C=CC(=O)C=C1C(F)CC1C2C(O)CC2(C)C1CC21C=CC(=O)O1

>  <smiles>  (251) 
[H]OC1([H])C([H])([H])C2(C([H])([H])[H])C3(OC(=O)C([H])=C3[H])C([H])([H])C2([H])C2([H])C([H])([H])C([H])(F)C3=C([H])C(=O)C([H])=C([H])C3(C([H])([H])[H])C12[H]

$$$$
84:0:2
     RDKit          3D

 49 53  0  0  1  0  0  0  0  0999 V2000
    5.2196   -2.7551    4.9359 C   0  0  0  0  0  0  0  0  0  0  0  0
    4.1386   -3.7740    4.5230 C   0  0  2  0  0  0  0  0  0  0  0  0
    2.9523   -3.5200    5.4550 C   0  0  0  0  0  0  0  0  0  0  0  0
    2.4679   -4.3900    6.3585 C   0  0  0  0  0  0  0  0  0  0  0  0
    3.0613   -5.7236    6.5123 C   0  0  0  0  0  0  0  0  0  0  0  0
    2.6198   -6.5245    7.3309 O   0  0  0  0  0  0  0  0  0  0  0  0
    4.1979   -6.0645    5.6485 C   0  0  0  0  0  0  0  0  0  0  0  0
    4.7066   -5.1908    4.7505 C   0  0  0  0  0  0  0  0  0  0  0  0
    5.8635   -5.6042    3.8317 C   0  0  1  0  0  0  0  0  0  0  0  0
    5.8520   -6.9230    3.6290 F   0  0  0  0  0  0  0  0  0  0  0  0
    5.8229   -4.9216    2.4510 C   0  0  0  0  0  0  0  0  0  0  0  0
    4.3882   -4.5943    2.0042 C   0  0  1  0  0  0  0  0  0  0  0  0
    3.6621   -3.6551    3.0233 C   0  0  2  0  0  0  0  0  0  0  0  0
    3.3776   -2.2289    2.4836 C   0  0  1  0  0  0  0  0  0  0  0  0
    4.5387   -1.4332    2.3379 O   0  0  0  0  0  0  0  0  0  0  0  0
    2.5986   -2.2802    1.1522 C   0  0  0  0  0  0  0  0  0  0  0  0
    3.2030   -3.1835    0.0452 C   0  0  2  0  0  0  0  0  0  0  0  0
    2.0340   -3.8409   -0.7036 C   0  0  0  0  0  0  0  0  0  0  0  0
    4.3151   -4.1556    0.5236 C   0  0  1  0  0  0  0  0  0  0  0  0
    5.3915   -3.2477   -0.0970 C   0  0  0  0  0  0  0  0  0  0  0  0
    4.2833   -2.5625   -0.8857 C   0  0  2  0  0  0  0  0  0  0  0  0
    4.3697   -1.0669   -0.9840 C   0  0  0  0  0  0  0  0  0  0  0  0
    4.3333   -0.6909   -2.2608 C   0  0  0  0  0  0  0  0  0  0  0  0
    4.2376   -1.8894   -3.0904 C   0  0  0  0  0  0  0  0  0  0  0  0
    4.1996   -1.9160   -4.3176 O   0  0  0  0  0  0  0  0  0  0  0  0
    4.2329   -2.9606   -2.2552 O   0  0  0  0  0  0  0  0  0  0  0  0
    5.5921   -2.9573    5.9430 H   0  0  0  0  0  0  0  0  0  0  0  0
    4.8484   -1.7316    4.9426 H   0  0  0  0  0  0  0  0  0  0  0  0
    6.0731   -2.7888    4.2714 H   0  0  0  0  0  0  0  0  0  0  0  0
    2.4970   -2.5391    5.3910 H   0  0  0  0  0  0  0  0  0  0  0  0
    1.6378   -4.1332    7.0041 H   0  0  0  0  0  0  0  0  0  0  0  0
    4.6155   -7.0545    5.7533 H   0  0  0  0  0  0  0  0  0  0  0  0
    6.8054   -5.3813    4.3321 H   0  0  0  0  0  0  0  0  0  0  0  0
    6.3994   -3.9997    2.4729 H   0  0  0  0  0  0  0  0  0  0  0  0
    6.3147   -5.5597    1.7143 H   0  0  0  0  0  0  0  0  0  0  0  0
    3.8645   -5.5496    2.0648 H   0  0  0  0  0  0  0  0  0  0  0  0
    2.6631   -4.0912    3.0460 H   0  0  0  0  0  0  0  0  0  0  0  0
    2.7495   -1.7006    3.2038 H   0  0  0  0  0  0  0  0  0  0  0  0
    4.9435   -1.3431    3.1879 H   0  0  0  0  0  0  0  0  0  0  0  0
    1.6111   -2.6484    1.4199 H   0  0  0  0  0  0  0  0  0  0  0  0
    2.4149   -1.2680    0.7928 H   0  0  0  0  0  0  0  0  0  0  0  0
    2.3782   -4.4775   -1.5039 H   0  0  0  0  0  0  0  0  0  0  0  0
    1.3929   -3.1029   -1.1857 H   0  0  0  0  0  0  0  0  0  0  0  0
    1.4439   -4.4980   -0.0668 H   0  0  0  0  0  0  0  0  0  0  0  0
    4.2820   -5.0428   -0.1104 H   0  0  0  0  0  0  0  0  0  0  0  0
    5.8818   -2.5879    0.6164 H   0  0  0  0  0  0  0  0  0  0  0  0
    6.1226   -3.7758   -0.7094 H   0  0  0  0  0  0  0  0  0  0  0  0
    4.4379   -0.4057   -0.1356 H   0  0  0  0  0  0  0  0  0  0  0  0
    4.3700    0.3145   -2.6429 H   0  0  0  0  0  0  0  0  0  0  0  0
  2  1  1  1
  1 27  1  0
  1 28  1  0
  1 29  1  0
  2  8  1  0
  2 13  1  0
  2  3  1  0
  3  4  2  0
  3 30  1  0
  4  5  1  0
  4 31  1  0
  5  6  2  0
  5  7  1  0
  7  8  2  0
  7 32  1  0
  8  9  1  0
  9 10  1  0
  9 11  1  0
  9 33  1  1
 11 12  1  0
 11 34  1  0
 11 35  1  0
 12 19  1  0
 12 13  1  0
 12 36  1  6
 13 14  1  0
 13 37  1  1
 14 15  1  0
 14 16  1  0
 14 38  1  1
 15 39  1  0
 16 17  1  0
 16 40  1  0
 16 41  1  0
 17 21  1  0
 17 18  1  6
 17 19  1  0
 18 42  1  0
 18 43  1  0
 18 44  1  0
 19 20  1  0
 19 45  1  6
 20 21  1  0
 20 46  1  0
 20 47  1  0
 21 26  1  6
 21 22  1  0
 22 23  2  0
 22 48  1  0
 23 24  1  0
 23 49  1  0
 24 25  2  0
 24 26  1  0
M  END
>  <i_m_ct_stereo_status>  (252) 
1

>  <s_m_source_file>  (252) 
/var/tmp/pbs.5076255.sched01/tmpbhhv4xqx/80i1gy0gug.sdf

>  <i_m_source_file_index>  (252) 
37

>  <i_lp_mmshare_version>  (252) 
48012

>  <i_f3d_flags>  (252) 
0

>  <s_epik_input>  (252) 
W0NIXTE9W0NIXUMoPU8pW0NIXT1DKFtDQEBIXShGKVtDSDJdMilbQ0BAXTEoW0NIM10pW0NAQEhdKFtDQEBIXShbT0hdKVtDSDJdMylbQ0BIXTJbQ0BIXShbQ0gyXTQpW0NAXTMoW0NIM10pW0NAQF00NVtDSF09W0NIXUMoPU8pTzU=

>  <s_epik_cmdline>  (252) 
J2VwaWtfcHl0aG9uJywgJy1waHQnLCAnMi4wJywgJy1waCcsICc3LjAnLCAnLXRuJywgJzgnLCAnLW1hJywgJzIwMCcsICctaW1hZScsICc8aW5maWxlLm1hZT4nLCAnLW9tYWUnLCAnPG91dGZpbGUubWFlPic=

>  <r_lp_tautomer_probability>  (252) 
1

>  <r_epik_Ionization_Penalty>  (252) 
5.32683e-08

>  <r_epik_Ionization_Penalty_Charging>  (252) 
0

>  <r_epik_Ionization_Penalty_Neutral>  (252) 
5.32683e-08

>  <r_epik_State_Penalty>  (252) 
-0

>  <r_epik_Charging_Adjusted_Penalty>  (252) 
0

>  <i_epik_Tot_Q>  (252) 
0

>  <i_epik_Tot_abs_Q>  (252) 
0

>  <s_epik_Chemistry_Notes>  (252) 
This compound has an ester and may undergo hydrolysis at high or low pH.

>  <s_lp_Force_Field>  (252) 
OPLS3e

>  <r_lp_Energy>  (252) 
46.3383

>  <b_lp_Chiralities_Consistent>  (252) 
1

>  <s_lp_Variant>  (252) 
84:0-1

>  <s_i_glide_gridfile>  (252) 
pfpi4k_grid

>  <i_i_glide_lignum>  (252) 
37

>  <i_i_glide_rotatable_bonds>  (252) 
1

>  <r_i_docking_score>  (252) 
-2.81215

>  <r_i_glide_ligand_efficiency>  (252) 
-0.10816

>  <r_i_glide_ligand_efficiency_sa>  (252) 
-0.320422

>  <r_i_glide_ligand_efficiency_ln>  (252) 
-0.660424

>  <r_i_glide_gscore>  (252) 
-2.81215

>  <r_i_glide_lipo>  (252) 
-0.143571

>  <r_i_glide_hbond>  (252) 
-0.32

>  <r_i_glide_metal>  (252) 
-0

>  <r_i_glide_rewards>  (252) 
-1.08801

>  <r_i_glide_evdw>  (252) 
-15.7049

>  <r_i_glide_ecoul>  (252) 
-3.16881

>  <r_i_glide_erotb>  (252) 
0

>  <r_i_glide_esite>  (252) 
0

>  <r_i_glide_emodel>  (252) 
-21.4835

>  <r_i_glide_energy>  (252) 
-18.8737

>  <r_i_glide_einternal>  (252) 
0.32594

>  <r_i_glide_intrahb_reward>  (252) 
-0

>  <i_i_glide_confnum>  (252) 
1

>  <i_i_glide_posenum>  (252) 
35

>  <r_i_glide_eff_state_penalty>  (252) 
0

>  <ligand_id>  (252) 
84

>  <original_smiles>  (252) 
CC12C=CC(=O)C=C1C(F)CC1C2C(O)CC2(C)C1CC21C=CC(=O)O1

>  <smiles>  (252) 
[H]OC1([H])C([H])([H])C2(C([H])([H])[H])C3(OC(=O)C([H])=C3[H])C([H])([H])C2([H])C2([H])C([H])([H])C([H])(F)C3=C([H])C(=O)C([H])=C([H])C3(C([H])([H])[H])C12[H]

$$$$
85:0:0
     RDKit          3D

 69 74  0  0  1  0  0  0  0  0999 V2000
    1.5441   -5.5404    2.3896 C   0  0  0  0  0  0  0  0  0  0  0  0
    2.5333   -4.6517    2.2016 C   0  0  0  0  0  0  0  0  0  0  0  0
    2.6827   -3.5215    3.1880 C   0  0  2  0  0  0  0  0  0  0  0  0
    3.1011   -2.1595    2.6403 C   0  0  0  0  0  0  0  0  0  0  0  0
    4.5542   -2.4351    3.0509 C   0  0  2  0  0  0  0  0  0  0  0  0
    5.1018   -1.2160    3.8159 C   0  0  0  0  0  0  0  0  0  0  0  0
    5.6350   -2.9367    2.0170 C   0  0  1  0  0  0  0  0  0  0  0  0
    6.1980   -4.4326    2.3016 C   0  0  1  0  0  0  0  0  0  0  0  0
    5.3970   -5.5130    3.0668 C   0  0  2  0  0  0  0  0  0  0  0  0
    4.7054   -6.4438    1.9566 C   0  0  0  0  0  0  0  0  0  0  0  0
    4.7586   -5.4570    0.7503 C   0  0  2  0  0  0  0  0  0  0  0  0
    4.8462   -5.5336   -0.7471 C   0  0  0  0  0  0  0  0  0  0  0  0
    4.7630   -4.1412   -1.5386 C   0  0  0  0  0  0  0  0  0  0  0  0
    4.9531   -2.5981   -0.9323 C   0  0  0  0  0  0  0  0  0  0  0  0
    5.6951   -1.8639   -2.0852 C   0  0  0  0  0  0  0  0  0  0  0  0
    3.5964   -1.8393   -0.9785 C   0  0  0  0  0  0  0  0  0  0  0  0
    5.7615   -2.3042    0.4944 C   0  0  1  0  0  0  0  0  0  0  0  0
    7.2861   -1.9993    0.3140 C   0  0  0  0  0  0  0  0  0  0  0  0
    8.1796   -3.2543    0.4133 C   0  0  0  0  0  0  0  0  0  0  0  0
    9.3951   -3.1548    0.6086 O   0  0  0  0  0  0  0  0  0  0  0  0
    7.5236   -4.6084    0.0876 C   0  0  1  0  0  0  0  0  0  0  0  0
    8.6314   -5.6646   -0.2298 C   0  0  0  0  0  0  0  0  0  0  0  0
    6.3434   -5.1464    1.0572 C   0  0  1  0  0  0  0  0  0  0  0  0
    3.3736   -4.6435    0.9267 C   0  0  1  0  0  0  0  0  0  0  0  0
    2.4290   -5.0336   -0.0655 O   0  0  0  0  0  0  0  0  0  0  0  0
    4.7114   -4.8813    4.3102 C   0  0  0  0  0  0  0  0  0  0  0  0
    3.8073   -5.9110    5.0114 C   0  0  0  0  0  0  0  0  0  0  0  0
    5.8113   -4.5516    5.3545 C   0  0  0  0  0  0  0  0  0  0  0  0
    3.9718   -3.5489    3.9788 C   0  0  2  0  0  0  0  0  0  0  0  0
    1.3620   -6.3379    1.6750 H   0  0  0  0  0  0  0  0  0  0  0  0
    0.9274   -5.4797    3.2717 H   0  0  0  0  0  0  0  0  0  0  0  0
    1.8170   -3.4405    3.8580 H   0  0  0  0  0  0  0  0  0  0  0  0
    2.9333   -1.9338    1.5959 H   0  0  0  0  0  0  0  0  0  0  0  0
    2.6543   -1.3730    3.2485 H   0  0  0  0  0  0  0  0  0  0  0  0
    5.9302   -1.5045    4.4357 H   0  0  0  0  0  0  0  0  0  0  0  0
    4.3869   -0.8336    4.5481 H   0  0  0  0  0  0  0  0  0  0  0  0
    5.4013   -0.3918    3.1612 H   0  0  0  0  0  0  0  0  0  0  0  0
    6.5023   -2.4585    2.4488 H   0  0  0  0  0  0  0  0  0  0  0  0
    7.2261   -4.5504    2.6094 H   0  0  0  0  0  0  0  0  0  0  0  0
    6.1490   -6.1855    3.4786 H   0  0  0  0  0  0  0  0  0  0  0  0
    5.3302   -7.3253    1.7668 H   0  0  0  0  0  0  0  0  0  0  0  0
    3.7317   -6.8622    2.2111 H   0  0  0  0  0  0  0  0  0  0  0  0
    5.8107   -5.9403   -0.9303 H   0  0  0  0  0  0  0  0  0  0  0  0
    4.2565   -6.3646   -1.1096 H   0  0  0  0  0  0  0  0  0  0  0  0
    5.4807   -4.2609   -2.3476 H   0  0  0  0  0  0  0  0  0  0  0  0
    3.8287   -4.1279   -2.0917 H   0  0  0  0  0  0  0  0  0  0  0  0
    5.7921   -0.8049   -1.8736 H   0  0  0  0  0  0  0  0  0  0  0  0
    5.1542   -1.9384   -3.0337 H   0  0  0  0  0  0  0  0  0  0  0  0
    6.6771   -2.2915   -2.2944 H   0  0  0  0  0  0  0  0  0  0  0  0
    3.6811   -0.8808   -0.4803 H   0  0  0  0  0  0  0  0  0  0  0  0
    2.7460   -2.3698   -0.5592 H   0  0  0  0  0  0  0  0  0  0  0  0
    3.2695   -1.6405   -2.0025 H   0  0  0  0  0  0  0  0  0  0  0  0
    5.6801   -3.2638    0.2054 H   0  0  0  0  0  0  0  0  0  0  0  0
    7.5309   -1.4752   -0.6016 H   0  0  0  0  0  0  0  0  0  0  0  0
    7.6128   -1.3047    1.0859 H   0  0  0  0  0  0  0  0  0  0  0  0
    7.1135   -4.2398   -0.8507 H   0  0  0  0  0  0  0  0  0  0  0  0
    9.2739   -5.3285   -1.0525 H   0  0  0  0  0  0  0  0  0  0  0  0
    8.2278   -6.6453   -0.4976 H   0  0  0  0  0  0  0  0  0  0  0  0
    9.2860   -5.8550    0.6258 H   0  0  0  0  0  0  0  0  0  0  0  0
    6.8494   -6.0860    1.2967 H   0  0  0  0  0  0  0  0  0  0  0  0
    3.5863   -3.6365    0.7397 H   0  0  0  0  0  0  0  0  0  0  0  0
    2.8905   -5.1151   -0.8921 H   0  0  0  0  0  0  0  0  0  0  0  0
    3.3086   -5.4621    5.8703 H   0  0  0  0  0  0  0  0  0  0  0  0
    4.3947   -6.7632    5.3717 H   0  0  0  0  0  0  0  0  0  0  0  0
    3.0469   -6.3130    4.3494 H   0  0  0  0  0  0  0  0  0  0  0  0
    5.3765   -4.1662    6.2746 H   0  0  0  0  0  0  0  0  0  0  0  0
    6.4979   -3.7871    5.0124 H   0  0  0  0  0  0  0  0  0  0  0  0
    6.4084   -5.4265    5.6275 H   0  0  0  0  0  0  0  0  0  0  0  0
    3.7088   -3.0647    4.9156 H   0  0  0  0  0  0  0  0  0  0  0  0
  1  2  2  0
  1 30  1  0
  1 31  1  0
  2 24  1  0
  2  3  1  0
  3 29  1  0
  3  4  1  0
  3 32  1  1
  4  5  1  0
  4 33  1  0
  4 34  1  0
  5 29  1  0
  5  6  1  1
  5  7  1  0
  6 35  1  0
  6 36  1  0
  6 37  1  0
  7 17  1  0
  7  8  1  0
  7 38  1  1
  8 23  1  0
  8  9  1  0
  8 39  1  1
  9 10  1  0
  9 26  1  0
  9 40  1  1
 10 11  1  0
 10 41  1  0
 10 42  1  0
 11 23  1  0
 11 12  1  6
 11 24  1  0
 12 13  1  0
 12 43  1  0
 12 44  1  0
 13 14  1  0
 13 45  1  0
 13 46  1  0
 14 15  1  0
 14 16  1  0
 14 17  1  0
 15 47  1  0
 15 48  1  0
 15 49  1  0
 16 50  1  0
 16 51  1  0
 16 52  1  0
 17 18  1  0
 17 53  1  1
 18 19  1  0
 18 54  1  0
 18 55  1  0
 19 20  2  0
 19 21  1  0
 21 22  1  0
 21 23  1  0
 21 56  1  6
 22 57  1  0
 22 58  1  0
 22 59  1  0
 23 60  1  1
 24 25  1  0
 24 61  1  6
 25 62  1  0
 26 27  1  0
 26 28  1  0
 26 29  1  0
 27 63  1  0
 27 64  1  0
 27 65  1  0
 28 66  1  0
 28 67  1  0
 28 68  1  0
 29 69  1  1
M  END
>  <i_m_ct_stereo_status>  (253) 
1

>  <s_m_source_file>  (253) 
/var/tmp/pbs.5076255.sched01/tmpbhhv4xqx/80i1gy0gug.sdf

>  <i_m_source_file_index>  (253) 
38

>  <i_lp_mmshare_version>  (253) 
48012

>  <i_f3d_flags>  (253) 
0

>  <s_epik_input>  (253) 
W09IXVtDQEhdMUMoPVtDSDJdKVtDQEhdKFtDSDJdMilbQ0BASF0oQyhbQ0gzXSkoW0NIM10pW0NASF0zW0NIMl00KVtDQEBdMihbQ0gzXSlbQ0BASF0oW0NAQEhdM1tDQEBIXTVbQ0BdMTQ2KVtDQEBIXShDKFtDSDNdKShbQ0gzXSlbQ0gyXVtDSDJdNilbQ0gyXUMoPU8pW0NASF01W0NIM10=

>  <s_epik_cmdline>  (253) 
J2VwaWtfcHl0aG9uJywgJy1waHQnLCAnMi4wJywgJy1waCcsICc3LjAnLCAnLXRuJywgJzgnLCAnLW1hJywgJzIwMCcsICctaW1hZScsICc8aW5maWxlLm1hZT4nLCAnLW9tYWUnLCAnPG91dGZpbGUubWFlPic=

>  <r_lp_tautomer_probability>  (253) 
1

>  <r_epik_Ionization_Penalty>  (253) 
1.74716e-07

>  <r_epik_Ionization_Penalty_Charging>  (253) 
0

>  <r_epik_Ionization_Penalty_Neutral>  (253) 
1.74716e-07

>  <r_epik_State_Penalty>  (253) 
-0

>  <r_epik_Charging_Adjusted_Penalty>  (253) 
0

>  <i_epik_Tot_Q>  (253) 
0

>  <i_epik_Tot_abs_Q>  (253) 
0

>  <s_lp_Force_Field>  (253) 
OPLS3e

>  <r_lp_Energy>  (253) 
292.529

>  <b_lp_Chiralities_Consistent>  (253) 
1

>  <s_lp_Variant>  (253) 
85:0-1

>  <s_i_glide_gridfile>  (253) 
pfpi4k_grid

>  <i_i_glide_lignum>  (253) 
38

>  <i_i_glide_rotatable_bonds>  (253) 
1

>  <r_i_docking_score>  (253) 
-2.73239

>  <r_i_glide_ligand_efficiency>  (253) 
-0.0942202

>  <r_i_glide_ligand_efficiency_sa>  (253) 
-0.289474

>  <r_i_glide_ligand_efficiency_ln>  (253) 
-0.625647

>  <r_i_glide_gscore>  (253) 
-2.73239

>  <r_i_glide_lipo>  (253) 
-0.568611

>  <r_i_glide_hbond>  (253) 
-0.344724

>  <r_i_glide_metal>  (253) 
-0

>  <r_i_glide_rewards>  (253) 
-1.02951

>  <r_i_glide_evdw>  (253) 
-5.43865

>  <r_i_glide_ecoul>  (253) 
-3.45076

>  <r_i_glide_erotb>  (253) 
0

>  <r_i_glide_esite>  (253) 
0

>  <r_i_glide_emodel>  (253) 
-7.8256

>  <r_i_glide_energy>  (253) 
-8.8894

>  <r_i_glide_einternal>  (253) 
0.809654

>  <r_i_glide_intrahb_reward>  (253) 
-0

>  <i_i_glide_confnum>  (253) 
2

>  <i_i_glide_posenum>  (253) 
6

>  <r_i_glide_eff_state_penalty>  (253) 
0

>  <ligand_id>  (253) 
85

>  <original_smiles>  (253) 
C=C1C2CC3(C)C4C5C(CC6(CCC(C)(C)C4CC(=O)C(C)C56)C1O)C(C)(C)C23

>  <smiles>  (253) 
[H]OC1([H])C(=C([H])[H])C2([H])C([H])([H])C3(C([H])([H])[H])C4([H])C5([H])C6([H])C([H])(C([H])([H])[H])C(=O)C([H])([H])C4([H])C(C([H])([H])[H])(C([H])([H])[H])C([H])([H])C([H])([H])C16C([H])([H])C5([H])C(C([H])([H])[H])(C([H])([H])[H])C23[H]

$$$$
85:0:1
     RDKit          3D

 69 74  0  0  1  0  0  0  0  0999 V2000
    2.2021   -7.8710    1.9578 C   0  0  0  0  0  0  0  0  0  0  0  0
    2.9008   -6.7518    2.2596 C   0  0  0  0  0  0  0  0  0  0  0  0
    3.5647   -6.6695    3.6168 C   0  0  2  0  0  0  0  0  0  0  0  0
    3.5520   -5.3274    4.3532 C   0  0  0  0  0  0  0  0  0  0  0  0
    4.9928   -5.0592    3.8823 C   0  0  2  0  0  0  0  0  0  0  0  0
    5.8739   -4.5979    5.0673 C   0  0  0  0  0  0  0  0  0  0  0  0
    5.2776   -4.1232    2.6458 C   0  0  1  0  0  0  0  0  0  0  0  0
    5.9866   -4.8629    1.4101 C   0  0  1  0  0  0  0  0  0  0  0  0
    5.8065   -6.3825    1.1230 C   0  0  2  0  0  0  0  0  0  0  0  0
    4.6241   -6.5128    0.0414 C   0  0  0  0  0  0  0  0  0  0  0  0
    3.9441   -5.1318    0.2001 C   0  0  2  0  0  0  0  0  0  0  0  0
    3.1341   -4.1439   -0.6799 C   0  0  0  0  0  0  0  0  0  0  0  0
    2.5926   -2.8540    0.1397 C   0  0  0  0  0  0  0  0  0  0  0  0
    3.0147   -2.3239    1.6649 C   0  0  0  0  0  0  0  0  0  0  0  0
    2.9394   -0.7782    1.4857 C   0  0  0  0  0  0  0  0  0  0  0  0
    1.8515   -2.5343    2.6850 C   0  0  0  0  0  0  0  0  0  0  0  0
    4.4730   -2.7094    2.3465 C   0  0  1  0  0  0  0  0  0  0  0  0
    5.5966   -1.6695    2.0318 C   0  0  0  0  0  0  0  0  0  0  0  0
    6.3881   -1.9924    0.7480 C   0  0  0  0  0  0  0  0  0  0  0  0
    7.5026   -1.5137    0.5640 O   0  0  0  0  0  0  0  0  0  0  0  0
    5.7229   -2.8863   -0.3234 C   0  0  1  0  0  0  0  0  0  0  0  0
    6.4810   -2.7774   -1.6669 C   0  0  0  0  0  0  0  0  0  0  0  0
    5.4091   -4.4001    0.1227 C   0  0  1  0  0  0  0  0  0  0  0  0
    2.8660   -5.4925    1.3739 C   0  0  1  0  0  0  0  0  0  0  0  0
    1.5296   -5.5093    0.8755 O   0  0  0  0  0  0  0  0  0  0  0  0
    5.9199   -7.2089    2.4415 C   0  0  0  0  0  0  0  0  0  0  0  0
    5.5959   -8.7014    2.2202 C   0  0  0  0  0  0  0  0  0  0  0  0
    7.4003   -7.1651    2.8955 C   0  0  0  0  0  0  0  0  0  0  0  0
    5.0750   -6.5946    3.6025 C   0  0  2  0  0  0  0  0  0  0  0  0
    1.6515   -7.9797    1.0287 H   0  0  0  0  0  0  0  0  0  0  0  0
    2.1974   -8.7101    2.6366 H   0  0  0  0  0  0  0  0  0  0  0  0
    3.2191   -7.4783    4.2677 H   0  0  0  0  0  0  0  0  0  0  0  0
    2.8003   -4.5933    4.0863 H   0  0  0  0  0  0  0  0  0  0  0  0
    3.4944   -5.4937    5.4269 H   0  0  0  0  0  0  0  0  0  0  0  0
    6.9383   -4.6933    4.8707 H   0  0  0  0  0  0  0  0  0  0  0  0
    5.7011   -5.2074    5.9503 H   0  0  0  0  0  0  0  0  0  0  0  0
    5.6697   -3.5647    5.3415 H   0  0  0  0  0  0  0  0  0  0  0  0
    6.2054   -3.6830    2.9942 H   0  0  0  0  0  0  0  0  0  0  0  0
    7.0586   -4.6578    1.4283 H   0  0  0  0  0  0  0  0  0  0  0  0
    6.6792   -6.6930    0.5370 H   0  0  0  0  0  0  0  0  0  0  0  0
    5.0047   -6.6141   -0.9722 H   0  0  0  0  0  0  0  0  0  0  0  0
    3.9976   -7.3955    0.1322 H   0  0  0  0  0  0  0  0  0  0  0  0
    3.6974   -3.8366   -1.5597 H   0  0  0  0  0  0  0  0  0  0  0  0
    2.2795   -4.6268   -1.1449 H   0  0  0  0  0  0  0  0  0  0  0  0
    2.6933   -2.0300   -0.5656 H   0  0  0  0  0  0  0  0  0  0  0  0
    1.5174   -2.9595    0.1413 H   0  0  0  0  0  0  0  0  0  0  0  0
    3.1510   -0.2479    2.4142 H   0  0  0  0  0  0  0  0  0  0  0  0
    1.9508   -0.4531    1.1609 H   0  0  0  0  0  0  0  0  0  0  0  0
    3.6176   -0.4136    0.7134 H   0  0  0  0  0  0  0  0  0  0  0  0
    2.1755   -2.2707    3.6917 H   0  0  0  0  0  0  0  0  0  0  0  0
    1.4158   -3.5275    2.7251 H   0  0  0  0  0  0  0  0  0  0  0  0
    0.9942   -1.9009    2.4577 H   0  0  0  0  0  0  0  0  0  0  0  0
    4.2853   -3.1274    1.4594 H   0  0  0  0  0  0  0  0  0  0  0  0
    5.2536   -0.6444    1.9648 H   0  0  0  0  0  0  0  0  0  0  0  0
    6.2844   -1.6338    2.8727 H   0  0  0  0  0  0  0  0  0  0  0  0
    4.8122   -2.3392   -0.5184 H   0  0  0  0  0  0  0  0  0  0  0  0
    6.5258   -1.7360   -1.9780 H   0  0  0  0  0  0  0  0  0  0  0  0
    5.9688   -3.3217   -2.4602 H   0  0  0  0  0  0  0  0  0  0  0  0
    7.5047   -3.1509   -1.6010 H   0  0  0  0  0  0  0  0  0  0  0  0
    5.9990   -4.8574   -0.6746 H   0  0  0  0  0  0  0  0  0  0  0  0
    2.8868   -4.7012    2.0622 H   0  0  0  0  0  0  0  0  0  0  0  0
    1.5015   -6.1767    0.2007 H   0  0  0  0  0  0  0  0  0  0  0  0
    5.6551   -9.2549    3.1567 H   0  0  0  0  0  0  0  0  0  0  0  0
    6.3023   -9.1600    1.5267 H   0  0  0  0  0  0  0  0  0  0  0  0
    4.6068   -8.8721    1.8128 H   0  0  0  0  0  0  0  0  0  0  0  0
    7.5564   -7.7566    3.7977 H   0  0  0  0  0  0  0  0  0  0  0  0
    7.7375   -6.1531    3.1172 H   0  0  0  0  0  0  0  0  0  0  0  0
    8.0733   -7.5699    2.1343 H   0  0  0  0  0  0  0  0  0  0  0  0
    5.3789   -7.0745    4.5285 H   0  0  0  0  0  0  0  0  0  0  0  0
  1  2  2  0
  1 30  1  0
  1 31  1  0
  2 24  1  0
  2  3  1  0
  3 29  1  0
  3  4  1  0
  3 32  1  1
  4  5  1  0
  4 33  1  0
  4 34  1  0
  5 29  1  0
  5  6  1  1
  5  7  1  0
  6 35  1  0
  6 36  1  0
  6 37  1  0
  7 17  1  0
  7  8  1  0
  7 38  1  1
  8 23  1  0
  8  9  1  0
  8 39  1  6
  9 10  1  0
  9 26  1  0
  9 40  1  6
 10 11  1  0
 10 41  1  0
 10 42  1  0
 11 23  1  0
 11 12  1  6
 11 24  1  0
 12 13  1  0
 12 43  1  0
 12 44  1  0
 13 14  1  0
 13 45  1  0
 13 46  1  0
 14 15  1  0
 14 16  1  0
 14 17  1  0
 15 47  1  0
 15 48  1  0
 15 49  1  0
 16 50  1  0
 16 51  1  0
 16 52  1  0
 17 18  1  0
 17 53  1  1
 18 19  1  0
 18 54  1  0
 18 55  1  0
 19 20  2  0
 19 21  1  0
 21 22  1  0
 21 23  1  0
 21 56  1  6
 22 57  1  0
 22 58  1  0
 22 59  1  0
 23 60  1  6
 24 25  1  0
 24 61  1  1
 25 62  1  0
 26 27  1  0
 26 28  1  0
 26 29  1  0
 27 63  1  0
 27 64  1  0
 27 65  1  0
 28 66  1  0
 28 67  1  0
 28 68  1  0
 29 69  1  1
M  END
>  <i_m_ct_stereo_status>  (254) 
1

>  <s_m_source_file>  (254) 
/var/tmp/pbs.5076255.sched01/tmpbhhv4xqx/80i1gy0gug.sdf

>  <i_m_source_file_index>  (254) 
38

>  <i_lp_mmshare_version>  (254) 
48012

>  <i_f3d_flags>  (254) 
0

>  <s_epik_input>  (254) 
W09IXVtDQEhdMUMoPVtDSDJdKVtDQEhdKFtDSDJdMilbQ0BASF0oQyhbQ0gzXSkoW0NIM10pW0NASF0zW0NIMl00KVtDQEBdMihbQ0gzXSlbQ0BASF0oW0NAQEhdM1tDQEBIXTVbQ0BdMTQ2KVtDQEBIXShDKFtDSDNdKShbQ0gzXSlbQ0gyXVtDSDJdNilbQ0gyXUMoPU8pW0NASF01W0NIM10=

>  <s_epik_cmdline>  (254) 
J2VwaWtfcHl0aG9uJywgJy1waHQnLCAnMi4wJywgJy1waCcsICc3LjAnLCAnLXRuJywgJzgnLCAnLW1hJywgJzIwMCcsICctaW1hZScsICc8aW5maWxlLm1hZT4nLCAnLW9tYWUnLCAnPG91dGZpbGUubWFlPic=

>  <r_lp_tautomer_probability>  (254) 
1

>  <r_epik_Ionization_Penalty>  (254) 
1.74716e-07

>  <r_epik_Ionization_Penalty_Charging>  (254) 
0

>  <r_epik_Ionization_Penalty_Neutral>  (254) 
1.74716e-07

>  <r_epik_State_Penalty>  (254) 
-0

>  <r_epik_Charging_Adjusted_Penalty>  (254) 
0

>  <i_epik_Tot_Q>  (254) 
0

>  <i_epik_Tot_abs_Q>  (254) 
0

>  <s_lp_Force_Field>  (254) 
OPLS3e

>  <r_lp_Energy>  (254) 
292.529

>  <b_lp_Chiralities_Consistent>  (254) 
1

>  <s_lp_Variant>  (254) 
85:0-1

>  <s_i_glide_gridfile>  (254) 
pfpi4k_grid

>  <i_i_glide_lignum>  (254) 
38

>  <i_i_glide_rotatable_bonds>  (254) 
1

>  <r_i_docking_score>  (254) 
-2.66826

>  <r_i_glide_ligand_efficiency>  (254) 
-0.0920088

>  <r_i_glide_ligand_efficiency_sa>  (254) 
-0.28268

>  <r_i_glide_ligand_efficiency_ln>  (254) 
-0.610963

>  <r_i_glide_gscore>  (254) 
-2.66826

>  <r_i_glide_lipo>  (254) 
-0.49892

>  <r_i_glide_hbond>  (254) 
-0.125027

>  <r_i_glide_metal>  (254) 
-0

>  <r_i_glide_rewards>  (254) 
-0.814197

>  <r_i_glide_evdw>  (254) 
-16.0108

>  <r_i_glide_ecoul>  (254) 
-2.86383

>  <r_i_glide_erotb>  (254) 
0

>  <r_i_glide_esite>  (254) 
0

>  <r_i_glide_emodel>  (254) 
-21.861

>  <r_i_glide_energy>  (254) 
-18.8746

>  <r_i_glide_einternal>  (254) 
0.00110904

>  <r_i_glide_intrahb_reward>  (254) 
-0

>  <i_i_glide_confnum>  (254) 
1

>  <i_i_glide_posenum>  (254) 
4

>  <r_i_glide_eff_state_penalty>  (254) 
0

>  <ligand_id>  (254) 
85

>  <original_smiles>  (254) 
C=C1C2CC3(C)C4C5C(CC6(CCC(C)(C)C4CC(=O)C(C)C56)C1O)C(C)(C)C23

>  <smiles>  (254) 
[H]OC1([H])C(=C([H])[H])C2([H])C([H])([H])C3(C([H])([H])[H])C4([H])C5([H])C6([H])C([H])(C([H])([H])[H])C(=O)C([H])([H])C4([H])C(C([H])([H])[H])(C([H])([H])[H])C([H])([H])C([H])([H])C16C([H])([H])C5([H])C(C([H])([H])[H])(C([H])([H])[H])C23[H]

$$$$
85:0:2
     RDKit          3D

 69 74  0  0  1  0  0  0  0  0999 V2000
    1.3971   -6.4627    0.5324 C   0  0  0  0  0  0  0  0  0  0  0  0
    2.3433   -5.6428    0.9895 C   0  0  0  0  0  0  0  0  0  0  0  0
    2.6687   -5.7592    2.4682 C   0  0  2  0  0  0  0  0  0  0  0  0
    2.8577   -4.4558    3.2242 C   0  0  0  0  0  0  0  0  0  0  0  0
    4.3841   -4.6517    3.1506 C   0  0  2  0  0  0  0  0  0  0  0  0
    5.0216   -4.4610    4.5355 C   0  0  0  0  0  0  0  0  0  0  0  0
    5.2601   -3.8451    2.1097 C   0  0  1  0  0  0  0  0  0  0  0  0
    6.0112   -4.7778    1.0663 C   0  0  1  0  0  0  0  0  0  0  0  0
    5.4938   -6.1809    0.6845 C   0  0  2  0  0  0  0  0  0  0  0  0
    4.6281   -5.9820   -0.6335 C   0  0  0  0  0  0  0  0  0  0  0  0
    4.3279   -4.4843   -0.6399 C   0  0  2  0  0  0  0  0  0  0  0  0
    4.1475   -3.3692   -1.6863 C   0  0  0  0  0  0  0  0  0  0  0  0
    3.7947   -1.9283   -0.9843 C   0  0  0  0  0  0  0  0  0  0  0  0
    3.9723   -1.4779    0.6218 C   0  0  0  0  0  0  0  0  0  0  0  0
    4.4726   -0.0359    0.5854 C   0  0  0  0  0  0  0  0  0  0  0  0
    2.5848   -1.3334    1.3086 C   0  0  0  0  0  0  0  0  0  0  0  0
    5.0136   -2.2544    1.6455 C   0  0  1  0  0  0  0  0  0  0  0  0
    6.4557   -1.6635    1.6640 C   0  0  0  0  0  0  0  0  0  0  0  0
    7.3901   -2.2075    0.5533 C   0  0  0  0  0  0  0  0  0  0  0  0
    8.6067   -2.0309    0.5453 O   0  0  0  0  0  0  0  0  0  0  0  0
    6.7548   -2.8719   -0.6489 C   0  0  1  0  0  0  0  0  0  0  0  0
    7.8502   -3.1087   -1.7239 C   0  0  0  0  0  0  0  0  0  0  0  0
    5.8716   -4.1514   -0.2693 C   0  0  1  0  0  0  0  0  0  0  0  0
    2.9120   -4.4605    0.1507 C   0  0  1  0  0  0  0  0  0  0  0  0
    1.8433   -4.1202   -0.7294 O   0  0  0  0  0  0  0  0  0  0  0  0
    4.9742   -7.0126    1.8868 C   0  0  0  0  0  0  0  0  0  0  0  0
    4.2985   -8.3501    1.4814 C   0  0  0  0  0  0  0  0  0  0  0  0
    6.2203   -7.4281    2.6975 C   0  0  0  0  0  0  0  0  0  0  0  0
    4.0859   -6.1586    2.8136 C   0  0  2  0  0  0  0  0  0  0  0  0
    1.0993   -6.3953   -0.5048 H   0  0  0  0  0  0  0  0  0  0  0  0
    0.9726   -7.2900    1.1304 H   0  0  0  0  0  0  0  0  0  0  0  0
    1.9467   -6.4226    2.9565 H   0  0  0  0  0  0  0  0  0  0  0  0
    2.4542   -3.5560    2.7798 H   0  0  0  0  0  0  0  0  0  0  0  0
    2.4507   -4.5751    4.2242 H   0  0  0  0  0  0  0  0  0  0  0  0
    6.0349   -4.8660    4.5727 H   0  0  0  0  0  0  0  0  0  0  0  0
    4.4426   -4.9796    5.3098 H   0  0  0  0  0  0  0  0  0  0  0  0
    5.0560   -3.4032    4.7919 H   0  0  0  0  0  0  0  0  0  0  0  0
    6.1557   -3.7205    2.7237 H   0  0  0  0  0  0  0  0  0  0  0  0
    7.0543   -4.9001    1.3582 H   0  0  0  0  0  0  0  0  0  0  0  0
    6.3822   -6.6819    0.3468 H   0  0  0  0  0  0  0  0  0  0  0  0
    4.9750   -6.2498   -1.6027 H   0  0  0  0  0  0  0  0  0  0  0  0
    3.8170   -6.6610   -0.6800 H   0  0  0  0  0  0  0  0  0  0  0  0
    5.0117   -3.2738   -2.3489 H   0  0  0  0  0  0  0  0  0  0  0  0
    3.4039   -3.6021   -2.4547 H   0  0  0  0  0  0  0  0  0  0  0  0
    4.3180   -1.1860   -1.5894 H   0  0  0  0  0  0  0  0  0  0  0  0
    2.7566   -1.7391   -1.2512 H   0  0  0  0  0  0  0  0  0  0  0  0
    4.6495    0.3179    1.5860 H   0  0  0  0  0  0  0  0  0  0  0  0
    3.8315    0.6291    0.0945 H   0  0  0  0  0  0  0  0  0  0  0  0
    5.4002    0.0121    0.0608 H   0  0  0  0  0  0  0  0  0  0  0  0
    2.6823   -1.1772    2.3756 H   0  0  0  0  0  0  0  0  0  0  0  0
    1.8605   -2.1336    1.1489 H   0  0  0  0  0  0  0  0  0  0  0  0
    2.0813   -0.4575    0.9469 H   0  0  0  0  0  0  0  0  0  0  0  0
    4.8743   -2.6298    0.7408 H   0  0  0  0  0  0  0  0  0  0  0  0
    6.5067   -0.5889    1.5901 H   0  0  0  0  0  0  0  0  0  0  0  0
    6.8090   -1.8084    2.6694 H   0  0  0  0  0  0  0  0  0  0  0  0
    6.1501   -2.0699   -1.0470 H   0  0  0  0  0  0  0  0  0  0  0  0
    8.3585   -2.1835   -1.9704 H   0  0  0  0  0  0  0  0  0  0  0  0
    7.4135   -3.5008   -2.6407 H   0  0  0  0  0  0  0  0  0  0  0  0
    8.6466   -3.7845   -1.3934 H   0  0  0  0  0  0  0  0  0  0  0  0
    6.5257   -4.7203   -0.7975 H   0  0  0  0  0  0  0  0  0  0  0  0
    2.9906   -3.7016    0.8605 H   0  0  0  0  0  0  0  0  0  0  0  0
    2.0649   -4.4463   -1.5924 H   0  0  0  0  0  0  0  0  0  0  0  0
    3.9442   -8.8907    2.3583 H   0  0  0  0  0  0  0  0  0  0  0  0
    4.9864   -9.0192    0.9627 H   0  0  0  0  0  0  0  0  0  0  0  0
    3.4345   -8.2329    0.8463 H   0  0  0  0  0  0  0  0  0  0  0  0
    5.9536   -8.0243    3.5762 H   0  0  0  0  0  0  0  0  0  0  0  0
    6.7867   -6.5623    3.0569 H   0  0  0  0  0  0  0  0  0  0  0  0
    6.9170   -8.0387    2.1088 H   0  0  0  0  0  0  0  0  0  0  0  0
    3.9622   -6.6990    3.7606 H   0  0  0  0  0  0  0  0  0  0  0  0
  1  2  2  0
  1 30  1  0
  1 31  1  0
  2 24  1  0
  2  3  1  0
  3 29  1  0
  3  4  1  0
  3 32  1  1
  4  5  1  0
  4 33  1  0
  4 34  1  0
  5 29  1  0
  5  6  1  1
  5  7  1  0
  6 35  1  0
  6 36  1  0
  6 37  1  0
  7 17  1  0
  7  8  1  0
  7 38  1  1
  8 23  1  0
  8  9  1  0
  8 39  1  1
  9 10  1  0
  9 26  1  0
  9 40  1  6
 10 11  1  0
 10 41  1  0
 10 42  1  0
 11 23  1  0
 11 12  1  6
 11 24  1  0
 12 13  1  0
 12 43  1  0
 12 44  1  0
 13 14  1  0
 13 45  1  0
 13 46  1  0
 14 15  1  0
 14 16  1  0
 14 17  1  0
 15 47  1  0
 15 48  1  0
 15 49  1  0
 16 50  1  0
 16 51  1  0
 16 52  1  0
 17 18  1  0
 17 53  1  1
 18 19  1  0
 18 54  1  0
 18 55  1  0
 19 20  2  0
 19 21  1  0
 21 22  1  0
 21 23  1  0
 21 56  1  6
 22 57  1  0
 22 58  1  0
 22 59  1  0
 23 60  1  6
 24 25  1  0
 24 61  1  1
 25 62  1  0
 26 27  1  0
 26 28  1  0
 26 29  1  0
 27 63  1  0
 27 64  1  0
 27 65  1  0
 28 66  1  0
 28 67  1  0
 28 68  1  0
 29 69  1  1
M  END
>  <i_m_ct_stereo_status>  (255) 
1

>  <s_m_source_file>  (255) 
/var/tmp/pbs.5076255.sched01/tmpbhhv4xqx/80i1gy0gug.sdf

>  <i_m_source_file_index>  (255) 
38

>  <i_lp_mmshare_version>  (255) 
48012

>  <i_f3d_flags>  (255) 
0

>  <s_epik_input>  (255) 
W09IXVtDQEhdMUMoPVtDSDJdKVtDQEhdKFtDSDJdMilbQ0BASF0oQyhbQ0gzXSkoW0NIM10pW0NASF0zW0NIMl00KVtDQEBdMihbQ0gzXSlbQ0BASF0oW0NAQEhdM1tDQEBIXTVbQ0BdMTQ2KVtDQEBIXShDKFtDSDNdKShbQ0gzXSlbQ0gyXVtDSDJdNilbQ0gyXUMoPU8pW0NASF01W0NIM10=

>  <s_epik_cmdline>  (255) 
J2VwaWtfcHl0aG9uJywgJy1waHQnLCAnMi4wJywgJy1waCcsICc3LjAnLCAnLXRuJywgJzgnLCAnLW1hJywgJzIwMCcsICctaW1hZScsICc8aW5maWxlLm1hZT4nLCAnLW9tYWUnLCAnPG91dGZpbGUubWFlPic=

>  <r_lp_tautomer_probability>  (255) 
1

>  <r_epik_Ionization_Penalty>  (255) 
1.74716e-07

>  <r_epik_Ionization_Penalty_Charging>  (255) 
0

>  <r_epik_Ionization_Penalty_Neutral>  (255) 
1.74716e-07

>  <r_epik_State_Penalty>  (255) 
-0

>  <r_epik_Charging_Adjusted_Penalty>  (255) 
0

>  <i_epik_Tot_Q>  (255) 
0

>  <i_epik_Tot_abs_Q>  (255) 
0

>  <s_lp_Force_Field>  (255) 
OPLS3e

>  <r_lp_Energy>  (255) 
292.529

>  <b_lp_Chiralities_Consistent>  (255) 
1

>  <s_lp_Variant>  (255) 
85:0-1

>  <s_i_glide_gridfile>  (255) 
pfpi4k_grid

>  <i_i_glide_lignum>  (255) 
38

>  <i_i_glide_rotatable_bonds>  (255) 
1

>  <r_i_docking_score>  (255) 
-2.40541

>  <r_i_glide_ligand_efficiency>  (255) 
-0.0829452

>  <r_i_glide_ligand_efficiency_sa>  (255) 
-0.254834

>  <r_i_glide_ligand_efficiency_ln>  (255) 
-0.550778

>  <r_i_glide_gscore>  (255) 
-2.40541

>  <r_i_glide_lipo>  (255) 
-0.596334

>  <r_i_glide_hbond>  (255) 
-0.208753

>  <r_i_glide_metal>  (255) 
-0

>  <r_i_glide_rewards>  (255) 
-0.831653

>  <r_i_glide_evdw>  (255) 
-7.20149

>  <r_i_glide_ecoul>  (255) 
-2.72399

>  <r_i_glide_erotb>  (255) 
0

>  <r_i_glide_esite>  (255) 
0

>  <r_i_glide_emodel>  (255) 
-9.7203

>  <r_i_glide_energy>  (255) 
-9.92548

>  <r_i_glide_einternal>  (255) 
0.456358

>  <r_i_glide_intrahb_reward>  (255) 
-0

>  <i_i_glide_confnum>  (255) 
1

>  <i_i_glide_posenum>  (255) 
1

>  <r_i_glide_eff_state_penalty>  (255) 
0

>  <ligand_id>  (255) 
85

>  <original_smiles>  (255) 
C=C1C2CC3(C)C4C5C(CC6(CCC(C)(C)C4CC(=O)C(C)C56)C1O)C(C)(C)C23

>  <smiles>  (255) 
[H]OC1([H])C(=C([H])[H])C2([H])C([H])([H])C3(C([H])([H])[H])C4([H])C5([H])C6([H])C([H])(C([H])([H])[H])C(=O)C([H])([H])C4([H])C(C([H])([H])[H])(C([H])([H])[H])C([H])([H])C([H])([H])C16C([H])([H])C5([H])C(C([H])([H])[H])(C([H])([H])[H])C23[H]

$$$$
88:0:0
     RDKit          3D

 68 74  0  0  1  0  0  0  0  0999 V2000
    8.4184   -5.6543    2.3349 C   0  0  0  0  0  0  0  0  0  0  0  0
    6.9644   -5.7924    1.9057 C   0  0  0  0  0  0  0  0  0  0  0  0
    6.3431   -6.9979    1.8387 C   0  0  0  0  0  0  0  0  0  0  0  0
    6.9923   -8.2564    2.4059 C   0  0  0  0  0  0  0  0  0  0  0  0
    5.9959   -9.1162    3.2106 C   0  0  0  0  0  0  0  0  0  0  0  0
    4.7975   -8.3304    3.8234 C   0  0  2  0  0  0  0  0  0  0  0  0
    5.3728   -7.2341    4.7786 C   0  0  0  0  0  0  0  0  0  0  0  0
    4.0411   -9.3199    4.8123 C   0  0  2  0  0  0  0  0  0  0  0  0
    4.1114  -10.7034    4.4217 O   0  0  0  0  0  0  0  0  0  0  0  0
    3.1552  -11.6140    4.9854 C   0  0  0  0  0  0  0  0  0  0  0  0
    1.7509  -11.6410    4.2916 C   0  0  0  0  0  0  0  0  0  0  0  0
    1.0087  -10.4139    4.1662 O   0  0  0  0  0  0  0  0  0  0  0  0
    1.8170   -9.3204    3.7677 C   0  0  1  0  0  0  0  0  0  0  0  0
    2.4324   -9.6831    2.3762 C   0  0  0  0  0  0  0  0  0  0  0  0
    2.6072   -8.2028    2.1643 C   0  0  1  0  0  0  0  0  0  0  0  0
    1.2751   -8.1367    2.9697 C   0  0  0  0  0  0  0  0  0  0  0  0
    3.9696   -7.5715    2.6452 C   0  0  2  0  0  0  0  0  0  0  0  0
    4.9016   -7.2821    1.4116 C   0  0  1  0  0  0  0  0  0  0  0  0
    4.3898   -6.4265    0.2209 C   0  0  0  0  0  0  0  0  0  0  0  0
    4.3615   -4.9560    0.4243 C   0  0  0  0  0  0  0  0  0  0  0  0
    3.3939   -4.0500    0.5807 C   0  0  0  0  0  0  0  0  0  0  0  0
    4.4100   -2.9218    0.7291 C   0  0  2  0  0  0  0  0  0  0  0  0
    4.2851   -2.2705    1.9780 O   0  0  0  0  0  0  0  0  0  0  0  0
    4.3235   -2.0347   -0.3938 O   0  0  0  0  0  0  0  0  0  0  0  0
    5.4258   -1.6139   -1.0571 C   0  0  0  0  0  0  0  0  0  0  0  0
    5.4043   -0.7088   -1.8747 O   0  0  0  0  0  0  0  0  0  0  0  0
    6.7294   -2.3620   -0.7386 C   0  0  0  0  0  0  0  0  0  0  0  0
    6.4526   -3.8515   -0.5540 C   0  0  0  0  0  0  0  0  0  0  0  0
    5.5140   -4.0333    0.6247 C   0  0  2  0  0  0  0  0  0  0  0  0
    6.2463   -4.4444    1.8865 C   0  0  0  0  0  0  0  0  0  0  0  0
    2.6143   -8.8454    4.9821 C   0  0  1  0  0  0  0  0  0  0  0  0
    1.9322   -9.0463    6.3551 C   0  0  0  0  0  0  0  0  0  0  0  0
    8.8966   -4.8240    1.8167 H   0  0  0  0  0  0  0  0  0  0  0  0
    9.0104   -6.5432    2.1097 H   0  0  0  0  0  0  0  0  0  0  0  0
    8.4725   -5.4602    3.4070 H   0  0  0  0  0  0  0  0  0  0  0  0
    7.4357   -8.8395    1.5979 H   0  0  0  0  0  0  0  0  0  0  0  0
    7.7828   -7.9924    3.1070 H   0  0  0  0  0  0  0  0  0  0  0  0
    5.6059   -9.8773    2.5343 H   0  0  0  0  0  0  0  0  0  0  0  0
    6.5258   -9.6728    3.9845 H   0  0  0  0  0  0  0  0  0  0  0  0
    4.6040   -6.8192    5.4324 H   0  0  0  0  0  0  0  0  0  0  0  0
    5.7998   -6.3845    4.2521 H   0  0  0  0  0  0  0  0  0  0  0  0
    6.1590   -7.6437    5.4162 H   0  0  0  0  0  0  0  0  0  0  0  0
    4.5244   -9.2837    5.7897 H   0  0  0  0  0  0  0  0  0  0  0  0
    3.5795  -12.6068    4.8405 H   0  0  0  0  0  0  0  0  0  0  0  0
    3.1006  -11.5094    6.0667 H   0  0  0  0  0  0  0  0  0  0  0  0
    1.8488  -12.0965    3.3060 H   0  0  0  0  0  0  0  0  0  0  0  0
    1.1134  -12.3227    4.8540 H   0  0  0  0  0  0  0  0  0  0  0  0
    3.3603  -10.2432    2.3106 H   0  0  0  0  0  0  0  0  0  0  0  0
    1.6949  -10.1248    1.6928 H   0  0  0  0  0  0  0  0  0  0  0  0
    2.3622   -7.9717    1.1337 H   0  0  0  0  0  0  0  0  0  0  0  0
    0.3903   -8.3836    2.3680 H   0  0  0  0  0  0  0  0  0  0  0  0
    1.1417   -7.2093    3.5200 H   0  0  0  0  0  0  0  0  0  0  0  0
    3.7164   -6.5842    3.0321 H   0  0  0  0  0  0  0  0  0  0  0  0
    4.9855   -8.2470    0.9195 H   0  0  0  0  0  0  0  0  0  0  0  0
    5.0087   -6.5962   -0.6596 H   0  0  0  0  0  0  0  0  0  0  0  0
    3.3853   -6.6588   -0.0909 H   0  0  0  0  0  0  0  0  0  0  0  0
    2.3081   -4.0687    0.5842 H   0  0  0  0  0  0  0  0  0  0  0  0
    3.4241   -1.8800    1.9981 H   0  0  0  0  0  0  0  0  0  0  0  0
    7.4667   -2.2187   -1.5282 H   0  0  0  0  0  0  0  0  0  0  0  0
    7.1587   -1.9634    0.1747 H   0  0  0  0  0  0  0  0  0  0  0  0
    5.9927   -4.2248   -1.4750 H   0  0  0  0  0  0  0  0  0  0  0  0
    7.3876   -4.3844   -0.4028 H   0  0  0  0  0  0  0  0  0  0  0  0
    5.5675   -4.4297    2.7399 H   0  0  0  0  0  0  0  0  0  0  0  0
    6.9801   -3.6638    2.0726 H   0  0  0  0  0  0  0  0  0  0  0  0
    2.6704   -7.7603    4.9613 H   0  0  0  0  0  0  0  0  0  0  0  0
    1.6605  -10.0709    6.5947 H   0  0  0  0  0  0  0  0  0  0  0  0
    1.0068   -8.4743    6.4054 H   0  0  0  0  0  0  0  0  0  0  0  0
    2.5761   -8.6882    7.1585 H   0  0  0  0  0  0  0  0  0  0  0  0
  1  2  1  0
  1 33  1  0
  1 34  1  0
  1 35  1  0
  2 30  1  0
  2  3  2  0
  3 18  1  0
  3  4  1  0
  4  5  1  0
  4 36  1  0
  4 37  1  0
  5  6  1  0
  5 38  1  0
  5 39  1  0
  6 17  1  0
  6  7  1  1
  6  8  1  0
  7 40  1  0
  7 41  1  0
  7 42  1  0
  8 31  1  0
  8  9  1  0
  8 43  1  1
  9 10  1  0
 10 11  1  0
 10 44  1  0
 10 45  1  0
 11 12  1  0
 11 46  1  0
 11 47  1  0
 13 12  1  1
 13 16  1  0
 13 14  1  0
 13 31  1  0
 14 15  1  0
 14 48  1  0
 14 49  1  0
 15 16  1  0
 15 17  1  0
 15 50  1  6
 16 51  1  0
 16 52  1  0
 17 18  1  0
 17 53  1  1
 18 19  1  0
 18 54  1  6
 19 20  1  0
 19 55  1  0
 19 56  1  0
 20 29  1  0
 20 21  2  0
 21 22  1  0
 21 57  1  0
 22 29  1  0
 22 23  1  1
 22 24  1  0
 23 58  1  0
 24 25  1  0
 25 26  2  0
 25 27  1  0
 27 28  1  0
 27 59  1  0
 27 60  1  0
 29 28  1  6
 28 61  1  0
 28 62  1  0
 29 30  1  0
 30 63  1  0
 30 64  1  0
 31 32  1  0
 31 65  1  6
 32 66  1  0
 32 67  1  0
 32 68  1  0
M  END
>  <i_m_ct_stereo_status>  (256) 
1

>  <s_m_source_file>  (256) 
/var/tmp/pbs.5076255.sched01/tmpvuzdko10/1206lwnzxed.sdf

>  <i_m_source_file_index>  (256) 
2

>  <i_lp_mmshare_version>  (256) 
48012

>  <i_f3d_flags>  (256) 
0

>  <s_epik_input>  (256) 
W0NIMl0xW0NIMl1DKD1PKU9bQ0BAXTIoW09IXSlbQ0hdPUMoW0NIMl0zKVtDQEBdMTJbQ0gyXUMoW0NIM10pPUMoW0NIMl1bQ0gyXTQpW0NASF0zW0NAQEhdKFtDQEBIXShbQ0gyXTUpW0NIMl02KVtDQEBdNChbQ0gzXSlbQ0BASF0oW0NAQEhdN1tDSDNdKU9bQ0gyXVtDSDJdT1tDQEBdNTY3

>  <s_epik_cmdline>  (256) 
J2VwaWtfcHl0aG9uJywgJy1waHQnLCAnMi4wJywgJy1waCcsICc3LjAnLCAnLXRuJywgJzgnLCAnLW1hJywgJzIwMCcsICctaW1hZScsICc8aW5maWxlLm1hZT4nLCAnLW9tYWUnLCAnPG91dGZpbGUubWFlPic=

>  <r_lp_tautomer_probability>  (256) 
1

>  <r_epik_Ionization_Penalty>  (256) 
2.52494e-06

>  <r_epik_Ionization_Penalty_Charging>  (256) 
0

>  <r_epik_Ionization_Penalty_Neutral>  (256) 
2.52494e-06

>  <r_epik_State_Penalty>  (256) 
-0

>  <r_epik_Charging_Adjusted_Penalty>  (256) 
0

>  <i_epik_Tot_Q>  (256) 
0

>  <i_epik_Tot_abs_Q>  (256) 
0

>  <s_epik_Chemistry_Notes>  (256) 
This compound has an ester and may undergo hydrolysis at high or low pH.

>  <s_lp_Force_Field>  (256) 
OPLS3e

>  <r_lp_Energy>  (256) 
108.271

>  <b_lp_Chiralities_Consistent>  (256) 
1

>  <s_lp_Variant>  (256) 
88:0-1

>  <s_i_glide_gridfile>  (256) 
pfpi4k_grid

>  <i_i_glide_lignum>  (256) 
2

>  <i_i_glide_rotatable_bonds>  (256) 
1

>  <r_i_docking_score>  (256) 
-2.67865

>  <r_i_glide_ligand_efficiency>  (256) 
-0.0837078

>  <r_i_glide_ligand_efficiency_sa>  (256) 
-0.265756

>  <r_i_glide_ligand_efficiency_ln>  (256) 
-0.599822

>  <r_i_glide_gscore>  (256) 
-2.67865

>  <r_i_glide_lipo>  (256) 
-0.633663

>  <r_i_glide_hbond>  (256) 
-0.00628043

>  <r_i_glide_metal>  (256) 
-0

>  <r_i_glide_rewards>  (256) 
-0.418993

>  <r_i_glide_evdw>  (256) 
-29.4157

>  <r_i_glide_ecoul>  (256) 
-0.685062

>  <r_i_glide_erotb>  (256) 
0

>  <r_i_glide_esite>  (256) 
-0.0461655

>  <r_i_glide_emodel>  (256) 
-34.7532

>  <r_i_glide_energy>  (256) 
-30.1008

>  <r_i_glide_einternal>  (256) 
1.12916

>  <r_i_glide_intrahb_reward>  (256) 
-0

>  <i_i_glide_confnum>  (256) 
2

>  <i_i_glide_posenum>  (256) 
15

>  <r_i_glide_eff_state_penalty>  (256) 
0

>  <ligand_id>  (256) 
88

>  <original_smiles>  (256) 
CC1=C2CCC3(C)C4OCCOC5(CC(C5)C3C2CC2=CC3(O)OC(=O)CCC23C1)C4C

>  <smiles>  (256) 
[H]OC12OC(=O)C([H])([H])C([H])([H])C13C(=C2[H])C([H])([H])C1([H])C(=C(C([H])([H])[H])C3([H])[H])C([H])([H])C([H])([H])C2(C([H])([H])[H])C3([H])OC([H])([H])C([H])([H])OC4(C([H])([H])C([H])(C4([H])[H])C12[H])C3([H])C([H])([H])[H]

$$$$
88:0:1
     RDKit          3D

 68 74  0  0  1  0  0  0  0  0999 V2000
    7.3374   -5.9467    1.0160 C   0  0  0  0  0  0  0  0  0  0  0  0
    5.8639   -5.5929    1.1660 C   0  0  0  0  0  0  0  0  0  0  0  0
    4.9348   -6.5036    1.5624 C   0  0  0  0  0  0  0  0  0  0  0  0
    5.3471   -7.8691    2.1095 C   0  0  0  0  0  0  0  0  0  0  0  0
    4.5531   -8.2539    3.3771 C   0  0  0  0  0  0  0  0  0  0  0  0
    4.0073   -7.0480    4.2026 C   0  0  2  0  0  0  0  0  0  0  0  0
    5.2218   -6.1661    4.6384 C   0  0  0  0  0  0  0  0  0  0  0  0
    3.4584   -7.6266    5.5790 C   0  0  2  0  0  0  0  0  0  0  0  0
    2.9383   -8.9658    5.4831 O   0  0  0  0  0  0  0  0  0  0  0  0
    2.0767   -9.4410    6.5284 C   0  0  0  0  0  0  0  0  0  0  0  0
    0.5711   -9.0198    6.4097 C   0  0  0  0  0  0  0  0  0  0  0  0
    0.2492   -7.6153    6.3104 O   0  0  0  0  0  0  0  0  0  0  0  0
    1.1108   -6.9107    5.4271 C   0  0  1  0  0  0  0  0  0  0  0  0
    0.9664   -7.5662    4.0133 C   0  0  0  0  0  0  0  0  0  0  0  0
    1.4751   -6.2656    3.4523 C   0  0  1  0  0  0  0  0  0  0  0  0
    0.6762   -5.6677    4.6510 C   0  0  0  0  0  0  0  0  0  0  0  0
    3.0371   -6.1313    3.2685 C   0  0  2  0  0  0  0  0  0  0  0  0
    3.4278   -6.2886    1.7491 C   0  0  1  0  0  0  0  0  0  0  0  0
    2.7463   -5.4070    0.6639 C   0  0  0  0  0  0  0  0  0  0  0  0
    3.2474   -3.9963    0.5608 C   0  0  0  0  0  0  0  0  0  0  0  0
    2.7710   -2.7887    0.8657 C   0  0  0  0  0  0  0  0  0  0  0  0
    4.0563   -2.1046    0.3927 C   0  0  2  0  0  0  0  0  0  0  0  0
    4.6594   -1.3578    1.4291 O   0  0  0  0  0  0  0  0  0  0  0  0
    3.8205   -1.3340   -0.7908 O   0  0  0  0  0  0  0  0  0  0  0  0
    4.6326   -1.3858   -1.8672 C   0  0  0  0  0  0  0  0  0  0  0  0
    4.5941   -0.5788   -2.7901 O   0  0  0  0  0  0  0  0  0  0  0  0
    5.6378   -2.5379   -1.8834 C   0  0  0  0  0  0  0  0  0  0  0  0
    4.9888   -3.8114   -1.3168 C   0  0  0  0  0  0  0  0  0  0  0  0
    4.6131   -3.5445    0.1384 C   0  0  2  0  0  0  0  0  0  0  0  0
    5.6465   -4.0837    1.1148 C   0  0  0  0  0  0  0  0  0  0  0  0
    2.4378   -6.6648    6.1483 C   0  0  1  0  0  0  0  0  0  0  0  0
    2.3535   -6.5096    7.6852 C   0  0  0  0  0  0  0  0  0  0  0  0
    7.7808   -5.3919    0.1901 H   0  0  0  0  0  0  0  0  0  0  0  0
    7.4878   -7.0029    0.7868 H   0  0  0  0  0  0  0  0  0  0  0  0
    7.8835   -5.7072    1.9289 H   0  0  0  0  0  0  0  0  0  0  0  0
    5.2512   -8.6387    1.3421 H   0  0  0  0  0  0  0  0  0  0  0  0
    6.3899   -7.8486    2.4202 H   0  0  0  0  0  0  0  0  0  0  0  0
    3.7127   -8.8714    3.0593 H   0  0  0  0  0  0  0  0  0  0  0  0
    5.1575   -8.9075    4.0075 H   0  0  0  0  0  0  0  0  0  0  0  0
    4.9535   -5.4588    5.4239 H   0  0  0  0  0  0  0  0  0  0  0  0
    5.6327   -5.5637    3.8317 H   0  0  0  0  0  0  0  0  0  0  0  0
    6.0378   -6.7822    5.0190 H   0  0  0  0  0  0  0  0  0  0  0  0
    4.2843   -7.7001    6.2886 H   0  0  0  0  0  0  0  0  0  0  0  0
    2.0975  -10.5259    6.4398 H   0  0  0  0  0  0  0  0  0  0  0  0
    2.5024   -9.2497    7.5112 H   0  0  0  0  0  0  0  0  0  0  0  0
    0.1119   -9.5497    5.5761 H   0  0  0  0  0  0  0  0  0  0  0  0
    0.0487   -9.3870    7.2917 H   0  0  0  0  0  0  0  0  0  0  0  0
    1.5783   -8.4187    3.7413 H   0  0  0  0  0  0  0  0  0  0  0  0
   -0.0763   -7.7701    3.7394 H   0  0  0  0  0  0  0  0  0  0  0  0
    0.9156   -6.0309    2.5534 H   0  0  0  0  0  0  0  0  0  0  0  0
   -0.4037   -5.6132    4.4750 H   0  0  0  0  0  0  0  0  0  0  0  0
    1.0719   -4.7177    5.0048 H   0  0  0  0  0  0  0  0  0  0  0  0
    3.2734   -5.0928    3.5057 H   0  0  0  0  0  0  0  0  0  0  0  0
    3.0126   -7.2560    1.4745 H   0  0  0  0  0  0  0  0  0  0  0  0
    2.9353   -5.8473   -0.3155 H   0  0  0  0  0  0  0  0  0  0  0  0
    1.6630   -5.3896    0.7417 H   0  0  0  0  0  0  0  0  0  0  0  0
    1.8396   -2.4001    1.2693 H   0  0  0  0  0  0  0  0  0  0  0  0
    3.9916   -0.7997    1.8055 H   0  0  0  0  0  0  0  0  0  0  0  0
    6.0022   -2.6954   -2.9020 H   0  0  0  0  0  0  0  0  0  0  0  0
    6.4923   -2.2578   -1.2683 H   0  0  0  0  0  0  0  0  0  0  0  0
    4.1018   -4.0375   -1.9155 H   0  0  0  0  0  0  0  0  0  0  0  0
    5.6569   -4.6556   -1.4224 H   0  0  0  0  0  0  0  0  0  0  0  0
    5.4058   -3.7691    2.1285 H   0  0  0  0  0  0  0  0  0  0  0  0
    6.6007   -3.6014    0.8990 H   0  0  0  0  0  0  0  0  0  0  0  0
    2.8045   -5.6751    5.8839 H   0  0  0  0  0  0  0  0  0  0  0  0
    1.9111   -7.3504    8.2119 H   0  0  0  0  0  0  0  0  0  0  0  0
    1.7492   -5.6420    7.9441 H   0  0  0  0  0  0  0  0  0  0  0  0
    3.3449   -6.3477    8.1086 H   0  0  0  0  0  0  0  0  0  0  0  0
  1  2  1  0
  1 33  1  0
  1 34  1  0
  1 35  1  0
  2 30  1  0
  2  3  2  0
  3 18  1  0
  3  4  1  0
  4  5  1  0
  4 36  1  0
  4 37  1  0
  5  6  1  0
  5 38  1  0
  5 39  1  0
  6 17  1  0
  6  7  1  1
  6  8  1  0
  7 40  1  0
  7 41  1  0
  7 42  1  0
  8 31  1  0
  8  9  1  0
  8 43  1  1
  9 10  1  0
 10 11  1  0
 10 44  1  0
 10 45  1  0
 11 12  1  0
 11 46  1  0
 11 47  1  0
 13 12  1  1
 13 16  1  0
 13 14  1  0
 13 31  1  0
 14 15  1  0
 14 48  1  0
 14 49  1  0
 15 16  1  0
 15 17  1  0
 15 50  1  6
 16 51  1  0
 16 52  1  0
 17 18  1  0
 17 53  1  1
 18 19  1  0
 18 54  1  6
 19 20  1  0
 19 55  1  0
 19 56  1  0
 20 29  1  0
 20 21  2  0
 21 22  1  0
 21 57  1  0
 22 29  1  0
 22 23  1  1
 22 24  1  0
 23 58  1  0
 24 25  1  0
 25 26  2  0
 25 27  1  0
 27 28  1  0
 27 59  1  0
 27 60  1  0
 29 28  1  6
 28 61  1  0
 28 62  1  0
 29 30  1  0
 30 63  1  0
 30 64  1  0
 31 32  1  0
 31 65  1  6
 32 66  1  0
 32 67  1  0
 32 68  1  0
M  END
>  <i_m_ct_stereo_status>  (257) 
1

>  <s_m_source_file>  (257) 
/var/tmp/pbs.5076255.sched01/tmpvuzdko10/1206lwnzxed.sdf

>  <i_m_source_file_index>  (257) 
2

>  <i_lp_mmshare_version>  (257) 
48012

>  <i_f3d_flags>  (257) 
0

>  <s_epik_input>  (257) 
W0NIMl0xW0NIMl1DKD1PKU9bQ0BAXTIoW09IXSlbQ0hdPUMoW0NIMl0zKVtDQEBdMTJbQ0gyXUMoW0NIM10pPUMoW0NIMl1bQ0gyXTQpW0NASF0zW0NAQEhdKFtDQEBIXShbQ0gyXTUpW0NIMl02KVtDQEBdNChbQ0gzXSlbQ0BASF0oW0NAQEhdN1tDSDNdKU9bQ0gyXVtDSDJdT1tDQEBdNTY3

>  <s_epik_cmdline>  (257) 
J2VwaWtfcHl0aG9uJywgJy1waHQnLCAnMi4wJywgJy1waCcsICc3LjAnLCAnLXRuJywgJzgnLCAnLW1hJywgJzIwMCcsICctaW1hZScsICc8aW5maWxlLm1hZT4nLCAnLW9tYWUnLCAnPG91dGZpbGUubWFlPic=

>  <r_lp_tautomer_probability>  (257) 
1

>  <r_epik_Ionization_Penalty>  (257) 
2.52494e-06

>  <r_epik_Ionization_Penalty_Charging>  (257) 
0

>  <r_epik_Ionization_Penalty_Neutral>  (257) 
2.52494e-06

>  <r_epik_State_Penalty>  (257) 
-0

>  <r_epik_Charging_Adjusted_Penalty>  (257) 
0

>  <i_epik_Tot_Q>  (257) 
0

>  <i_epik_Tot_abs_Q>  (257) 
0

>  <s_epik_Chemistry_Notes>  (257) 
This compound has an ester and may undergo hydrolysis at high or low pH.

>  <s_lp_Force_Field>  (257) 
OPLS3e

>  <r_lp_Energy>  (257) 
108.271

>  <b_lp_Chiralities_Consistent>  (257) 
1

>  <s_lp_Variant>  (257) 
88:0-1

>  <s_i_glide_gridfile>  (257) 
pfpi4k_grid

>  <i_i_glide_lignum>  (257) 
2

>  <i_i_glide_rotatable_bonds>  (257) 
1

>  <r_i_docking_score>  (257) 
-2.58731

>  <r_i_glide_ligand_efficiency>  (257) 
-0.0808536

>  <r_i_glide_ligand_efficiency_sa>  (257) 
-0.256694

>  <r_i_glide_ligand_efficiency_ln>  (257) 
-0.57937

>  <r_i_glide_gscore>  (257) 
-2.58731

>  <r_i_glide_lipo>  (257) 
-0.362857

>  <r_i_glide_hbond>  (257) 
0

>  <r_i_glide_metal>  (257) 
-0

>  <r_i_glide_rewards>  (257) 
-0.405193

>  <r_i_glide_evdw>  (257) 
-30.487

>  <r_i_glide_ecoul>  (257) 
-1.55699

>  <r_i_glide_erotb>  (257) 
0

>  <r_i_glide_esite>  (257) 
-0.0613693

>  <r_i_glide_emodel>  (257) 
-36.6939

>  <r_i_glide_energy>  (257) 
-32.0439

>  <r_i_glide_einternal>  (257) 
1.04041

>  <r_i_glide_intrahb_reward>  (257) 
-0

>  <i_i_glide_confnum>  (257) 
1

>  <i_i_glide_posenum>  (257) 
35

>  <r_i_glide_eff_state_penalty>  (257) 
0

>  <ligand_id>  (257) 
88

>  <original_smiles>  (257) 
CC1=C2CCC3(C)C4OCCOC5(CC(C5)C3C2CC2=CC3(O)OC(=O)CCC23C1)C4C

>  <smiles>  (257) 
[H]OC12OC(=O)C([H])([H])C([H])([H])C13C(=C2[H])C([H])([H])C1([H])C(=C(C([H])([H])[H])C3([H])[H])C([H])([H])C([H])([H])C2(C([H])([H])[H])C3([H])OC([H])([H])C([H])([H])OC4(C([H])([H])C([H])(C4([H])[H])C12[H])C3([H])C([H])([H])[H]

$$$$
88:0:2
     RDKit          3D

 68 74  0  0  1  0  0  0  0  0999 V2000
    2.0025   -2.1266    3.9907 C   0  0  0  0  0  0  0  0  0  0  0  0
    2.7642   -3.1895    3.2138 C   0  0  0  0  0  0  0  0  0  0  0  0
    3.3099   -4.2810    3.8089 C   0  0  0  0  0  0  0  0  0  0  0  0
    3.0152   -4.6153    5.2700 C   0  0  0  0  0  0  0  0  0  0  0  0
    2.7287   -6.1155    5.4758 C   0  0  0  0  0  0  0  0  0  0  0  0
    2.1759   -6.8580    4.2223 C   0  0  2  0  0  0  0  0  0  0  0  0
    0.8426   -6.1661    3.7979 C   0  0  0  0  0  0  0  0  0  0  0  0
    1.7036   -8.3007    4.6971 C   0  0  2  0  0  0  0  0  0  0  0  0
    2.4694   -8.8271    5.7949 O   0  0  0  0  0  0  0  0  0  0  0  0
    2.4071  -10.2421    6.0433 C   0  0  0  0  0  0  0  0  0  0  0  0
    3.3526  -11.1294    5.1713 C   0  0  0  0  0  0  0  0  0  0  0  0
    3.2584  -11.0310    3.7358 O   0  0  0  0  0  0  0  0  0  0  0  0
    3.1384   -9.6942    3.2731 C   0  0  1  0  0  0  0  0  0  0  0  0
    4.4171   -8.9266    3.7472 C   0  0  0  0  0  0  0  0  0  0  0  0
    4.1365   -7.9520    2.6370 C   0  0  1  0  0  0  0  0  0  0  0  0
    3.6443   -9.2370    1.9057 C   0  0  0  0  0  0  0  0  0  0  0  0
    3.2237   -6.7147    2.9816 C   0  0  2  0  0  0  0  0  0  0  0  0
    4.0954   -5.4147    3.1470 C   0  0  1  0  0  0  0  0  0  0  0  0
    5.0852   -4.9756    2.0316 C   0  0  0  0  0  0  0  0  0  0  0  0
    4.4571   -4.2889    0.8413 C   0  0  0  0  0  0  0  0  0  0  0  0
    4.2365   -4.6228   -0.4136 C   0  0  0  0  0  0  0  0  0  0  0  0
    3.5554   -3.2847   -0.7062 C   0  0  2  0  0  0  0  0  0  0  0  0
    2.2145   -3.4355   -1.1385 O   0  0  0  0  0  0  0  0  0  0  0  0
    4.3864   -2.5225   -1.5913 O   0  0  0  0  0  0  0  0  0  0  0  0
    4.5875   -1.2032   -1.3990 C   0  0  0  0  0  0  0  0  0  0  0  0
    5.0153   -0.4572   -2.2701 O   0  0  0  0  0  0  0  0  0  0  0  0
    4.2639   -0.6938    0.0116 C   0  0  0  0  0  0  0  0  0  0  0  0
    4.6229   -1.7431    1.0730 C   0  0  0  0  0  0  0  0  0  0  0  0
    3.7578   -2.9688    0.8152 C   0  0  2  0  0  0  0  0  0  0  0  0
    2.5434   -3.0331    1.7149 C   0  0  0  0  0  0  0  0  0  0  0  0
    1.6988   -9.2379    3.5091 C   0  0  1  0  0  0  0  0  0  0  0  0
    0.6182  -10.3420    3.4443 C   0  0  0  0  0  0  0  0  0  0  0  0
    2.1525   -1.1448    3.5410 H   0  0  0  0  0  0  0  0  0  0  0  0
    2.3550   -2.0455    5.0188 H   0  0  0  0  0  0  0  0  0  0  0  0
    0.9317   -2.3442    3.9972 H   0  0  0  0  0  0  0  0  0  0  0  0
    3.8331   -4.2822    5.9088 H   0  0  0  0  0  0  0  0  0  0  0  0
    2.1163   -4.0999    5.5954 H   0  0  0  0  0  0  0  0  0  0  0  0
    3.6630   -6.5845    5.7719 H   0  0  0  0  0  0  0  0  0  0  0  0
    2.0623   -6.2520    6.3308 H   0  0  0  0  0  0  0  0  0  0  0  0
    0.2661   -6.7772    3.0999 H   0  0  0  0  0  0  0  0  0  0  0  0
    0.9890   -5.2111    3.2991 H   0  0  0  0  0  0  0  0  0  0  0  0
    0.2040   -5.9723    4.6636 H   0  0  0  0  0  0  0  0  0  0  0  0
    0.6808   -8.2365    5.0761 H   0  0  0  0  0  0  0  0  0  0  0  0
    2.7399  -10.3651    7.0743 H   0  0  0  0  0  0  0  0  0  0  0  0
    1.3774  -10.5894    6.0545 H   0  0  0  0  0  0  0  0  0  0  0  0
    4.3874  -10.9608    5.4742 H   0  0  0  0  0  0  0  0  0  0  0  0
    3.1523  -12.1724    5.4221 H   0  0  0  0  0  0  0  0  0  0  0  0
    4.4427   -8.4655    4.7275 H   0  0  0  0  0  0  0  0  0  0  0  0
    5.3428   -9.5013    3.5903 H   0  0  0  0  0  0  0  0  0  0  0  0
    5.0758   -7.6825    2.1769 H   0  0  0  0  0  0  0  0  0  0  0  0
    4.4574   -9.8600    1.5056 H   0  0  0  0  0  0  0  0  0  0  0  0
    2.8787   -9.0519    1.1559 H   0  0  0  0  0  0  0  0  0  0  0  0
    2.6222   -6.5379    2.0899 H   0  0  0  0  0  0  0  0  0  0  0  0
    4.8148   -5.6860    3.9131 H   0  0  0  0  0  0  0  0  0  0  0  0
    5.7828   -4.2464    2.4441 H   0  0  0  0  0  0  0  0  0  0  0  0
    5.7168   -5.7850    1.6641 H   0  0  0  0  0  0  0  0  0  0  0  0
    4.4579   -5.4993   -1.0423 H   0  0  0  0  0  0  0  0  0  0  0  0
    1.8347   -2.5587   -1.1478 H   0  0  0  0  0  0  0  0  0  0  0  0
    4.7866    0.2431    0.2032 H   0  0  0  0  0  0  0  0  0  0  0  0
    3.1966   -0.4757    0.0669 H   0  0  0  0  0  0  0  0  0  0  0  0
    5.6852   -1.9896    0.9714 H   0  0  0  0  0  0  0  0  0  0  0  0
    4.4857   -1.3529    2.0801 H   0  0  0  0  0  0  0  0  0  0  0  0
    1.9028   -3.8613    1.4144 H   0  0  0  0  0  0  0  0  0  0  0  0
    1.9414   -2.1452    1.5347 H   0  0  0  0  0  0  0  0  0  0  0  0
    1.3879   -8.6278    2.6661 H   0  0  0  0  0  0  0  0  0  0  0  0
    0.7541  -11.1670    4.1383 H   0  0  0  0  0  0  0  0  0  0  0  0
    0.5954  -10.7897    2.4521 H   0  0  0  0  0  0  0  0  0  0  0  0
   -0.3693   -9.9228    3.6330 H   0  0  0  0  0  0  0  0  0  0  0  0
  1  2  1  0
  1 33  1  0
  1 34  1  0
  1 35  1  0
  2 30  1  0
  2  3  2  0
  3 18  1  0
  3  4  1  0
  4  5  1  0
  4 36  1  0
  4 37  1  0
  5  6  1  0
  5 38  1  0
  5 39  1  0
  6 17  1  0
  6  7  1  6
  6  8  1  0
  7 40  1  0
  7 41  1  0
  7 42  1  0
  8 31  1  0
  8  9  1  0
  8 43  1  1
  9 10  1  0
 10 11  1  0
 10 44  1  0
 10 45  1  0
 11 12  1  0
 11 46  1  0
 11 47  1  0
 13 12  1  6
 13 16  1  0
 13 14  1  0
 13 31  1  0
 14 15  1  0
 14 48  1  0
 14 49  1  0
 15 16  1  0
 15 17  1  0
 15 50  1  6
 16 51  1  0
 16 52  1  0
 17 18  1  0
 17 53  1  6
 18 19  1  0
 18 54  1  1
 19 20  1  0
 19 55  1  0
 19 56  1  0
 20 29  1  0
 20 21  2  0
 21 22  1  0
 21 57  1  0
 22 29  1  0
 22 23  1  6
 22 24  1  0
 23 58  1  0
 24 25  1  0
 25 26  2  0
 25 27  1  0
 27 28  1  0
 27 59  1  0
 27 60  1  0
 29 28  1  6
 28 61  1  0
 28 62  1  0
 29 30  1  0
 30 63  1  0
 30 64  1  0
 31 32  1  0
 31 65  1  6
 32 66  1  0
 32 67  1  0
 32 68  1  0
M  END
>  <i_m_ct_stereo_status>  (258) 
1

>  <s_m_source_file>  (258) 
/var/tmp/pbs.5076255.sched01/tmpvuzdko10/1206lwnzxed.sdf

>  <i_m_source_file_index>  (258) 
2

>  <i_lp_mmshare_version>  (258) 
48012

>  <i_f3d_flags>  (258) 
0

>  <s_epik_input>  (258) 
W0NIMl0xW0NIMl1DKD1PKU9bQ0BAXTIoW09IXSlbQ0hdPUMoW0NIMl0zKVtDQEBdMTJbQ0gyXUMoW0NIM10pPUMoW0NIMl1bQ0gyXTQpW0NASF0zW0NAQEhdKFtDQEBIXShbQ0gyXTUpW0NIMl02KVtDQEBdNChbQ0gzXSlbQ0BASF0oW0NAQEhdN1tDSDNdKU9bQ0gyXVtDSDJdT1tDQEBdNTY3

>  <s_epik_cmdline>  (258) 
J2VwaWtfcHl0aG9uJywgJy1waHQnLCAnMi4wJywgJy1waCcsICc3LjAnLCAnLXRuJywgJzgnLCAnLW1hJywgJzIwMCcsICctaW1hZScsICc8aW5maWxlLm1hZT4nLCAnLW9tYWUnLCAnPG91dGZpbGUubWFlPic=

>  <r_lp_tautomer_probability>  (258) 
1

>  <r_epik_Ionization_Penalty>  (258) 
2.52494e-06

>  <r_epik_Ionization_Penalty_Charging>  (258) 
0

>  <r_epik_Ionization_Penalty_Neutral>  (258) 
2.52494e-06

>  <r_epik_State_Penalty>  (258) 
-0

>  <r_epik_Charging_Adjusted_Penalty>  (258) 
0

>  <i_epik_Tot_Q>  (258) 
0

>  <i_epik_Tot_abs_Q>  (258) 
0

>  <s_epik_Chemistry_Notes>  (258) 
This compound has an ester and may undergo hydrolysis at high or low pH.

>  <s_lp_Force_Field>  (258) 
OPLS3e

>  <r_lp_Energy>  (258) 
108.271

>  <b_lp_Chiralities_Consistent>  (258) 
1

>  <s_lp_Variant>  (258) 
88:0-1

>  <s_i_glide_gridfile>  (258) 
pfpi4k_grid

>  <i_i_glide_lignum>  (258) 
2

>  <i_i_glide_rotatable_bonds>  (258) 
1

>  <r_i_docking_score>  (258) 
-2.54154

>  <r_i_glide_ligand_efficiency>  (258) 
-0.0794232

>  <r_i_glide_ligand_efficiency_sa>  (258) 
-0.252153

>  <r_i_glide_ligand_efficiency_ln>  (258) 
-0.56912

>  <r_i_glide_gscore>  (258) 
-2.54154

>  <r_i_glide_lipo>  (258) 
-0.0791021

>  <r_i_glide_hbond>  (258) 
0

>  <r_i_glide_metal>  (258) 
-0

>  <r_i_glide_rewards>  (258) 
-0.471018

>  <r_i_glide_evdw>  (258) 
-27.4868

>  <r_i_glide_ecoul>  (258) 
-3.80959

>  <r_i_glide_erotb>  (258) 
0

>  <r_i_glide_esite>  (258) 
-0.0456448

>  <r_i_glide_emodel>  (258) 
-36.262

>  <r_i_glide_energy>  (258) 
-31.2963

>  <r_i_glide_einternal>  (258) 
0.00207641

>  <r_i_glide_intrahb_reward>  (258) 
-0

>  <i_i_glide_confnum>  (258) 
1

>  <i_i_glide_posenum>  (258) 
30

>  <r_i_glide_eff_state_penalty>  (258) 
0

>  <ligand_id>  (258) 
88

>  <original_smiles>  (258) 
CC1=C2CCC3(C)C4OCCOC5(CC(C5)C3C2CC2=CC3(O)OC(=O)CCC23C1)C4C

>  <smiles>  (258) 
[H]OC12OC(=O)C([H])([H])C([H])([H])C13C(=C2[H])C([H])([H])C1([H])C(=C(C([H])([H])[H])C3([H])[H])C([H])([H])C([H])([H])C2(C([H])([H])[H])C3([H])OC([H])([H])C([H])([H])OC4(C([H])([H])C([H])(C4([H])[H])C12[H])C3([H])C([H])([H])[H]

$$$$
89:0:0
     RDKit          3D

 39 42  0  0  1  0  0  0  0  0999 V2000
    0.6162   -9.2316    2.5115 C   0  0  0  0  0  0  0  0  0  0  0  0
    1.0542   -7.9450    1.9190 C   0  0  0  0  0  0  0  0  0  0  0  0
    0.2053   -7.1219    1.3135 N   0  0  0  0  0  0  0  0  0  0  0  0
    1.0291   -6.0975    0.8498 O   0  0  0  0  0  0  0  0  0  0  0  0
    2.2825   -6.3826    1.2745 C   0  0  0  0  0  0  0  0  0  0  0  0
    3.3949   -5.4134    0.9848 C   0  0  2  0  0  0  0  0  0  0  0  0
    4.7868   -5.8429    1.4336 C   0  0  0  0  0  0  0  0  0  0  0  0
    5.5212   -4.5270    1.6662 C   0  0  1  0  0  0  0  0  0  0  0  0
    6.6250   -4.2129    0.6294 C   0  0  0  0  0  0  0  0  0  0  0  0
    6.1396   -3.3473   -0.5156 C   0  0  0  0  0  0  0  0  0  0  0  0
    5.4920   -2.1196   -0.0353 N   0  0  0  0  0  0  0  0  0  0  0  0
    5.2337   -1.1709   -1.1164 C   0  0  0  0  0  0  0  0  0  0  0  0
    4.2278   -1.5739   -2.1799 C   0  0  0  0  0  0  0  0  0  0  0  0
    3.9440   -0.8368   -3.2477 N   0  0  0  0  0  0  0  0  0  0  0  0
    2.9760   -1.4079   -4.0693 C   0  0  0  0  0  0  0  0  0  0  0  0
    2.5490   -2.6067   -3.6133 C   0  0  0  0  0  0  0  0  0  0  0  0
    3.2964   -3.0561   -2.1366 S   0  0  0  0  0  0  0  0  0  0  0  0
    4.3047   -2.3254    0.8175 C   0  0  0  0  0  0  0  0  0  0  0  0
    4.3928   -3.4727    1.8492 C   0  0  1  0  0  0  0  0  0  0  0  0
    3.1800   -4.2221    1.7433 O   0  0  0  0  0  0  0  0  0  0  0  0
    2.3509   -7.5316    1.9561 N   0  0  0  0  0  0  0  0  0  0  0  0
   -0.3766   -9.5229    2.1598 H   0  0  0  0  0  0  0  0  0  0  0  0
    0.5650   -9.1466    3.5962 H   0  0  0  0  0  0  0  0  0  0  0  0
    1.3190  -10.0293    2.2559 H   0  0  0  0  0  0  0  0  0  0  0  0
    3.4078   -5.1951   -0.0849 H   0  0  0  0  0  0  0  0  0  0  0  0
    4.7173   -6.3463    2.3991 H   0  0  0  0  0  0  0  0  0  0  0  0
    5.2666   -6.5365    0.7378 H   0  0  0  0  0  0  0  0  0  0  0  0
    6.0275   -4.6149    2.6229 H   0  0  0  0  0  0  0  0  0  0  0  0
    7.4539   -3.6998    1.1291 H   0  0  0  0  0  0  0  0  0  0  0  0
    7.0233   -5.1402    0.2081 H   0  0  0  0  0  0  0  0  0  0  0  0
    6.9885   -3.0952   -1.1604 H   0  0  0  0  0  0  0  0  0  0  0  0
    5.4751   -3.9594   -1.1115 H   0  0  0  0  0  0  0  0  0  0  0  0
    4.8984   -0.2377   -0.6766 H   0  0  0  0  0  0  0  0  0  0  0  0
    6.1637   -0.9629   -1.6293 H   0  0  0  0  0  0  0  0  0  0  0  0
    2.6452   -0.8468   -4.9449 H   0  0  0  0  0  0  0  0  0  0  0  0
    1.7817   -3.2531   -4.0535 H   0  0  0  0  0  0  0  0  0  0  0  0
    4.0864   -1.3808    1.3499 H   0  0  0  0  0  0  0  0  0  0  0  0
    3.4306   -2.5101    0.2301 H   0  0  0  0  0  0  0  0  0  0  0  0
    4.4340   -3.0384    2.8547 H   0  0  0  0  0  0  0  0  0  0  0  0
  1  2  1  0
  1 22  1  0
  1 23  1  0
  1 24  1  0
  2 21  1  0
  2  3  2  0
  3  4  1  0
  4  5  1  0
  5  6  1  0
  5 21  2  0
  6 20  1  0
  6  7  1  0
  6 25  1  6
  7  8  1  0
  7 26  1  0
  7 27  1  0
  8 19  1  0
  8  9  1  0
  8 28  1  1
  9 10  1  0
  9 29  1  0
  9 30  1  0
 10 11  1  0
 10 31  1  0
 10 32  1  0
 11 12  1  0
 11 18  1  0
 12 13  1  0
 12 33  1  0
 12 34  1  0
 13 17  1  0
 13 14  2  0
 14 15  1  0
 15 16  2  0
 15 35  1  0
 16 17  1  0
 16 36  1  0
 18 19  1  0
 18 37  1  0
 18 38  1  0
 19 20  1  0
 19 39  1  1
M  END
>  <i_m_ct_stereo_status>  (259) 
1

>  <s_m_source_file>  (259) 
/var/tmp/pbs.5076255.sched01/tmpvuzdko10/1206lwnzxed.sdf

>  <i_m_source_file_index>  (259) 
3

>  <i_lp_mmshare_version>  (259) 
48012

>  <i_f3d_flags>  (259) 
0

>  <s_epik_input>  (259) 
W0NIM11jMW5vYyhuMSlbQ0BIXShbQ0gyXTIpT1tDQEBIXShbQ0BASF0yMylbQ0gyXU4oW0NIMl1bQ0gyXTMpW0NIMl1jNG5bY0hdW2NIXXM0

>  <s_epik_cmdline>  (259) 
J2VwaWtfcHl0aG9uJywgJy1waHQnLCAnMi4wJywgJy1waCcsICc3LjAnLCAnLXRuJywgJzgnLCAnLW1hJywgJzIwMCcsICctaW1hZScsICc8aW5maWxlLm1hZT4nLCAnLW9tYWUnLCAnPG91dGZpbGUubWFlPic=

>  <r_lp_tautomer_probability>  (259) 
1

>  <r_epik_Ionization_Penalty>  (259) 
0.178309

>  <r_epik_Ionization_Penalty_Charging>  (259) 
0

>  <r_epik_Ionization_Penalty_Neutral>  (259) 
0.178309

>  <r_epik_State_Penalty>  (259) 
0.167737

>  <r_epik_Charging_Adjusted_Penalty>  (259) 
0.167737

>  <i_epik_Tot_Q>  (259) 
0

>  <i_epik_Tot_abs_Q>  (259) 
0

>  <s_lp_Force_Field>  (259) 
OPLS3e

>  <r_lp_Energy>  (259) 
-1.39225

>  <b_lp_Chiralities_Consistent>  (259) 
1

>  <s_lp_Variant>  (259) 
89:0-1

>  <s_i_glide_gridfile>  (259) 
pfpi4k_grid

>  <i_i_glide_lignum>  (259) 
3

>  <i_i_glide_rotatable_bonds>  (259) 
3

>  <r_i_docking_score>  (259) 
-3.67199

>  <r_i_glide_ligand_efficiency>  (259) 
-0.174857

>  <r_i_glide_ligand_efficiency_sa>  (259) 
-0.482416

>  <r_i_glide_ligand_efficiency_ln>  (259) 
-0.907892

>  <r_i_glide_gscore>  (259) 
-3.67199

>  <r_i_glide_lipo>  (259) 
-0.630839

>  <r_i_glide_hbond>  (259) 
0

>  <r_i_glide_metal>  (259) 
-0

>  <r_i_glide_rewards>  (259) 
-1.32011

>  <r_i_glide_evdw>  (259) 
-27.6448

>  <r_i_glide_ecoul>  (259) 
-4.57351

>  <r_i_glide_erotb>  (259) 
0.590315

>  <r_i_glide_esite>  (259) 
-0.243092

>  <r_i_glide_emodel>  (259) 
-34.4758

>  <r_i_glide_energy>  (259) 
-32.2183

>  <r_i_glide_einternal>  (259) 
8.20959

>  <r_i_glide_intrahb_reward>  (259) 
-0

>  <i_i_glide_confnum>  (259) 
4

>  <i_i_glide_posenum>  (259) 
1

>  <r_i_glide_eff_state_penalty>  (259) 
0

>  <ligand_id>  (259) 
89

>  <original_smiles>  (259) 
Cc1noc(C2CC3CCN(Cc4nccs4)CC3O2)n1

>  <smiles>  (259) 
[H]c1nc(C([H])([H])N2C([H])([H])C([H])([H])C3([H])C([H])([H])C([H])(c4nc(C([H])([H])[H])no4)OC3([H])C2([H])[H])sc1[H]

$$$$
89:0:1
     RDKit          3D

 39 42  0  0  1  0  0  0  0  0999 V2000
   -0.3071   -8.7845    2.5647 C   0  0  0  0  0  0  0  0  0  0  0  0
    0.4836   -7.7295    1.8795 C   0  0  0  0  0  0  0  0  0  0  0  0
   -0.0440   -6.9664    0.9345 N   0  0  0  0  0  0  0  0  0  0  0  0
    1.0418   -6.1911    0.5055 O   0  0  0  0  0  0  0  0  0  0  0  0
    2.0983   -6.5510    1.2793 C   0  0  0  0  0  0  0  0  0  0  0  0
    3.3947   -5.8112    1.1182 C   0  0  2  0  0  0  0  0  0  0  0  0
    4.6383   -6.5495    1.6001 C   0  0  0  0  0  0  0  0  0  0  0  0
    5.6114   -5.4292    1.9595 C   0  0  1  0  0  0  0  0  0  0  0  0
    6.8148   -5.2902    1.0008 C   0  0  0  0  0  0  0  0  0  0  0  0
    6.5695   -4.2743   -0.1079 C   0  0  0  0  0  0  0  0  0  0  0  0
    6.2110   -2.9709    0.4260 N   0  0  0  0  0  0  0  0  0  0  0  0
    6.2718   -1.9151   -0.5798 C   0  0  0  0  0  0  0  0  0  0  0  0
    5.2200   -1.9866   -1.6521 C   0  0  0  0  0  0  0  0  0  0  0  0
    4.2940   -1.0414   -1.8212 N   0  0  0  0  0  0  0  0  0  0  0  0
    3.3800   -1.3571   -2.8272 C   0  0  0  0  0  0  0  0  0  0  0  0
    3.6154   -2.5630   -3.4268 C   0  0  0  0  0  0  0  0  0  0  0  0
    5.0631   -3.3104   -2.8180 S   0  0  0  0  0  0  0  0  0  0  0  0
    4.9208   -3.0074    1.1099 C   0  0  0  0  0  0  0  0  0  0  0  0
    4.7080   -4.1726    2.1076 C   0  0  1  0  0  0  0  0  0  0  0  0
    3.3728   -4.6605    1.9503 O   0  0  0  0  0  0  0  0  0  0  0  0
    1.7919   -7.4814    2.1839 N   0  0  0  0  0  0  0  0  0  0  0  0
   -1.2207   -9.0214    2.0170 H   0  0  0  0  0  0  0  0  0  0  0  0
   -0.5791   -8.4567    3.5662 H   0  0  0  0  0  0  0  0  0  0  0  0
    0.2721   -9.7033    2.6526 H   0  0  0  0  0  0  0  0  0  0  0  0
    3.5192   -5.5244    0.0736 H   0  0  0  0  0  0  0  0  0  0  0  0
    4.4126   -7.0968    2.5154 H   0  0  0  0  0  0  0  0  0  0  0  0
    5.0063   -7.2755    0.8802 H   0  0  0  0  0  0  0  0  0  0  0  0
    6.0252   -5.6663    2.9434 H   0  0  0  0  0  0  0  0  0  0  0  0
    7.7044   -5.0082    1.5697 H   0  0  0  0  0  0  0  0  0  0  0  0
    7.0500   -6.2523    0.5478 H   0  0  0  0  0  0  0  0  0  0  0  0
    7.4844   -4.1890   -0.6997 H   0  0  0  0  0  0  0  0  0  0  0  0
    5.7786   -4.6514   -0.7509 H   0  0  0  0  0  0  0  0  0  0  0  0
    6.1782   -0.9489   -0.0853 H   0  0  0  0  0  0  0  0  0  0  0  0
    7.2567   -1.9124   -1.0473 H   0  0  0  0  0  0  0  0  0  0  0  0
    2.5904   -0.6558   -3.0084 H   0  0  0  0  0  0  0  0  0  0  0  0
    3.0130   -3.0389   -4.1856 H   0  0  0  0  0  0  0  0  0  0  0  0
    4.7738   -2.0666    1.6480 H   0  0  0  0  0  0  0  0  0  0  0  0
    4.1256   -3.0485    0.3710 H   0  0  0  0  0  0  0  0  0  0  0  0
    4.7920   -3.7826    3.1235 H   0  0  0  0  0  0  0  0  0  0  0  0
  1  2  1  0
  1 22  1  0
  1 23  1  0
  1 24  1  0
  2 21  1  0
  2  3  2  0
  3  4  1  0
  4  5  1  0
  5  6  1  0
  5 21  2  0
  6 20  1  0
  6  7  1  0
  6 25  1  6
  7  8  1  0
  7 26  1  0
  7 27  1  0
  8 19  1  0
  8  9  1  0
  8 28  1  1
  9 10  1  0
  9 29  1  0
  9 30  1  0
 10 11  1  0
 10 31  1  0
 10 32  1  0
 11 12  1  0
 11 18  1  0
 12 13  1  0
 12 33  1  0
 12 34  1  0
 13 17  1  0
 13 14  2  0
 14 15  1  0
 15 16  2  0
 15 35  1  0
 16 17  1  0
 16 36  1  0
 18 19  1  0
 18 37  1  0
 18 38  1  0
 19 20  1  0
 19 39  1  1
M  END
>  <i_m_ct_stereo_status>  (260) 
1

>  <s_m_source_file>  (260) 
/var/tmp/pbs.5076255.sched01/tmpvuzdko10/1206lwnzxed.sdf

>  <i_m_source_file_index>  (260) 
3

>  <i_lp_mmshare_version>  (260) 
48012

>  <i_f3d_flags>  (260) 
0

>  <s_epik_input>  (260) 
W0NIM11jMW5vYyhuMSlbQ0BIXShbQ0gyXTIpT1tDQEBIXShbQ0BASF0yMylbQ0gyXU4oW0NIMl1bQ0gyXTMpW0NIMl1jNG5bY0hdW2NIXXM0

>  <s_epik_cmdline>  (260) 
J2VwaWtfcHl0aG9uJywgJy1waHQnLCAnMi4wJywgJy1waCcsICc3LjAnLCAnLXRuJywgJzgnLCAnLW1hJywgJzIwMCcsICctaW1hZScsICc8aW5maWxlLm1hZT4nLCAnLW9tYWUnLCAnPG91dGZpbGUubWFlPic=

>  <r_lp_tautomer_probability>  (260) 
1

>  <r_epik_Ionization_Penalty>  (260) 
0.178309

>  <r_epik_Ionization_Penalty_Charging>  (260) 
0

>  <r_epik_Ionization_Penalty_Neutral>  (260) 
0.178309

>  <r_epik_State_Penalty>  (260) 
0.167737

>  <r_epik_Charging_Adjusted_Penalty>  (260) 
0.167737

>  <i_epik_Tot_Q>  (260) 
0

>  <i_epik_Tot_abs_Q>  (260) 
0

>  <s_lp_Force_Field>  (260) 
OPLS3e

>  <r_lp_Energy>  (260) 
-1.39225

>  <b_lp_Chiralities_Consistent>  (260) 
1

>  <s_lp_Variant>  (260) 
89:0-1

>  <s_i_glide_gridfile>  (260) 
pfpi4k_grid

>  <i_i_glide_lignum>  (260) 
3

>  <i_i_glide_rotatable_bonds>  (260) 
3

>  <r_i_docking_score>  (260) 
-3.51341

>  <r_i_glide_ligand_efficiency>  (260) 
-0.167305

>  <r_i_glide_ligand_efficiency_sa>  (260) 
-0.461582

>  <r_i_glide_ligand_efficiency_ln>  (260) 
-0.868683

>  <r_i_glide_gscore>  (260) 
-3.51341

>  <r_i_glide_lipo>  (260) 
-0.721823

>  <r_i_glide_hbond>  (260) 
0

>  <r_i_glide_metal>  (260) 
-0

>  <r_i_glide_rewards>  (260) 
-1.32011

>  <r_i_glide_evdw>  (260) 
-29.1655

>  <r_i_glide_ecoul>  (260) 
-2.27925

>  <r_i_glide_erotb>  (260) 
0.590315

>  <r_i_glide_esite>  (260) 
-0.261633

>  <r_i_glide_emodel>  (260) 
-34.4714

>  <r_i_glide_energy>  (260) 
-31.4447

>  <r_i_glide_einternal>  (260) 
6.08843

>  <r_i_glide_intrahb_reward>  (260) 
-0

>  <i_i_glide_confnum>  (260) 
4

>  <i_i_glide_posenum>  (260) 
22

>  <r_i_glide_eff_state_penalty>  (260) 
0

>  <ligand_id>  (260) 
89

>  <original_smiles>  (260) 
Cc1noc(C2CC3CCN(Cc4nccs4)CC3O2)n1

>  <smiles>  (260) 
[H]c1nc(C([H])([H])N2C([H])([H])C([H])([H])C3([H])C([H])([H])C([H])(c4nc(C([H])([H])[H])no4)OC3([H])C2([H])[H])sc1[H]

$$$$
89:0:2
     RDKit          3D

 39 42  0  0  1  0  0  0  0  0999 V2000
    1.3004    3.6021    3.3407 C   0  0  0  0  0  0  0  0  0  0  0  0
    1.2336    2.1741    2.9272 C   0  0  0  0  0  0  0  0  0  0  0  0
    0.0867    1.5143    2.8693 N   0  0  0  0  0  0  0  0  0  0  0  0
    0.4743    0.2268    2.4534 O   0  0  0  0  0  0  0  0  0  0  0  0
    1.8251    0.2664    2.3178 C   0  0  0  0  0  0  0  0  0  0  0  0
    2.5530   -0.9692    1.8667 C   0  0  2  0  0  0  0  0  0  0  0  0
    2.3709   -2.1980    2.7473 C   0  0  0  0  0  0  0  0  0  0  0  0
    3.6374   -3.0141    2.4928 C   0  0  1  0  0  0  0  0  0  0  0  0
    3.4119   -4.2772    1.6254 C   0  0  0  0  0  0  0  0  0  0  0  0
    3.6732   -4.0695    0.1299 C   0  0  0  0  0  0  0  0  0  0  0  0
    5.0081   -3.5414   -0.0925 N   0  0  0  0  0  0  0  0  0  0  0  0
    5.4103   -3.6037   -1.5065 C   0  0  0  0  0  0  0  0  0  0  0  0
    4.7184   -2.6175   -2.3997 C   0  0  0  0  0  0  0  0  0  0  0  0
    4.9818   -1.3083   -2.3880 N   0  0  0  0  0  0  0  0  0  0  0  0
    4.1146   -0.5865   -3.2040 C   0  0  0  0  0  0  0  0  0  0  0  0
    3.2652   -1.3664   -3.9399 C   0  0  0  0  0  0  0  0  0  0  0  0
    3.4427   -3.0462   -3.5443 S   0  0  0  0  0  0  0  0  0  0  0  0
    5.1417   -2.1965    0.4865 C   0  0  0  0  0  0  0  0  0  0  0  0
    4.6602   -1.9947    1.9425 C   0  0  1  0  0  0  0  0  0  0  0  0
    3.9627   -0.7489    1.9803 O   0  0  0  0  0  0  0  0  0  0  0  0
    2.3524    1.4518    2.6265 N   0  0  0  0  0  0  0  0  0  0  0  0
    0.3663    3.9183    3.8045 H   0  0  0  0  0  0  0  0  0  0  0  0
    1.4814    4.2477    2.4803 H   0  0  0  0  0  0  0  0  0  0  0  0
    2.1134    3.7463    4.0517 H   0  0  0  0  0  0  0  0  0  0  0  0
    2.2722   -1.2058    0.8432 H   0  0  0  0  0  0  0  0  0  0  0  0
    2.3583   -1.9019    3.7968 H   0  0  0  0  0  0  0  0  0  0  0  0
    1.4387   -2.7260    2.5425 H   0  0  0  0  0  0  0  0  0  0  0  0
    4.0033   -3.3567    3.4630 H   0  0  0  0  0  0  0  0  0  0  0  0
    4.0908   -5.0559    1.9800 H   0  0  0  0  0  0  0  0  0  0  0  0
    2.4067   -4.6757    1.7763 H   0  0  0  0  0  0  0  0  0  0  0  0
    3.5680   -5.0373   -0.3661 H   0  0  0  0  0  0  0  0  0  0  0  0
    2.9226   -3.4101   -0.3041 H   0  0  0  0  0  0  0  0  0  0  0  0
    6.4840   -3.4241   -1.5834 H   0  0  0  0  0  0  0  0  0  0  0  0
    5.2522   -4.6116   -1.8930 H   0  0  0  0  0  0  0  0  0  0  0  0
    4.1554    0.4928   -3.1918 H   0  0  0  0  0  0  0  0  0  0  0  0
    2.5185   -1.0508   -4.6547 H   0  0  0  0  0  0  0  0  0  0  0  0
    6.1904   -1.8831    0.4223 H   0  0  0  0  0  0  0  0  0  0  0  0
    4.5646   -1.5015   -0.1101 H   0  0  0  0  0  0  0  0  0  0  0  0
    5.5214   -1.9115    2.6087 H   0  0  0  0  0  0  0  0  0  0  0  0
  1  2  1  0
  1 22  1  0
  1 23  1  0
  1 24  1  0
  2 21  1  0
  2  3  2  0
  3  4  1  0
  4  5  1  0
  5  6  1  0
  5 21  2  0
  6 20  1  0
  6  7  1  0
  6 25  1  6
  7  8  1  0
  7 26  1  0
  7 27  1  0
  8 19  1  0
  8  9  1  0
  8 28  1  1
  9 10  1  0
  9 29  1  0
  9 30  1  0
 10 11  1  0
 10 31  1  0
 10 32  1  0
 11 12  1  0
 11 18  1  0
 12 13  1  0
 12 33  1  0
 12 34  1  0
 13 17  1  0
 13 14  2  0
 14 15  1  0
 15 16  2  0
 15 35  1  0
 16 17  1  0
 16 36  1  0
 18 19  1  0
 18 37  1  0
 18 38  1  0
 19 20  1  0
 19 39  1  1
M  END
>  <i_m_ct_stereo_status>  (261) 
1

>  <s_m_source_file>  (261) 
/var/tmp/pbs.5076255.sched01/tmpvuzdko10/1206lwnzxed.sdf

>  <i_m_source_file_index>  (261) 
3

>  <i_lp_mmshare_version>  (261) 
48012

>  <i_f3d_flags>  (261) 
0

>  <s_epik_input>  (261) 
W0NIM11jMW5vYyhuMSlbQ0BIXShbQ0gyXTIpT1tDQEBIXShbQ0BASF0yMylbQ0gyXU4oW0NIMl1bQ0gyXTMpW0NIMl1jNG5bY0hdW2NIXXM0

>  <s_epik_cmdline>  (261) 
J2VwaWtfcHl0aG9uJywgJy1waHQnLCAnMi4wJywgJy1waCcsICc3LjAnLCAnLXRuJywgJzgnLCAnLW1hJywgJzIwMCcsICctaW1hZScsICc8aW5maWxlLm1hZT4nLCAnLW9tYWUnLCAnPG91dGZpbGUubWFlPic=

>  <r_lp_tautomer_probability>  (261) 
1

>  <r_epik_Ionization_Penalty>  (261) 
0.178309

>  <r_epik_Ionization_Penalty_Charging>  (261) 
0

>  <r_epik_Ionization_Penalty_Neutral>  (261) 
0.178309

>  <r_epik_State_Penalty>  (261) 
0.167737

>  <r_epik_Charging_Adjusted_Penalty>  (261) 
0.167737

>  <i_epik_Tot_Q>  (261) 
0

>  <i_epik_Tot_abs_Q>  (261) 
0

>  <s_lp_Force_Field>  (261) 
OPLS3e

>  <r_lp_Energy>  (261) 
-1.39225

>  <b_lp_Chiralities_Consistent>  (261) 
1

>  <s_lp_Variant>  (261) 
89:0-1

>  <s_i_glide_gridfile>  (261) 
pfpi4k_grid

>  <i_i_glide_lignum>  (261) 
3

>  <i_i_glide_rotatable_bonds>  (261) 
3

>  <r_i_docking_score>  (261) 
-3.47407

>  <r_i_glide_ligand_efficiency>  (261) 
-0.165432

>  <r_i_glide_ligand_efficiency_sa>  (261) 
-0.456415

>  <r_i_glide_ligand_efficiency_ln>  (261) 
-0.858958

>  <r_i_glide_gscore>  (261) 
-3.47407

>  <r_i_glide_lipo>  (261) 
-0.748292

>  <r_i_glide_hbond>  (261) 
0

>  <r_i_glide_metal>  (261) 
-0

>  <r_i_glide_rewards>  (261) 
-1.32011

>  <r_i_glide_evdw>  (261) 
-28.3737

>  <r_i_glide_ecoul>  (261) 
-2.86649

>  <r_i_glide_erotb>  (261) 
0.590315

>  <r_i_glide_esite>  (261) 
-0.147333

>  <r_i_glide_emodel>  (261) 
-35.0001

>  <r_i_glide_energy>  (261) 
-31.2402

>  <r_i_glide_einternal>  (261) 
4.70956

>  <r_i_glide_intrahb_reward>  (261) 
-0

>  <i_i_glide_confnum>  (261) 
4

>  <i_i_glide_posenum>  (261) 
2

>  <r_i_glide_eff_state_penalty>  (261) 
0

>  <ligand_id>  (261) 
89

>  <original_smiles>  (261) 
Cc1noc(C2CC3CCN(Cc4nccs4)CC3O2)n1

>  <smiles>  (261) 
[H]c1nc(C([H])([H])N2C([H])([H])C([H])([H])C3([H])C([H])([H])C([H])(c4nc(C([H])([H])[H])no4)OC3([H])C2([H])[H])sc1[H]

$$$$
89:1:0
     RDKit          3D

 40 43  0  0  1  0  0  0  0  0999 V2000
   -0.2083   -3.3106    5.6441 C   0  0  0  0  0  0  0  0  0  0  0  0
    0.3302   -4.5219    4.9818 C   0  0  0  0  0  0  0  0  0  0  0  0
   -0.1203   -5.7332    5.2778 N   0  0  0  0  0  0  0  0  0  0  0  0
    0.6294   -6.5693    4.4432 O   0  0  0  0  0  0  0  0  0  0  0  0
    1.4629   -5.7554    3.7480 C   0  0  0  0  0  0  0  0  0  0  0  0
    2.4018   -6.3520    2.7374 C   0  0  2  0  0  0  0  0  0  0  0  0
    3.8829   -6.1149    3.0353 C   0  0  0  0  0  0  0  0  0  0  0  0
    4.1421   -4.7488    2.4140 C   0  0  1  0  0  0  0  0  0  0  0  0
    5.5916   -4.4519    1.9666 C   0  0  0  0  0  0  0  0  0  0  0  0
    5.8391   -4.6822    0.4743 C   0  0  0  0  0  0  0  0  0  0  0  0
    4.8650   -3.9350   -0.3484 N   0  0  1  0  0  0  0  0  0  0  0  0
    5.2702   -3.9201   -1.7804 C   0  0  0  0  0  0  0  0  0  0  0  0
    4.5868   -2.7461   -2.4126 C   0  0  0  0  0  0  0  0  0  0  0  0
    4.9104   -1.4612   -2.1886 N   0  0  0  0  0  0  0  0  0  0  0  0
    4.2016   -0.5741   -3.0094 C   0  0  0  0  0  0  0  0  0  0  0  0
    3.3347   -1.2087   -3.8809 C   0  0  0  0  0  0  0  0  0  0  0  0
    3.3753   -2.9357   -3.6796 S   0  0  0  0  0  0  0  0  0  0  0  0
    3.5064   -4.4996   -0.1359 C   0  0  0  0  0  0  0  0  0  0  0  0
    3.0469   -4.5639    1.3385 C   0  0  1  0  0  0  0  0  0  0  0  0
    2.1658   -5.6830    1.4954 O   0  0  0  0  0  0  0  0  0  0  0  0
    1.2816   -4.4654    4.0167 N   0  0  0  0  0  0  0  0  0  0  0  0
   -1.1115   -3.5409    6.2149 H   0  0  0  0  0  0  0  0  0  0  0  0
   -0.4436   -2.5546    4.8877 H   0  0  0  0  0  0  0  0  0  0  0  0
    0.5272   -2.9134    6.3471 H   0  0  0  0  0  0  0  0  0  0  0  0
    2.2012   -7.4217    2.6409 H   0  0  0  0  0  0  0  0  0  0  0  0
    4.1099   -6.1570    4.1047 H   0  0  0  0  0  0  0  0  0  0  0  0
    4.4846   -6.8637    2.5255 H   0  0  0  0  0  0  0  0  0  0  0  0
    3.9226   -4.0270    3.2009 H   0  0  0  0  0  0  0  0  0  0  0  0
    5.8482   -3.4133    2.2235 H   0  0  0  0  0  0  0  0  0  0  0  0
    6.2795   -5.0810    2.5367 H   0  0  0  0  0  0  0  0  0  0  0  0
    6.8491   -4.3531    0.2568 H   0  0  0  0  0  0  0  0  0  0  0  0
    5.8029   -5.7428    0.2393 H   0  0  0  0  0  0  0  0  0  0  0  0
    6.3384   -3.7652   -1.9208 H   0  0  0  0  0  0  0  0  0  0  0  0
    5.0216   -4.8475   -2.2982 H   0  0  0  0  0  0  0  0  0  0  0  0
    4.3315    0.5035   -2.9324 H   0  0  0  0  0  0  0  0  0  0  0  0
    2.6565   -0.7596   -4.5860 H   0  0  0  0  0  0  0  0  0  0  0  0
    2.7692   -3.9508   -0.7161 H   0  0  0  0  0  0  0  0  0  0  0  0
    3.5253   -5.5086   -0.5183 H   0  0  0  0  0  0  0  0  0  0  0  0
    2.4824   -3.6616    1.5728 H   0  0  0  0  0  0  0  0  0  0  0  0
    4.8753   -2.9741   -0.0374 H   0  0  0  0  0  0  0  0  0  0  0  0
  1  2  1  0
  1 22  1  0
  1 23  1  0
  1 24  1  0
  2 21  1  0
  2  3  2  0
  3  4  1  0
  4  5  1  0
  5  6  1  0
  5 21  2  0
  6 20  1  0
  6  7  1  0
  6 25  1  6
  7  8  1  0
  7 26  1  0
  7 27  1  0
  8 19  1  0
  8  9  1  0
  8 28  1  1
  9 10  1  0
  9 29  1  0
  9 30  1  0
 10 11  1  0
 10 31  1  0
 10 32  1  0
 11 12  1  0
 11 18  1  0
 11 40  1  1
 12 13  1  0
 12 33  1  0
 12 34  1  0
 13 17  1  0
 13 14  2  0
 14 15  1  0
 15 16  2  0
 15 35  1  0
 16 17  1  0
 16 36  1  0
 18 19  1  0
 18 37  1  0
 18 38  1  0
 19 20  1  0
 19 39  1  1
M  CHG  1  11   1
M  END
>  <i_m_ct_stereo_status>  (262) 
1

>  <s_m_source_file>  (262) 
/var/tmp/pbs.5076255.sched01/tmpvuzdko10/1206lwnzxed.sdf

>  <i_m_source_file_index>  (262) 
4

>  <i_lp_mmshare_version>  (262) 
48012

>  <i_f3d_flags>  (262) 
0

>  <s_epik_input>  (262) 
W0NIM11jMW5vYyhuMSlbQ0BIXShbQ0gyXTIpT1tDQEBIXShbQ0BASF0yMylbQ0gyXU4oW0NIMl1bQ0gyXTMpW0NIMl1jNG5bY0hdW2NIXXM0

>  <s_epik_cmdline>  (262) 
J2VwaWtfcHl0aG9uJywgJy1waHQnLCAnMi4wJywgJy1waCcsICc3LjAnLCAnLXRuJywgJzgnLCAnLW1hJywgJzIwMCcsICctaW1hZScsICc8aW5maWxlLm1hZT4nLCAnLW9tYWUnLCAnPG91dGZpbGUubWFlPic=

>  <r_lp_tautomer_probability>  (262) 
1

>  <r_epik_Ionization_Penalty>  (262) 
0.798494

>  <r_epik_Ionization_Penalty_Charging>  (262) 
0.798494

>  <r_epik_Ionization_Penalty_Neutral>  (262) 
1.04633e-07

>  <r_epik_State_Penalty>  (262) 
0.829567

>  <r_epik_Charging_Adjusted_Penalty>  (262) 
1.62806

>  <i_epik_Tot_Q>  (262) 
1

>  <i_epik_Tot_abs_Q>  (262) 
1

>  <s_lp_Force_Field>  (262) 
OPLS3e

>  <r_lp_Energy>  (262) 
0.485196

>  <b_lp_Chiralities_Consistent>  (262) 
1

>  <s_lp_Variant>  (262) 
89:0-2

>  <s_i_glide_gridfile>  (262) 
pfpi4k_grid

>  <i_i_glide_lignum>  (262) 
4

>  <i_i_glide_rotatable_bonds>  (262) 
3

>  <r_i_docking_score>  (262) 
-3.2756

>  <r_i_glide_ligand_efficiency>  (262) 
-0.155981

>  <r_i_glide_ligand_efficiency_sa>  (262) 
-0.430339

>  <r_i_glide_ligand_efficiency_ln>  (262) 
-0.809885

>  <r_i_glide_gscore>  (262) 
-3.2756

>  <r_i_glide_lipo>  (262) 
-0.724229

>  <r_i_glide_hbond>  (262) 
0

>  <r_i_glide_metal>  (262) 
-0

>  <r_i_glide_rewards>  (262) 
-1.31323

>  <r_i_glide_evdw>  (262) 
-25.1079

>  <r_i_glide_ecoul>  (262) 
-3.58715

>  <r_i_glide_erotb>  (262) 
0.586924

>  <r_i_glide_esite>  (262) 
-0.0315879

>  <r_i_glide_emodel>  (262) 
-34.4231

>  <r_i_glide_energy>  (262) 
-28.6951

>  <r_i_glide_einternal>  (262) 
2.75737

>  <r_i_glide_intrahb_reward>  (262) 
-0

>  <i_i_glide_confnum>  (262) 
4

>  <i_i_glide_posenum>  (262) 
30

>  <r_i_glide_eff_state_penalty>  (262) 
0

>  <ligand_id>  (262) 
89

>  <original_smiles>  (262) 
Cc1noc(C2CC3CCN(Cc4nccs4)CC3O2)n1

>  <smiles>  (262) 
[H]c1nc(C([H])([H])[N+]2([H])C([H])([H])C([H])([H])C3([H])C([H])([H])C([H])(c4nc(C([H])([H])[H])no4)OC3([H])C2([H])[H])sc1[H]

$$$$
89:1:1
     RDKit          3D

 40 43  0  0  1  0  0  0  0  0999 V2000
   -0.3504   -2.0489    5.4991 C   0  0  0  0  0  0  0  0  0  0  0  0
    0.2938   -3.3335    5.1348 C   0  0  0  0  0  0  0  0  0  0  0  0
    0.1635   -4.4158    5.8908 N   0  0  0  0  0  0  0  0  0  0  0  0
    0.8964   -5.3856    5.1950 O   0  0  0  0  0  0  0  0  0  0  0  0
    1.3791   -4.7697    4.0863 C   0  0  0  0  0  0  0  0  0  0  0  0
    2.2262   -5.5560    3.1220 C   0  0  2  0  0  0  0  0  0  0  0  0
    3.7327   -5.4217    3.3367 C   0  0  0  0  0  0  0  0  0  0  0  0
    4.0793   -4.1519    2.5707 C   0  0  1  0  0  0  0  0  0  0  0  0
    5.5249   -4.0371    2.0375 C   0  0  0  0  0  0  0  0  0  0  0  0
    5.6748   -4.4259    0.5638 C   0  0  0  0  0  0  0  0  0  0  0  0
    4.7319   -3.6727   -0.2871 N   0  0  1  0  0  0  0  0  0  0  0  0
    5.0668   -3.8240   -1.7269 C   0  0  0  0  0  0  0  0  0  0  0  0
    4.4654   -2.6523   -2.4432 C   0  0  0  0  0  0  0  0  0  0  0  0
    4.7549   -1.3608   -2.2056 N   0  0  0  0  0  0  0  0  0  0  0  0
    4.1227   -0.4881   -3.1036 C   0  0  0  0  0  0  0  0  0  0  0  0
    3.3659   -1.1412   -4.0593 C   0  0  0  0  0  0  0  0  0  0  0  0
    3.4089   -2.8652   -3.8399 S   0  0  0  0  0  0  0  0  0  0  0  0
    3.3422   -4.0895    0.0277 C   0  0  0  0  0  0  0  0  0  0  0  0
    2.9557   -3.9813    1.5220 C   0  0  1  0  0  0  0  0  0  0  0  0
    2.0103   -5.0197    1.8156 O   0  0  0  0  0  0  0  0  0  0  0  0
    1.0381   -3.4856    4.0108 N   0  0  0  0  0  0  0  0  0  0  0  0
   -1.0609   -2.1832    6.3172 H   0  0  0  0  0  0  0  0  0  0  0  0
   -0.8719   -1.6397    4.6280 H   0  0  0  0  0  0  0  0  0  0  0  0
    0.4103   -1.3433    5.8376 H   0  0  0  0  0  0  0  0  0  0  0  0
    1.9222   -6.6042    3.1505 H   0  0  0  0  0  0  0  0  0  0  0  0
    4.0099   -5.3877    4.3948 H   0  0  0  0  0  0  0  0  0  0  0  0
    4.2373   -6.2663    2.8737 H   0  0  0  0  0  0  0  0  0  0  0  0
    3.9590   -3.3426    3.2905 H   0  0  0  0  0  0  0  0  0  0  0  0
    5.8902   -3.0102    2.1808 H   0  0  0  0  0  0  0  0  0  0  0  0
    6.1799   -4.6742    2.6368 H   0  0  0  0  0  0  0  0  0  0  0  0
    6.6985   -4.2162    0.2740 H   0  0  0  0  0  0  0  0  0  0  0  0
    5.5352   -5.4963    0.4311 H   0  0  0  0  0  0  0  0  0  0  0  0
    6.1365   -3.7987   -1.9291 H   0  0  0  0  0  0  0  0  0  0  0  0
    4.6840   -4.7547   -2.1408 H   0  0  0  0  0  0  0  0  0  0  0  0
    4.2289    0.5905   -3.0238 H   0  0  0  0  0  0  0  0  0  0  0  0
    2.7668   -0.7061   -4.8400 H   0  0  0  0  0  0  0  0  0  0  0  0
    2.6327   -3.5155   -0.5621 H   0  0  0  0  0  0  0  0  0  0  0  0
    3.2321   -5.1219   -0.2796 H   0  0  0  0  0  0  0  0  0  0  0  0
    2.4781   -3.0148    1.6906 H   0  0  0  0  0  0  0  0  0  0  0  0
    4.8381   -2.6925   -0.0699 H   0  0  0  0  0  0  0  0  0  0  0  0
  1  2  1  0
  1 22  1  0
  1 23  1  0
  1 24  1  0
  2 21  1  0
  2  3  2  0
  3  4  1  0
  4  5  1  0
  5  6  1  0
  5 21  2  0
  6 20  1  0
  6  7  1  0
  6 25  1  6
  7  8  1  0
  7 26  1  0
  7 27  1  0
  8 19  1  0
  8  9  1  0
  8 28  1  1
  9 10  1  0
  9 29  1  0
  9 30  1  0
 10 11  1  0
 10 31  1  0
 10 32  1  0
 11 12  1  0
 11 18  1  0
 11 40  1  1
 12 13  1  0
 12 33  1  0
 12 34  1  0
 13 17  1  0
 13 14  2  0
 14 15  1  0
 15 16  2  0
 15 35  1  0
 16 17  1  0
 16 36  1  0
 18 19  1  0
 18 37  1  0
 18 38  1  0
 19 20  1  0
 19 39  1  6
M  CHG  1  11   1
M  END
>  <i_m_ct_stereo_status>  (263) 
1

>  <s_m_source_file>  (263) 
/var/tmp/pbs.5076255.sched01/tmpvuzdko10/1206lwnzxed.sdf

>  <i_m_source_file_index>  (263) 
4

>  <i_lp_mmshare_version>  (263) 
48012

>  <i_f3d_flags>  (263) 
0

>  <s_epik_input>  (263) 
W0NIM11jMW5vYyhuMSlbQ0BIXShbQ0gyXTIpT1tDQEBIXShbQ0BASF0yMylbQ0gyXU4oW0NIMl1bQ0gyXTMpW0NIMl1jNG5bY0hdW2NIXXM0

>  <s_epik_cmdline>  (263) 
J2VwaWtfcHl0aG9uJywgJy1waHQnLCAnMi4wJywgJy1waCcsICc3LjAnLCAnLXRuJywgJzgnLCAnLW1hJywgJzIwMCcsICctaW1hZScsICc8aW5maWxlLm1hZT4nLCAnLW9tYWUnLCAnPG91dGZpbGUubWFlPic=

>  <r_lp_tautomer_probability>  (263) 
1

>  <r_epik_Ionization_Penalty>  (263) 
0.798494

>  <r_epik_Ionization_Penalty_Charging>  (263) 
0.798494

>  <r_epik_Ionization_Penalty_Neutral>  (263) 
1.04633e-07

>  <r_epik_State_Penalty>  (263) 
0.829567

>  <r_epik_Charging_Adjusted_Penalty>  (263) 
1.62806

>  <i_epik_Tot_Q>  (263) 
1

>  <i_epik_Tot_abs_Q>  (263) 
1

>  <s_lp_Force_Field>  (263) 
OPLS3e

>  <r_lp_Energy>  (263) 
0.485196

>  <b_lp_Chiralities_Consistent>  (263) 
1

>  <s_lp_Variant>  (263) 
89:0-2

>  <s_i_glide_gridfile>  (263) 
pfpi4k_grid

>  <i_i_glide_lignum>  (263) 
4

>  <i_i_glide_rotatable_bonds>  (263) 
3

>  <r_i_docking_score>  (263) 
-3.06982

>  <r_i_glide_ligand_efficiency>  (263) 
-0.146182

>  <r_i_glide_ligand_efficiency_sa>  (263) 
-0.403304

>  <r_i_glide_ligand_efficiency_ln>  (263) 
-0.759006

>  <r_i_glide_gscore>  (263) 
-3.06982

>  <r_i_glide_lipo>  (263) 
-0.621056

>  <r_i_glide_hbond>  (263) 
-0.00905921

>  <r_i_glide_metal>  (263) 
-0

>  <r_i_glide_rewards>  (263) 
-1.31323

>  <r_i_glide_evdw>  (263) 
-24.7484

>  <r_i_glide_ecoul>  (263) 
-3.10131

>  <r_i_glide_erotb>  (263) 
0.586924

>  <r_i_glide_esite>  (263) 
-0.0107753

>  <r_i_glide_emodel>  (263) 
-33.5621

>  <r_i_glide_energy>  (263) 
-27.8497

>  <r_i_glide_einternal>  (263) 
1.95119

>  <r_i_glide_intrahb_reward>  (263) 
-0

>  <i_i_glide_confnum>  (263) 
4

>  <i_i_glide_posenum>  (263) 
22

>  <r_i_glide_eff_state_penalty>  (263) 
0

>  <ligand_id>  (263) 
89

>  <original_smiles>  (263) 
Cc1noc(C2CC3CCN(Cc4nccs4)CC3O2)n1

>  <smiles>  (263) 
[H]c1nc(C([H])([H])[N+]2([H])C([H])([H])C([H])([H])C3([H])C([H])([H])C([H])(c4nc(C([H])([H])[H])no4)OC3([H])C2([H])[H])sc1[H]

$$$$
89:1:2
     RDKit          3D

 40 43  0  0  1  0  0  0  0  0999 V2000
    5.1994   -3.8984   -2.7556 C   0  0  0  0  0  0  0  0  0  0  0  0
    4.7587   -2.8379   -1.8164 C   0  0  0  0  0  0  0  0  0  0  0  0
    4.0392   -1.8050   -2.2351 N   0  0  0  0  0  0  0  0  0  0  0  0
    3.8261   -1.0706   -1.0602 O   0  0  0  0  0  0  0  0  0  0  0  0
    4.4719   -1.7359   -0.0715 C   0  0  0  0  0  0  0  0  0  0  0  0
    4.4749   -1.2046    1.3364 C   0  0  2  0  0  0  0  0  0  0  0  0
    3.4996   -1.8690    2.3074 C   0  0  0  0  0  0  0  0  0  0  0  0
    2.1979   -1.1180    2.0827 C   0  0  1  0  0  0  0  0  0  0  0  0
    1.2150   -1.0610    3.2727 C   0  0  0  0  0  0  0  0  0  0  0  0
    1.2786    0.2325    4.0998 C   0  0  0  0  0  0  0  0  0  0  0  0
    1.1441    1.4187    3.2195 N   0  0  1  0  0  0  0  0  0  0  0  0
    0.9604    2.6984    3.9591 C   0  0  0  0  0  0  0  0  0  0  0  0
   -0.4397    2.7254    4.5061 C   0  0  0  0  0  0  0  0  0  0  0  0
   -1.5462    2.7924    3.7564 N   0  0  0  0  0  0  0  0  0  0  0  0
   -2.7044    2.9426    4.5251 C   0  0  0  0  0  0  0  0  0  0  0  0
   -2.4733    2.9456    5.8769 C   0  0  0  0  0  0  0  0  0  0  0  0
   -0.7784    2.8016    6.2376 S   0  0  0  0  0  0  0  0  0  0  0  0
    2.3338    1.5065    2.3369 C   0  0  0  0  0  0  0  0  0  0  0  0
    2.6209    0.2410    1.4901 C   0  0  1  0  0  0  0  0  0  0  0  0
    4.0382    0.1486    1.3131 O   0  0  0  0  0  0  0  0  0  0  0  0
    5.0845   -2.8432   -0.4940 N   0  0  0  0  0  0  0  0  0  0  0  0
    4.6694   -3.8294   -3.7062 H   0  0  0  0  0  0  0  0  0  0  0  0
    5.0123   -4.8814   -2.3189 H   0  0  0  0  0  0  0  0  0  0  0  0
    6.2647   -3.7921   -2.9604 H   0  0  0  0  0  0  0  0  0  0  0  0
    5.4935   -1.2612    1.7184 H   0  0  0  0  0  0  0  0  0  0  0  0
    3.4136   -2.9457    2.1544 H   0  0  0  0  0  0  0  0  0  0  0  0
    3.8394   -1.6981    3.3282 H   0  0  0  0  0  0  0  0  0  0  0  0
    1.6897   -1.6534    1.2798 H   0  0  0  0  0  0  0  0  0  0  0  0
    0.2020   -1.1709    2.8875 H   0  0  0  0  0  0  0  0  0  0  0  0
    1.3841   -1.9150    3.9276 H   0  0  0  0  0  0  0  0  0  0  0  0
    0.4788    0.2097    4.8427 H   0  0  0  0  0  0  0  0  0  0  0  0
    2.2172    0.2829    4.6554 H   0  0  0  0  0  0  0  0  0  0  0  0
    1.6866    2.8093    4.7651 H   0  0  0  0  0  0  0  0  0  0  0  0
    1.0683    3.5571    3.2948 H   0  0  0  0  0  0  0  0  0  0  0  0
   -3.6697    2.9910    4.0400 H   0  0  0  0  0  0  0  0  0  0  0  0
   -3.1929    3.0115    6.6732 H   0  0  0  0  0  0  0  0  0  0  0  0
    2.2093    2.3625    1.6728 H   0  0  0  0  0  0  0  0  0  0  0  0
    3.2019    1.7258    2.9612 H   0  0  0  0  0  0  0  0  0  0  0  0
    2.1583    0.3505    0.5122 H   0  0  0  0  0  0  0  0  0  0  0  0
    0.3251    1.2990    2.6362 H   0  0  0  0  0  0  0  0  0  0  0  0
  1  2  1  0
  1 22  1  0
  1 23  1  0
  1 24  1  0
  2 21  1  0
  2  3  2  0
  3  4  1  0
  4  5  1  0
  5  6  1  0
  5 21  2  0
  6 20  1  0
  6  7  1  0
  6 25  1  1
  7  8  1  0
  7 26  1  0
  7 27  1  0
  8 19  1  0
  8  9  1  0
  8 28  1  6
  9 10  1  0
  9 29  1  0
  9 30  1  0
 10 11  1  0
 10 31  1  0
 10 32  1  0
 11 12  1  0
 11 18  1  0
 11 40  1  6
 12 13  1  0
 12 33  1  0
 12 34  1  0
 13 17  1  0
 13 14  2  0
 14 15  1  0
 15 16  2  0
 15 35  1  0
 16 17  1  0
 16 36  1  0
 18 19  1  0
 18 37  1  0
 18 38  1  0
 19 20  1  0
 19 39  1  6
M  CHG  1  11   1
M  END
>  <i_m_ct_stereo_status>  (264) 
1

>  <s_m_source_file>  (264) 
/var/tmp/pbs.5076255.sched01/tmpvuzdko10/1206lwnzxed.sdf

>  <i_m_source_file_index>  (264) 
4

>  <i_lp_mmshare_version>  (264) 
48012

>  <i_f3d_flags>  (264) 
0

>  <s_epik_input>  (264) 
W0NIM11jMW5vYyhuMSlbQ0BIXShbQ0gyXTIpT1tDQEBIXShbQ0BASF0yMylbQ0gyXU4oW0NIMl1bQ0gyXTMpW0NIMl1jNG5bY0hdW2NIXXM0

>  <s_epik_cmdline>  (264) 
J2VwaWtfcHl0aG9uJywgJy1waHQnLCAnMi4wJywgJy1waCcsICc3LjAnLCAnLXRuJywgJzgnLCAnLW1hJywgJzIwMCcsICctaW1hZScsICc8aW5maWxlLm1hZT4nLCAnLW9tYWUnLCAnPG91dGZpbGUubWFlPic=

>  <r_lp_tautomer_probability>  (264) 
1

>  <r_epik_Ionization_Penalty>  (264) 
0.798494

>  <r_epik_Ionization_Penalty_Charging>  (264) 
0.798494

>  <r_epik_Ionization_Penalty_Neutral>  (264) 
1.04633e-07

>  <r_epik_State_Penalty>  (264) 
0.829567

>  <r_epik_Charging_Adjusted_Penalty>  (264) 
1.62806

>  <i_epik_Tot_Q>  (264) 
1

>  <i_epik_Tot_abs_Q>  (264) 
1

>  <s_lp_Force_Field>  (264) 
OPLS3e

>  <r_lp_Energy>  (264) 
0.485196

>  <b_lp_Chiralities_Consistent>  (264) 
1

>  <s_lp_Variant>  (264) 
89:0-2

>  <s_i_glide_gridfile>  (264) 
pfpi4k_grid

>  <i_i_glide_lignum>  (264) 
4

>  <i_i_glide_rotatable_bonds>  (264) 
3

>  <r_i_docking_score>  (264) 
-2.69816

>  <r_i_glide_ligand_efficiency>  (264) 
-0.128484

>  <r_i_glide_ligand_efficiency_sa>  (264) 
-0.354477

>  <r_i_glide_ligand_efficiency_ln>  (264) 
-0.667114

>  <r_i_glide_gscore>  (264) 
-2.69816

>  <r_i_glide_lipo>  (264) 
-0.166254

>  <r_i_glide_hbond>  (264) 
0

>  <r_i_glide_metal>  (264) 
-0

>  <r_i_glide_rewards>  (264) 
-1.32231

>  <r_i_glide_evdw>  (264) 
-24.0206

>  <r_i_glide_ecoul>  (264) 
-3.25326

>  <r_i_glide_erotb>  (264) 
0.586924

>  <r_i_glide_esite>  (264) 
-0.107496

>  <r_i_glide_emodel>  (264) 
-32.8839

>  <r_i_glide_energy>  (264) 
-27.2738

>  <r_i_glide_einternal>  (264) 
0.530509

>  <r_i_glide_intrahb_reward>  (264) 
-0

>  <i_i_glide_confnum>  (264) 
5

>  <i_i_glide_posenum>  (264) 
20

>  <r_i_glide_eff_state_penalty>  (264) 
0

>  <ligand_id>  (264) 
89

>  <original_smiles>  (264) 
Cc1noc(C2CC3CCN(Cc4nccs4)CC3O2)n1

>  <smiles>  (264) 
[H]c1nc(C([H])([H])[N+]2([H])C([H])([H])C([H])([H])C3([H])C([H])([H])C([H])(c4nc(C([H])([H])[H])no4)OC3([H])C2([H])[H])sc1[H]

$$$$
90:0:0
     RDKit          3D

 62 67  0  0  1  0  0  0  0  0999 V2000
    6.0413   -2.2022    1.5595 C   0  0  0  0  0  0  0  0  0  0  0  0
    4.5351   -2.5842    1.5994 C   0  0  1  0  0  0  0  0  0  0  0  0
    4.1621   -3.1915    2.9723 C   0  0  0  0  0  0  0  0  0  0  0  0
    3.8168   -2.1274    4.0418 C   0  0  1  0  0  0  0  0  0  0  0  0
    4.9965   -1.4310    4.3948 O   0  0  0  0  0  0  0  0  0  0  0  0
    2.6676   -1.1611    3.5858 C   0  0  2  0  0  0  0  0  0  0  0  0
    1.3409   -1.9682    3.6466 C   0  0  0  0  0  0  0  0  0  0  0  0
    2.8596   -0.7091    2.1262 C   0  0  0  0  0  0  0  0  0  0  0  0
    3.6934   -1.3645    1.2693 C   0  0  0  0  0  0  0  0  0  0  0  0
    3.8396   -1.1565   -0.2268 C   0  0  0  0  0  0  0  0  0  0  0  0
    4.0410   -2.5665   -0.8095 C   0  0  0  0  0  0  0  0  0  0  0  0
    4.1672   -3.5009    0.4074 C   0  0  1  0  0  0  0  0  0  0  0  0
    5.0639   -4.5638    0.1700 O   0  0  0  0  0  0  0  0  0  0  0  0
    2.0509    0.4097    1.6662 C   0  0  0  0  0  0  0  0  0  0  0  0
    1.4261    1.2590    2.4981 C   0  0  0  0  0  0  0  0  0  0  0  0
    1.5411    1.2057    4.0109 C   0  0  1  0  0  0  0  0  0  0  0  0
    0.1806    1.1288    4.7407 C   0  0  2  0  0  0  0  0  0  0  0  0
   -0.6511    2.4354    4.8934 C   0  0  0  0  0  0  0  0  0  0  0  0
   -1.3945    3.0803    4.1517 O   0  0  0  0  0  0  0  0  0  0  0  0
   -0.2872    2.5226    6.3983 C   0  0  1  0  0  0  0  0  0  0  0  0
   -1.3992    2.8582    7.3788 C   0  0  0  0  0  0  0  0  0  0  0  0
   -1.1729    3.1027    8.7595 C   0  0  0  0  0  0  0  0  0  0  0  0
   -2.4108    3.3269    9.2858 C   0  0  0  0  0  0  0  0  0  0  0  0
   -3.3771    3.2282    8.3248 O   0  0  0  0  0  0  0  0  0  0  0  0
   -2.7419    2.9429    7.1514 C   0  0  0  0  0  0  0  0  0  0  0  0
    0.2451    1.0617    6.2873 C   0  0  1  0  0  0  0  0  0  0  0  0
   -0.6558   -0.0247    6.8777 C   0  0  0  0  0  0  0  0  0  0  0  0
    1.6680    0.8687    6.8220 C   0  0  0  0  0  0  0  0  0  0  0  0
    2.4367   -0.1928    6.0204 C   0  0  0  0  0  0  0  0  0  0  0  0
    2.5668    0.1220    4.5010 C   0  0  1  0  0  0  0  0  0  0  0  0
    6.6600   -3.0247    1.9149 H   0  0  0  0  0  0  0  0  0  0  0  0
    6.2596   -1.3279    2.1725 H   0  0  0  0  0  0  0  0  0  0  0  0
    6.3824   -1.9614    0.5525 H   0  0  0  0  0  0  0  0  0  0  0  0
    3.3050   -3.8488    2.8502 H   0  0  0  0  0  0  0  0  0  0  0  0
    4.9589   -3.8447    3.3265 H   0  0  0  0  0  0  0  0  0  0  0  0
    3.5040   -2.6536    4.9438 H   0  0  0  0  0  0  0  0  0  0  0  0
    5.2810   -0.9437    3.6356 H   0  0  0  0  0  0  0  0  0  0  0  0
    1.1548   -2.4048    4.6276 H   0  0  0  0  0  0  0  0  0  0  0  0
    1.3397   -2.8013    2.9441 H   0  0  0  0  0  0  0  0  0  0  0  0
    0.4688   -1.3688    3.3900 H   0  0  0  0  0  0  0  0  0  0  0  0
    3.0049   -0.6595   -0.7008 H   0  0  0  0  0  0  0  0  0  0  0  0
    4.7196   -0.5457   -0.4125 H   0  0  0  0  0  0  0  0  0  0  0  0
    3.2012   -2.8711   -1.4393 H   0  0  0  0  0  0  0  0  0  0  0  0
    4.9315   -2.5923   -1.4382 H   0  0  0  0  0  0  0  0  0  0  0  0
    3.1828   -3.9377    0.5847 H   0  0  0  0  0  0  0  0  0  0  0  0
    4.7128   -5.0905   -0.5356 H   0  0  0  0  0  0  0  0  0  0  0  0
    1.8800    0.5424    0.6107 H   0  0  0  0  0  0  0  0  0  0  0  0
    0.8286    2.0649    2.0889 H   0  0  0  0  0  0  0  0  0  0  0  0
    1.9847    2.1690    4.2621 H   0  0  0  0  0  0  0  0  0  0  0  0
   -0.4475    0.3218    4.3639 H   0  0  0  0  0  0  0  0  0  0  0  0
    0.5212    3.2384    6.5521 H   0  0  0  0  0  0  0  0  0  0  0  0
   -0.2402    3.1044    9.3046 H   0  0  0  0  0  0  0  0  0  0  0  0
   -2.7618    3.5484   10.2835 H   0  0  0  0  0  0  0  0  0  0  0  0
   -3.3882    2.8355    6.2947 H   0  0  0  0  0  0  0  0  0  0  0  0
   -0.6624    0.0180    7.9669 H   0  0  0  0  0  0  0  0  0  0  0  0
   -0.3301   -1.0210    6.5747 H   0  0  0  0  0  0  0  0  0  0  0  0
   -1.6770    0.0930    6.5179 H   0  0  0  0  0  0  0  0  0  0  0  0
    2.2187    1.8061    6.7602 H   0  0  0  0  0  0  0  0  0  0  0  0
    1.6593    0.6175    7.8815 H   0  0  0  0  0  0  0  0  0  0  0  0
    3.4327   -0.2900    6.4477 H   0  0  0  0  0  0  0  0  0  0  0  0
    1.9647   -1.1595    6.1895 H   0  0  0  0  0  0  0  0  0  0  0  0
    3.5259    0.6302    4.3918 H   0  0  0  0  0  0  0  0  0  0  0  0
  2  1  1  1
  1 31  1  0
  1 32  1  0
  1 33  1  0
  2  9  1  0
  2 12  1  0
  2  3  1  0
  3  4  1  0
  3 34  1  0
  3 35  1  0
  4  5  1  0
  4  6  1  0
  4 36  1  1
  5 37  1  0
  6 30  1  0
  6  7  1  6
  6  8  1  0
  7 38  1  0
  7 39  1  0
  7 40  1  0
  8  9  2  0
  8 14  1  0
  9 10  1  0
 10 11  1  0
 10 41  1  0
 10 42  1  0
 11 12  1  0
 11 43  1  0
 11 44  1  0
 12 13  1  0
 12 45  1  1
 13 46  1  0
 14 15  2  0
 14 47  1  0
 15 16  1  0
 15 48  1  0
 16 30  1  0
 16 17  1  0
 16 49  1  1
 17 26  1  0
 17 18  1  0
 17 50  1  6
 18 19  2  0
 18 20  1  0
 20 21  1  0
 20 26  1  0
 20 51  1  6
 21 25  2  0
 21 22  1  0
 22 23  2  0
 22 52  1  0
 23 24  1  0
 23 53  1  0
 24 25  1  0
 25 54  1  0
 26 27  1  1
 26 28  1  0
 27 55  1  0
 27 56  1  0
 27 57  1  0
 28 29  1  0
 28 58  1  0
 28 59  1  0
 29 30  1  0
 29 60  1  0
 29 61  1  0
 30 62  1  1
M  END
>  <i_m_ct_stereo_status>  (265) 
1

>  <s_m_source_file>  (265) 
/var/tmp/pbs.5076255.sched01/tmpvuzdko10/1206lwnzxed.sdf

>  <i_m_source_file_index>  (265) 
5

>  <i_lp_mmshare_version>  (265) 
48012

>  <i_f3d_flags>  (265) 
0

>  <s_epik_input>  (265) 
W09IXVtDQEBIXTFbQ0gyXVtDSDJdQyhbQ0BdMTJbQ0gzXSk9QzNbQ0BAXShbQ0gzXSkoW0NAQEhdKFtDSDJdMilbT0hdKVtDQEhdNFtDQEBIXShbQ0hdPVtDSF0zKVtDQEhdNVtDQEBdKFtDSDNdKShbQ0gyXVtDSDJdNClbQ0BASF0oQzU9TyljNltjSF1bY0hdb1tjSF02

>  <s_epik_cmdline>  (265) 
J2VwaWtfcHl0aG9uJywgJy1waHQnLCAnMi4wJywgJy1waCcsICc3LjAnLCAnLXRuJywgJzgnLCAnLW1hJywgJzIwMCcsICctaW1hZScsICc8aW5maWxlLm1hZT4nLCAnLW9tYWUnLCAnPG91dGZpbGUubWFlPic=

>  <r_lp_tautomer_probability>  (265) 
1

>  <r_epik_Ionization_Penalty>  (265) 
6.17225e-07

>  <r_epik_Ionization_Penalty_Charging>  (265) 
0

>  <r_epik_Ionization_Penalty_Neutral>  (265) 
6.17225e-07

>  <r_epik_State_Penalty>  (265) 
-0

>  <r_epik_Charging_Adjusted_Penalty>  (265) 
0

>  <i_epik_Tot_Q>  (265) 
0

>  <i_epik_Tot_abs_Q>  (265) 
0

>  <s_lp_Force_Field>  (265) 
OPLS3e

>  <r_lp_Energy>  (265) 
38.2676

>  <b_lp_Chiralities_Consistent>  (265) 
1

>  <s_lp_Variant>  (265) 
90:0-1

>  <s_i_glide_gridfile>  (265) 
pfpi4k_grid

>  <i_i_glide_lignum>  (265) 
5

>  <i_i_glide_rotatable_bonds>  (265) 
3

>  <r_i_docking_score>  (265) 
-2.44315

>  <r_i_glide_ligand_efficiency>  (265) 
-0.0814385

>  <r_i_glide_ligand_efficiency_sa>  (265) 
-0.253048

>  <r_i_glide_ligand_efficiency_ln>  (265) 
-0.555111

>  <r_i_glide_gscore>  (265) 
-2.44315

>  <r_i_glide_lipo>  (265) 
-0.363996

>  <r_i_glide_hbond>  (265) 
0

>  <r_i_glide_metal>  (265) 
-0

>  <r_i_glide_rewards>  (265) 
-0.62366

>  <r_i_glide_evdw>  (265) 
-24.0359

>  <r_i_glide_ecoul>  (265) 
-2.39313

>  <r_i_glide_erotb>  (265) 
0.11793

>  <r_i_glide_esite>  (265) 
-0.0126641

>  <r_i_glide_emodel>  (265) 
-29.8424

>  <r_i_glide_energy>  (265) 
-26.429

>  <r_i_glide_einternal>  (265) 
0.358252

>  <r_i_glide_intrahb_reward>  (265) 
-0

>  <i_i_glide_confnum>  (265) 
3

>  <i_i_glide_posenum>  (265) 
4

>  <r_i_glide_eff_state_penalty>  (265) 
0

>  <ligand_id>  (265) 
90

>  <original_smiles>  (265) 
CC12CC(O)C3(C)C(=C1CCC2O)C=CC1C2C(=O)C(c4ccoc4)C2(C)CCC13

>  <smiles>  (265) 
[H]OC1([H])C([H])([H])C([H])([H])C2=C3C([H])=C([H])C4([H])C5([H])C(=O)C([H])(c6c([H])oc([H])c6[H])C5(C([H])([H])[H])C([H])([H])C([H])([H])C4([H])C3(C([H])([H])[H])C([H])(O[H])C([H])([H])C21C([H])([H])[H]

$$$$
90:0:1
     RDKit          3D

 62 67  0  0  1  0  0  0  0  0999 V2000
    6.0053   -2.4028    1.4135 C   0  0  0  0  0  0  0  0  0  0  0  0
    4.4862   -2.7383    1.4441 C   0  0  1  0  0  0  0  0  0  0  0  0
    4.0989   -3.3937    2.7904 C   0  0  0  0  0  0  0  0  0  0  0  0
    3.7920   -2.3677    3.9069 C   0  0  1  0  0  0  0  0  0  0  0  0
    4.9946   -1.7258    4.2841 O   0  0  0  0  0  0  0  0  0  0  0  0
    2.6729   -1.3462    3.5005 C   0  0  2  0  0  0  0  0  0  0  0  0
    1.3204   -2.1129    3.5350 C   0  0  0  0  0  0  0  0  0  0  0  0
    2.8735   -0.8331    2.0617 C   0  0  0  0  0  0  0  0  0  0  0  0
    3.6803   -1.4789    1.1710 C   0  0  0  0  0  0  0  0  0  0  0  0
    3.8244   -1.2107   -0.3158 C   0  0  0  0  0  0  0  0  0  0  0  0
    3.9813   -2.6004   -0.9594 C   0  0  0  0  0  0  0  0  0  0  0  0
    4.0824   -3.5904    0.2159 C   0  0  1  0  0  0  0  0  0  0  0  0
    4.9382   -4.6747   -0.0728 O   0  0  0  0  0  0  0  0  0  0  0  0
    2.1006    0.3335    1.6562 C   0  0  0  0  0  0  0  0  0  0  0  0
    1.5022    1.1601    2.5314 C   0  0  0  0  0  0  0  0  0  0  0  0
    1.6241    1.0317    4.0383 C   0  0  1  0  0  0  0  0  0  0  0  0
    0.2695    0.9670    4.7762 C   0  0  2  0  0  0  0  0  0  0  0  0
   -0.5089    2.2958    4.9924 C   0  0  0  0  0  0  0  0  0  0  0  0
   -1.2337    2.9942    4.2871 O   0  0  0  0  0  0  0  0  0  0  0  0
   -0.1406    2.2990    6.4990 C   0  0  1  0  0  0  0  0  0  0  0  0
   -1.2573    2.6263    7.4804 C   0  0  0  0  0  0  0  0  0  0  0  0
   -2.6277    2.8915    7.2035 C   0  0  0  0  0  0  0  0  0  0  0  0
   -3.1918    3.1056    8.4309 C   0  0  0  0  0  0  0  0  0  0  0  0
   -2.2744    2.9781    9.4269 O   0  0  0  0  0  0  0  0  0  0  0  0
   -1.0858    2.6890    8.8331 C   0  0  0  0  0  0  0  0  0  0  0  0
    0.3413    0.8275    6.3159 C   0  0  1  0  0  0  0  0  0  0  0  0
   -0.5912   -0.2540    6.8590 C   0  0  0  0  0  0  0  0  0  0  0  0
    1.7564    0.5664    6.8322 C   0  0  0  0  0  0  0  0  0  0  0  0
    2.4835   -0.4818    5.9775 C   0  0  0  0  0  0  0  0  0  0  0  0
    2.6181   -0.1035    4.4725 C   0  0  1  0  0  0  0  0  0  0  0  0
    6.6086   -3.2539    1.7309 H   0  0  0  0  0  0  0  0  0  0  0  0
    6.2502   -1.5617    2.0617 H   0  0  0  0  0  0  0  0  0  0  0  0
    6.3473   -2.1276    0.4158 H   0  0  0  0  0  0  0  0  0  0  0  0
    3.2205   -4.0177    2.6444 H   0  0  0  0  0  0  0  0  0  0  0  0
    4.8761   -4.0869    3.1117 H   0  0  0  0  0  0  0  0  0  0  0  0
    3.4659   -2.9215    4.7873 H   0  0  0  0  0  0  0  0  0  0  0  0
    5.3064   -1.2379    3.5359 H   0  0  0  0  0  0  0  0  0  0  0  0
    1.1249   -2.5857    4.4973 H   0  0  0  0  0  0  0  0  0  0  0  0
    1.2915   -2.9155    2.7991 H   0  0  0  0  0  0  0  0  0  0  0  0
    0.4660   -1.4765    3.3087 H   0  0  0  0  0  0  0  0  0  0  0  0
    3.0025   -0.6676   -0.7584 H   0  0  0  0  0  0  0  0  0  0  0  0
    4.7236   -0.6191   -0.4790 H   0  0  0  0  0  0  0  0  0  0  0  0
    3.1299   -2.8497   -1.5965 H   0  0  0  0  0  0  0  0  0  0  0  0
    4.8679   -2.6251   -1.5938 H   0  0  0  0  0  0  0  0  0  0  0  0
    3.0844   -4.0009    0.3787 H   0  0  0  0  0  0  0  0  0  0  0  0
    4.5561   -5.1679   -0.7874 H   0  0  0  0  0  0  0  0  0  0  0  0
    1.9349    0.5345    0.6102 H   0  0  0  0  0  0  0  0  0  0  0  0
    0.9303    2.0010    2.1605 H   0  0  0  0  0  0  0  0  0  0  0  0
    2.0983    1.9693    4.3272 H   0  0  0  0  0  0  0  0  0  0  0  0
   -0.3911    0.2035    4.3663 H   0  0  0  0  0  0  0  0  0  0  0  0
    0.6903    2.9831    6.6843 H   0  0  0  0  0  0  0  0  0  0  0  0
   -3.1430    2.9233    6.2549 H   0  0  0  0  0  0  0  0  0  0  0  0
   -4.1861    3.3417    8.7732 H   0  0  0  0  0  0  0  0  0  0  0  0
   -0.2570    2.5554    9.5120 H   0  0  0  0  0  0  0  0  0  0  0  0
   -0.5845   -0.2600    7.9488 H   0  0  0  0  0  0  0  0  0  0  0  0
   -0.3048   -1.2460    6.5084 H   0  0  0  0  0  0  0  0  0  0  0  0
   -1.6099   -0.0852    6.5076 H   0  0  0  0  0  0  0  0  0  0  0  0
    2.3360    1.4881    6.8067 H   0  0  0  0  0  0  0  0  0  0  0  0
    1.7445    0.2691    7.8796 H   0  0  0  0  0  0  0  0  0  0  0  0
    3.4784   -0.6291    6.3931 H   0  0  0  0  0  0  0  0  0  0  0  0
    1.9810   -1.4391    6.1066 H   0  0  0  0  0  0  0  0  0  0  0  0
    3.5913    0.3802    4.3791 H   0  0  0  0  0  0  0  0  0  0  0  0
  2  1  1  1
  1 31  1  0
  1 32  1  0
  1 33  1  0
  2  9  1  0
  2 12  1  0
  2  3  1  0
  3  4  1  0
  3 34  1  0
  3 35  1  0
  4  5  1  0
  4  6  1  0
  4 36  1  1
  5 37  1  0
  6 30  1  0
  6  7  1  6
  6  8  1  0
  7 38  1  0
  7 39  1  0
  7 40  1  0
  8  9  2  0
  8 14  1  0
  9 10  1  0
 10 11  1  0
 10 41  1  0
 10 42  1  0
 11 12  1  0
 11 43  1  0
 11 44  1  0
 12 13  1  0
 12 45  1  1
 13 46  1  0
 14 15  2  0
 14 47  1  0
 15 16  1  0
 15 48  1  0
 16 30  1  0
 16 17  1  0
 16 49  1  1
 17 26  1  0
 17 18  1  0
 17 50  1  6
 18 19  2  0
 18 20  1  0
 20 21  1  0
 20 26  1  0
 20 51  1  6
 21 25  2  0
 21 22  1  0
 22 23  2  0
 22 52  1  0
 23 24  1  0
 23 53  1  0
 24 25  1  0
 25 54  1  0
 26 27  1  1
 26 28  1  0
 27 55  1  0
 27 56  1  0
 27 57  1  0
 28 29  1  0
 28 58  1  0
 28 59  1  0
 29 30  1  0
 29 60  1  0
 29 61  1  0
 30 62  1  1
M  END
>  <i_m_ct_stereo_status>  (266) 
1

>  <s_m_source_file>  (266) 
/var/tmp/pbs.5076255.sched01/tmpvuzdko10/1206lwnzxed.sdf

>  <i_m_source_file_index>  (266) 
5

>  <i_lp_mmshare_version>  (266) 
48012

>  <i_f3d_flags>  (266) 
0

>  <s_epik_input>  (266) 
W09IXVtDQEBIXTFbQ0gyXVtDSDJdQyhbQ0BdMTJbQ0gzXSk9QzNbQ0BAXShbQ0gzXSkoW0NAQEhdKFtDSDJdMilbT0hdKVtDQEhdNFtDQEBIXShbQ0hdPVtDSF0zKVtDQEhdNVtDQEBdKFtDSDNdKShbQ0gyXVtDSDJdNClbQ0BASF0oQzU9TyljNltjSF1bY0hdb1tjSF02

>  <s_epik_cmdline>  (266) 
J2VwaWtfcHl0aG9uJywgJy1waHQnLCAnMi4wJywgJy1waCcsICc3LjAnLCAnLXRuJywgJzgnLCAnLW1hJywgJzIwMCcsICctaW1hZScsICc8aW5maWxlLm1hZT4nLCAnLW9tYWUnLCAnPG91dGZpbGUubWFlPic=

>  <r_lp_tautomer_probability>  (266) 
1

>  <r_epik_Ionization_Penalty>  (266) 
6.17225e-07

>  <r_epik_Ionization_Penalty_Charging>  (266) 
0

>  <r_epik_Ionization_Penalty_Neutral>  (266) 
6.17225e-07

>  <r_epik_State_Penalty>  (266) 
-0

>  <r_epik_Charging_Adjusted_Penalty>  (266) 
0

>  <i_epik_Tot_Q>  (266) 
0

>  <i_epik_Tot_abs_Q>  (266) 
0

>  <s_lp_Force_Field>  (266) 
OPLS3e

>  <r_lp_Energy>  (266) 
38.2676

>  <b_lp_Chiralities_Consistent>  (266) 
1

>  <s_lp_Variant>  (266) 
90:0-1

>  <s_i_glide_gridfile>  (266) 
pfpi4k_grid

>  <i_i_glide_lignum>  (266) 
5

>  <i_i_glide_rotatable_bonds>  (266) 
3

>  <r_i_docking_score>  (266) 
-2.42622

>  <r_i_glide_ligand_efficiency>  (266) 
-0.0808741

>  <r_i_glide_ligand_efficiency_sa>  (266) 
-0.251295

>  <r_i_glide_ligand_efficiency_ln>  (266) 
-0.551264

>  <r_i_glide_gscore>  (266) 
-2.42622

>  <r_i_glide_lipo>  (266) 
-0.394112

>  <r_i_glide_hbond>  (266) 
0

>  <r_i_glide_metal>  (266) 
-0

>  <r_i_glide_rewards>  (266) 
-0.62366

>  <r_i_glide_evdw>  (266) 
-23.7803

>  <r_i_glide_ecoul>  (266) 
-2.17698

>  <r_i_glide_erotb>  (266) 
0.11793

>  <r_i_glide_esite>  (266) 
-0.0108169

>  <r_i_glide_emodel>  (266) 
-29.2593

>  <r_i_glide_energy>  (266) 
-25.9573

>  <r_i_glide_einternal>  (266) 
0.637121

>  <r_i_glide_intrahb_reward>  (266) 
-0

>  <i_i_glide_confnum>  (266) 
3

>  <i_i_glide_posenum>  (266) 
1

>  <r_i_glide_eff_state_penalty>  (266) 
0

>  <ligand_id>  (266) 
90

>  <original_smiles>  (266) 
CC12CC(O)C3(C)C(=C1CCC2O)C=CC1C2C(=O)C(c4ccoc4)C2(C)CCC13

>  <smiles>  (266) 
[H]OC1([H])C([H])([H])C([H])([H])C2=C3C([H])=C([H])C4([H])C5([H])C(=O)C([H])(c6c([H])oc([H])c6[H])C5(C([H])([H])[H])C([H])([H])C([H])([H])C4([H])C3(C([H])([H])[H])C([H])(O[H])C([H])([H])C21C([H])([H])[H]

$$$$
90:0:2
     RDKit          3D

 62 67  0  0  1  0  0  0  0  0999 V2000
    5.9987   -2.2088    1.6359 C   0  0  0  0  0  0  0  0  0  0  0  0
    4.4831   -2.5503    1.6918 C   0  0  1  0  0  0  0  0  0  0  0  0
    4.1002   -3.1058    3.0834 C   0  0  0  0  0  0  0  0  0  0  0  0
    3.7860   -2.0003    4.1186 C   0  0  1  0  0  0  0  0  0  0  0  0
    4.9839   -1.3249    4.4479 O   0  0  0  0  0  0  0  0  0  0  0  0
    2.6614   -1.0194    3.6373 C   0  0  2  0  0  0  0  0  0  0  0  0
    1.3139   -1.7903    3.7286 C   0  0  0  0  0  0  0  0  0  0  0  0
    2.8585   -0.6174    2.1647 C   0  0  0  0  0  0  0  0  0  0  0  0
    3.6729   -1.3203    1.3256 C   0  0  0  0  0  0  0  0  0  0  0  0
    3.8181   -1.1616   -0.1772 C   0  0  0  0  0  0  0  0  0  0  0  0
    3.9845   -2.5943   -0.7155 C   0  0  0  0  0  0  0  0  0  0  0  0
    4.0869   -3.4939    0.5293 C   0  0  1  0  0  0  0  0  0  0  0  0
    4.9585   -4.5840    0.3211 O   0  0  0  0  0  0  0  0  0  0  0  0
    2.0733    0.5045    1.6731 C   0  0  0  0  0  0  0  0  0  0  0  0
    1.4728    1.3952    2.4827 C   0  0  0  0  0  0  0  0  0  0  0  0
    1.5971    1.3849    3.9964 C   0  0  1  0  0  0  0  0  0  0  0  0
    0.2411    1.3694    4.7411 C   0  0  2  0  0  0  0  0  0  0  0  0
   -0.5494    2.7072    4.8608 C   0  0  0  0  0  0  0  0  0  0  0  0
   -1.2935    3.3400    4.1138 O   0  0  0  0  0  0  0  0  0  0  0  0
   -0.1813    2.8218    6.3632 C   0  0  1  0  0  0  0  0  0  0  0  0
   -1.3095    3.2399    7.2957 C   0  0  0  0  0  0  0  0  0  0  0  0
   -2.6538    2.7728    7.2987 C   0  0  0  0  0  0  0  0  0  0  0  0
   -3.2186    3.3438    8.4038 C   0  0  0  0  0  0  0  0  0  0  0  0
   -2.3212    4.1233    9.0669 O   0  0  0  0  0  0  0  0  0  0  0  0
   -1.1516    4.0553    8.3785 C   0  0  0  0  0  0  0  0  0  0  0  0
    0.3111    1.3410    6.2894 C   0  0  1  0  0  0  0  0  0  0  0  0
   -0.6046    0.2791    6.9096 C   0  0  0  0  0  0  0  0  0  0  0  0
    1.7296    1.1294    6.8196 C   0  0  0  0  0  0  0  0  0  0  0  0
    2.4633    0.0251    6.0446 C   0  0  0  0  0  0  0  0  0  0  0  0
    2.5978    0.2922    4.5148 C   0  0  1  0  0  0  0  0  0  0  0  0
    6.6035   -3.0326    2.0161 H   0  0  0  0  0  0  0  0  0  0  0  0
    6.2393   -1.3200    2.2190 H   0  0  0  0  0  0  0  0  0  0  0  0
    6.3403   -2.0072    0.6205 H   0  0  0  0  0  0  0  0  0  0  0  0
    3.2255   -3.7438    2.9840 H   0  0  0  0  0  0  0  0  0  0  0  0
    4.8822   -3.7686    3.4550 H   0  0  0  0  0  0  0  0  0  0  0  0
    3.4640   -2.4899    5.0386 H   0  0  0  0  0  0  0  0  0  0  0  0
    5.2831   -0.8734    3.6705 H   0  0  0  0  0  0  0  0  0  0  0  0
    1.1224   -2.1925    4.7236 H   0  0  0  0  0  0  0  0  0  0  0  0
    1.2884   -2.6444    3.0523 H   0  0  0  0  0  0  0  0  0  0  0  0
    0.4557   -1.1773    3.4580 H   0  0  0  0  0  0  0  0  0  0  0  0
    2.9955   -0.6595   -0.6639 H   0  0  0  0  0  0  0  0  0  0  0  0
    4.7151   -0.5806   -0.3825 H   0  0  0  0  0  0  0  0  0  0  0  0
    3.1320   -2.8931   -1.3307 H   0  0  0  0  0  0  0  0  0  0  0  0
    4.8706   -2.6650   -1.3488 H   0  0  0  0  0  0  0  0  0  0  0  0
    3.0907   -3.9001    0.7218 H   0  0  0  0  0  0  0  0  0  0  0  0
    4.6061   -5.1059   -0.3886 H   0  0  0  0  0  0  0  0  0  0  0  0
    1.9010    0.5998    0.6153 H   0  0  0  0  0  0  0  0  0  0  0  0
    0.8956    2.2053    2.0530 H   0  0  0  0  0  0  0  0  0  0  0  0
    2.0658    2.3440    4.2130 H   0  0  0  0  0  0  0  0  0  0  0  0
   -0.4144    0.5711    4.3935 H   0  0  0  0  0  0  0  0  0  0  0  0
    0.6511    3.5212    6.4900 H   0  0  0  0  0  0  0  0  0  0  0  0
   -3.1400    2.0897    6.6209 H   0  0  0  0  0  0  0  0  0  0  0  0
   -4.1952    3.2949    8.8570 H   0  0  0  0  0  0  0  0  0  0  0  0
   -0.3273    4.5969    8.8214 H   0  0  0  0  0  0  0  0  0  0  0  0
   -0.6321    0.3576    7.9976 H   0  0  0  0  0  0  0  0  0  0  0  0
   -0.2899   -0.7292    6.6409 H   0  0  0  0  0  0  0  0  0  0  0  0
   -1.6197    0.3765    6.5310 H   0  0  0  0  0  0  0  0  0  0  0  0
    2.3051    2.0498    6.7260 H   0  0  0  0  0  0  0  0  0  0  0  0
    1.7213    0.9092    7.8856 H   0  0  0  0  0  0  0  0  0  0  0  0
    3.4580   -0.0834    6.4683 H   0  0  0  0  0  0  0  0  0  0  0  0
    1.9712   -0.9261    6.2433 H   0  0  0  0  0  0  0  0  0  0  0  0
    3.5691    0.7732    4.3865 H   0  0  0  0  0  0  0  0  0  0  0  0
  2  1  1  1
  1 31  1  0
  1 32  1  0
  1 33  1  0
  2  9  1  0
  2 12  1  0
  2  3  1  0
  3  4  1  0
  3 34  1  0
  3 35  1  0
  4  5  1  0
  4  6  1  0
  4 36  1  1
  5 37  1  0
  6 30  1  0
  6  7  1  6
  6  8  1  0
  7 38  1  0
  7 39  1  0
  7 40  1  0
  8  9  2  0
  8 14  1  0
  9 10  1  0
 10 11  1  0
 10 41  1  0
 10 42  1  0
 11 12  1  0
 11 43  1  0
 11 44  1  0
 12 13  1  0
 12 45  1  1
 13 46  1  0
 14 15  2  0
 14 47  1  0
 15 16  1  0
 15 48  1  0
 16 30  1  0
 16 17  1  0
 16 49  1  1
 17 26  1  0
 17 18  1  0
 17 50  1  6
 18 19  2  0
 18 20  1  0
 20 21  1  0
 20 26  1  0
 20 51  1  6
 21 25  2  0
 21 22  1  0
 22 23  2  0
 22 52  1  0
 23 24  1  0
 23 53  1  0
 24 25  1  0
 25 54  1  0
 26 27  1  1
 26 28  1  0
 27 55  1  0
 27 56  1  0
 27 57  1  0
 28 29  1  0
 28 58  1  0
 28 59  1  0
 29 30  1  0
 29 60  1  0
 29 61  1  0
 30 62  1  1
M  END
>  <i_m_ct_stereo_status>  (267) 
1

>  <s_m_source_file>  (267) 
/var/tmp/pbs.5076255.sched01/tmpvuzdko10/1206lwnzxed.sdf

>  <i_m_source_file_index>  (267) 
5

>  <i_lp_mmshare_version>  (267) 
48012

>  <i_f3d_flags>  (267) 
0

>  <s_epik_input>  (267) 
W09IXVtDQEBIXTFbQ0gyXVtDSDJdQyhbQ0BdMTJbQ0gzXSk9QzNbQ0BAXShbQ0gzXSkoW0NAQEhdKFtDSDJdMilbT0hdKVtDQEhdNFtDQEBIXShbQ0hdPVtDSF0zKVtDQEhdNVtDQEBdKFtDSDNdKShbQ0gyXVtDSDJdNClbQ0BASF0oQzU9TyljNltjSF1bY0hdb1tjSF02

>  <s_epik_cmdline>  (267) 
J2VwaWtfcHl0aG9uJywgJy1waHQnLCAnMi4wJywgJy1waCcsICc3LjAnLCAnLXRuJywgJzgnLCAnLW1hJywgJzIwMCcsICctaW1hZScsICc8aW5maWxlLm1hZT4nLCAnLW9tYWUnLCAnPG91dGZpbGUubWFlPic=

>  <r_lp_tautomer_probability>  (267) 
1

>  <r_epik_Ionization_Penalty>  (267) 
6.17225e-07

>  <r_epik_Ionization_Penalty_Charging>  (267) 
0

>  <r_epik_Ionization_Penalty_Neutral>  (267) 
6.17225e-07

>  <r_epik_State_Penalty>  (267) 
-0

>  <r_epik_Charging_Adjusted_Penalty>  (267) 
0

>  <i_epik_Tot_Q>  (267) 
0

>  <i_epik_Tot_abs_Q>  (267) 
0

>  <s_lp_Force_Field>  (267) 
OPLS3e

>  <r_lp_Energy>  (267) 
38.2676

>  <b_lp_Chiralities_Consistent>  (267) 
1

>  <s_lp_Variant>  (267) 
90:0-1

>  <s_i_glide_gridfile>  (267) 
pfpi4k_grid

>  <i_i_glide_lignum>  (267) 
5

>  <i_i_glide_rotatable_bonds>  (267) 
3

>  <r_i_docking_score>  (267) 
-2.37852

>  <r_i_glide_ligand_efficiency>  (267) 
-0.0792839

>  <r_i_glide_ligand_efficiency_sa>  (267) 
-0.246353

>  <r_i_glide_ligand_efficiency_ln>  (267) 
-0.540425

>  <r_i_glide_gscore>  (267) 
-2.37852

>  <r_i_glide_lipo>  (267) 
-0.390278

>  <r_i_glide_hbond>  (267) 
0

>  <r_i_glide_metal>  (267) 
-0

>  <r_i_glide_rewards>  (267) 
-0.62366

>  <r_i_glide_evdw>  (267) 
-23.5724

>  <r_i_glide_ecoul>  (267) 
-1.93303

>  <r_i_glide_erotb>  (267) 
0.11793

>  <r_i_glide_esite>  (267) 
-0.0139353

>  <r_i_glide_emodel>  (267) 
-28.6478

>  <r_i_glide_energy>  (267) 
-25.5054

>  <r_i_glide_einternal>  (267) 
0.562941

>  <r_i_glide_intrahb_reward>  (267) 
-0

>  <i_i_glide_confnum>  (267) 
3

>  <i_i_glide_posenum>  (267) 
23

>  <r_i_glide_eff_state_penalty>  (267) 
0

>  <ligand_id>  (267) 
90

>  <original_smiles>  (267) 
CC12CC(O)C3(C)C(=C1CCC2O)C=CC1C2C(=O)C(c4ccoc4)C2(C)CCC13

>  <smiles>  (267) 
[H]OC1([H])C([H])([H])C([H])([H])C2=C3C([H])=C([H])C4([H])C5([H])C(=O)C([H])(c6c([H])oc([H])c6[H])C5(C([H])([H])[H])C([H])([H])C([H])([H])C4([H])C3(C([H])([H])[H])C([H])(O[H])C([H])([H])C21C([H])([H])[H]

$$$$
92:0:0
     RDKit          3D

 39 43  0  0  1  0  0  0  0  0999 V2000
    4.1013   -4.2449    3.3107 C   0  0  0  0  0  0  0  0  0  0  0  0
    4.3811   -3.1078    2.3473 C   0  0  0  0  0  0  0  0  0  0  0  0
    4.6616   -1.8635    2.7947 C   0  0  0  0  0  0  0  0  0  0  0  0
    5.0030   -0.6648    1.9312 C   0  0  0  0  0  0  0  0  0  0  0  0
    5.2879   -0.9927    0.4699 C   0  0  1  0  0  0  0  0  0  0  0  0
    6.6901   -1.0656    0.1245 O   0  0  0  0  0  0  0  0  0  0  0  0
    6.5486   -2.4715   -0.1461 C   0  0  2  0  0  0  0  0  0  0  0  0
    6.8912   -2.9544   -1.5470 C   0  0  0  0  0  0  0  0  0  0  0  0
    5.5646   -3.5207   -2.0911 C   0  0  0  0  0  0  0  0  0  0  0  0
    4.4706   -2.6610   -1.4288 C   0  0  1  0  0  0  0  0  0  0  0  0
    4.1925   -1.4132   -2.2952 C   0  0  0  0  0  0  0  0  0  0  0  0
    3.4813   -1.7984   -3.5956 C   0  0  0  0  0  0  0  0  0  0  0  0
    3.8240   -1.3261   -4.6669 O   0  0  0  0  0  0  0  0  0  0  0  0
    2.3245   -2.8147   -3.5029 C   0  0  0  0  0  0  0  0  0  0  0  0
    2.2049   -3.4370   -2.1123 C   0  0  0  0  0  0  0  0  0  0  0  0
    3.1819   -3.4092   -1.1914 C   0  0  0  0  0  0  0  0  0  0  0  0
    3.0641   -3.8541    0.2483 C   0  0  0  0  0  0  0  0  0  0  0  0
    4.4177   -3.4836    0.8677 C   0  0  1  0  0  0  0  0  0  0  0  0
    5.0408   -2.4137   -0.0363 C   0  0  2  0  0  0  0  0  0  0  0  0
    4.8646   -5.0199    3.2198 H   0  0  0  0  0  0  0  0  0  0  0  0
    3.1279   -4.6931    3.1145 H   0  0  0  0  0  0  0  0  0  0  0  0
    4.1154   -3.8943    4.3432 H   0  0  0  0  0  0  0  0  0  0  0  0
    4.6182   -1.6583    3.8556 H   0  0  0  0  0  0  0  0  0  0  0  0
    4.1175   -0.0319    1.9727 H   0  0  0  0  0  0  0  0  0  0  0  0
    5.8112   -0.0945    2.3937 H   0  0  0  0  0  0  0  0  0  0  0  0
    4.8162   -0.2569   -0.1672 H   0  0  0  0  0  0  0  0  0  0  0  0
    6.9832   -3.0731    0.6518 H   0  0  0  0  0  0  0  0  0  0  0  0
    7.2241   -2.1401   -2.1928 H   0  0  0  0  0  0  0  0  0  0  0  0
    7.6794   -3.7046   -1.5457 H   0  0  0  0  0  0  0  0  0  0  0  0
    5.5268   -3.5662   -3.1806 H   0  0  0  0  0  0  0  0  0  0  0  0
    5.4355   -4.5453   -1.7380 H   0  0  0  0  0  0  0  0  0  0  0  0
    3.5298   -0.7239   -1.7776 H   0  0  0  0  0  0  0  0  0  0  0  0
    5.1092   -0.8764   -2.5314 H   0  0  0  0  0  0  0  0  0  0  0  0
    1.4109   -2.2766   -3.7401 H   0  0  0  0  0  0  0  0  0  0  0  0
    2.4437   -3.5929   -4.2586 H   0  0  0  0  0  0  0  0  0  0  0  0
    1.2668   -3.9220   -1.9065 H   0  0  0  0  0  0  0  0  0  0  0  0
    2.2635   -3.2886    0.7241 H   0  0  0  0  0  0  0  0  0  0  0  0
    2.8453   -4.9183    0.3217 H   0  0  0  0  0  0  0  0  0  0  0  0
    5.0415   -4.3800    0.8121 H   0  0  0  0  0  0  0  0  0  0  0  0
  1  2  1  0
  1 20  1  0
  1 21  1  0
  1 22  1  0
  2 18  1  0
  2  3  2  0
  3  4  1  0
  3 23  1  0
  4  5  1  0
  4 24  1  0
  4 25  1  0
  5 19  1  0
  5  6  1  0
  5 26  1  6
  6  7  1  0
  7 19  1  0
  7  8  1  0
  7 27  1  1
  8  9  1  0
  8 28  1  0
  8 29  1  0
 10  9  1  6
  9 30  1  0
  9 31  1  0
 10 16  1  0
 19 10  1  6
 10 11  1  0
 11 12  1  0
 11 32  1  0
 11 33  1  0
 12 13  2  0
 12 14  1  0
 14 15  1  0
 14 34  1  0
 14 35  1  0
 15 16  2  0
 15 36  1  0
 16 17  1  0
 17 18  1  0
 17 37  1  0
 17 38  1  0
 18 19  1  0
 18 39  1  1
M  END
>  <i_m_ct_stereo_status>  (268) 
1

>  <s_m_source_file>  (268) 
/var/tmp/pbs.5076255.sched01/tmpvuzdko10/1206lwnzxed.sdf

>  <i_m_source_file_index>  (268) 
7

>  <i_lp_mmshare_version>  (268) 
48012

>  <i_f3d_flags>  (268) 
0

>  <s_epik_input>  (268) 
W0NIMl0xQyg9TylbQ0gyXVtDSF09QzJbQ0gyXVtDQEBIXTNDKFtDSDNdKT1bQ0hdW0NIMl1bQ0BIXShbQ0BdMzRbQ0BdMTI1KU9bQ0BASF00W0NIMl1bQ0gyXTU=

>  <s_epik_cmdline>  (268) 
J2VwaWtfcHl0aG9uJywgJy1waHQnLCAnMi4wJywgJy1waCcsICc3LjAnLCAnLXRuJywgJzgnLCAnLW1hJywgJzIwMCcsICctaW1hZScsICc8aW5maWxlLm1hZT4nLCAnLW9tYWUnLCAnPG91dGZpbGUubWFlPic=

>  <r_lp_tautomer_probability>  (268) 
1

>  <r_epik_Ionization_Penalty>  (268) 
1.77505e-11

>  <r_epik_Ionization_Penalty_Charging>  (268) 
0

>  <r_epik_Ionization_Penalty_Neutral>  (268) 
1.77505e-11

>  <r_epik_State_Penalty>  (268) 
-0

>  <r_epik_Charging_Adjusted_Penalty>  (268) 
0

>  <i_epik_Tot_Q>  (268) 
0

>  <i_epik_Tot_abs_Q>  (268) 
0

>  <s_lp_Force_Field>  (268) 
OPLS3e

>  <r_lp_Energy>  (268) 
39.2148

>  <b_lp_Chiralities_Consistent>  (268) 
1

>  <s_lp_Variant>  (268) 
92:0-1

>  <s_i_glide_gridfile>  (268) 
pfpi4k_grid

>  <i_i_glide_lignum>  (268) 
7

>  <i_i_glide_rotatable_bonds>  (268) 
0

>  <r_i_docking_score>  (268) 
-5.27664

>  <r_i_glide_ligand_efficiency>  (268) 
-0.277718

>  <r_i_glide_ligand_efficiency_sa>  (268) 
-0.741064

>  <r_i_glide_ligand_efficiency_ln>  (268) 
-1.33774

>  <r_i_glide_gscore>  (268) 
-5.27664

>  <r_i_glide_lipo>  (268) 
-1.00217

>  <r_i_glide_hbond>  (268) 
-0.372404

>  <r_i_glide_metal>  (268) 
-0

>  <r_i_glide_rewards>  (268) 
-1.97524

>  <r_i_glide_evdw>  (268) 
-27.3428

>  <r_i_glide_ecoul>  (268) 
-3.73125

>  <r_i_glide_erotb>  (268) 
0

>  <r_i_glide_esite>  (268) 
0

>  <r_i_glide_emodel>  (268) 
-41.1496

>  <r_i_glide_energy>  (268) 
-31.0741

>  <r_i_glide_einternal>  (268) 
0

>  <r_i_glide_intrahb_reward>  (268) 
-0

>  <i_i_glide_confnum>  (268) 
1

>  <i_i_glide_posenum>  (268) 
13

>  <r_i_glide_eff_state_penalty>  (268) 
0

>  <ligand_id>  (268) 
92

>  <original_smiles>  (268) 
CC1=CCC2OC3CCC45CC(=O)CC=C4CC1C235

>  <smiles>  (268) 
[H]C1=C2C([H])([H])C3([H])C(C([H])([H])[H])=C([H])C([H])([H])C4([H])OC5([H])C([H])([H])C([H])([H])C2(C([H])([H])C(=O)C1([H])[H])C453

$$$$
92:0:1
     RDKit          3D

 39 43  0  0  1  0  0  0  0  0999 V2000
    2.6315   -2.4941   -3.4703 C   0  0  0  0  0  0  0  0  0  0  0  0
    3.7912   -2.7006   -2.5188 C   0  0  0  0  0  0  0  0  0  0  0  0
    5.0319   -2.9053   -2.9864 C   0  0  0  0  0  0  0  0  0  0  0  0
    6.2771   -3.0734   -2.1492 C   0  0  0  0  0  0  0  0  0  0  0  0
    6.1189   -2.7661   -0.6690 C   0  0  1  0  0  0  0  0  0  0  0  0
    6.6015   -1.4522   -0.3037 O   0  0  0  0  0  0  0  0  0  0  0  0
    5.2529   -1.0510    0.0217 C   0  0  2  0  0  0  0  0  0  0  0  0
    4.9620   -0.6114    1.4495 C   0  0  0  0  0  0  0  0  0  0  0  0
    3.9114   -1.6199    1.9569 C   0  0  0  0  0  0  0  0  0  0  0  0
    4.2720   -2.9436    1.2471 C   0  0  1  0  0  0  0  0  0  0  0  0
    5.3201   -3.7234    2.0794 C   0  0  0  0  0  0  0  0  0  0  0  0
    4.7009   -4.2943    3.3580 C   0  0  0  0  0  0  0  0  0  0  0  0
    5.2851   -4.2243    4.4295 O   0  0  0  0  0  0  0  0  0  0  0  0
    3.3181   -4.9657    3.2426 C   0  0  0  0  0  0  0  0  0  0  0  0
    2.6809   -4.7673    1.8666 C   0  0  0  0  0  0  0  0  0  0  0  0
    3.0776   -3.8334    0.9847 C   0  0  0  0  0  0  0  0  0  0  0  0
    2.6251   -3.7087   -0.4538 C   0  0  0  0  0  0  0  0  0  0  0  0
    3.4857   -2.5823   -1.0323 C   0  0  1  0  0  0  0  0  0  0  0  0
    4.7211   -2.4590   -0.1340 C   0  0  2  0  0  0  0  0  0  0  0  0
    2.2249   -1.4910   -3.3372 H   0  0  0  0  0  0  0  0  0  0  0  0
    1.8355   -3.2195   -3.2981 H   0  0  0  0  0  0  0  0  0  0  0  0
    2.9581   -2.5772   -4.5093 H   0  0  0  0  0  0  0  0  0  0  0  0
    5.1699   -3.0346   -4.0447 H   0  0  0  0  0  0  0  0  0  0  0  0
    6.4454   -4.1328   -2.2500 H   0  0  0  0  0  0  0  0  0  0  0  0
    7.1369   -2.5735   -2.5971 H   0  0  0  0  0  0  0  0  0  0  0  0
    6.6333   -3.5143   -0.0727 H   0  0  0  0  0  0  0  0  0  0  0  0
    4.8503   -0.3794   -0.7385 H   0  0  0  0  0  0  0  0  0  0  0  0
    5.8606   -0.6555    2.0730 H   0  0  0  0  0  0  0  0  0  0  0  0
    4.5643    0.4012    1.4881 H   0  0  0  0  0  0  0  0  0  0  0  0
    3.8670   -1.6844    3.0446 H   0  0  0  0  0  0  0  0  0  0  0  0
    2.9232   -1.3000    1.6198 H   0  0  0  0  0  0  0  0  0  0  0  0
    5.6972   -4.5734    1.5157 H   0  0  0  0  0  0  0  0  0  0  0  0
    6.1732   -3.0932    2.3270 H   0  0  0  0  0  0  0  0  0  0  0  0
    3.4536   -6.0314    3.4274 H   0  0  0  0  0  0  0  0  0  0  0  0
    2.6608   -4.5799    4.0227 H   0  0  0  0  0  0  0  0  0  0  0  0
    1.8750   -5.4407    1.6217 H   0  0  0  0  0  0  0  0  0  0  0  0
    2.8279   -4.6488   -0.9612 H   0  0  0  0  0  0  0  0  0  0  0  0
    1.5673   -3.4865   -0.5517 H   0  0  0  0  0  0  0  0  0  0  0  0
    2.9208   -1.6560   -0.9357 H   0  0  0  0  0  0  0  0  0  0  0  0
  1  2  1  0
  1 20  1  0
  1 21  1  0
  1 22  1  0
  2 18  1  0
  2  3  2  0
  3  4  1  0
  3 23  1  0
  4  5  1  0
  4 24  1  0
  4 25  1  0
  5 19  1  0
  5  6  1  0
  5 26  1  1
  6  7  1  0
  7 19  1  0
  7  8  1  0
  7 27  1  6
  8  9  1  0
  8 28  1  0
  8 29  1  0
 10  9  1  1
  9 30  1  0
  9 31  1  0
 10 16  1  0
 19 10  1  1
 10 11  1  0
 11 12  1  0
 11 32  1  0
 11 33  1  0
 12 13  2  0
 12 14  1  0
 14 15  1  0
 14 34  1  0
 14 35  1  0
 15 16  2  0
 15 36  1  0
 16 17  1  0
 17 18  1  0
 17 37  1  0
 17 38  1  0
 18 19  1  0
 18 39  1  6
M  END
>  <i_m_ct_stereo_status>  (269) 
1

>  <s_m_source_file>  (269) 
/var/tmp/pbs.5076255.sched01/tmpvuzdko10/1206lwnzxed.sdf

>  <i_m_source_file_index>  (269) 
7

>  <i_lp_mmshare_version>  (269) 
48012

>  <i_f3d_flags>  (269) 
0

>  <s_epik_input>  (269) 
W0NIMl0xQyg9TylbQ0gyXVtDSF09QzJbQ0gyXVtDQEBIXTNDKFtDSDNdKT1bQ0hdW0NIMl1bQ0BIXShbQ0BdMzRbQ0BdMTI1KU9bQ0BASF00W0NIMl1bQ0gyXTU=

>  <s_epik_cmdline>  (269) 
J2VwaWtfcHl0aG9uJywgJy1waHQnLCAnMi4wJywgJy1waCcsICc3LjAnLCAnLXRuJywgJzgnLCAnLW1hJywgJzIwMCcsICctaW1hZScsICc8aW5maWxlLm1hZT4nLCAnLW9tYWUnLCAnPG91dGZpbGUubWFlPic=

>  <r_lp_tautomer_probability>  (269) 
1

>  <r_epik_Ionization_Penalty>  (269) 
1.77505e-11

>  <r_epik_Ionization_Penalty_Charging>  (269) 
0

>  <r_epik_Ionization_Penalty_Neutral>  (269) 
1.77505e-11

>  <r_epik_State_Penalty>  (269) 
-0

>  <r_epik_Charging_Adjusted_Penalty>  (269) 
0

>  <i_epik_Tot_Q>  (269) 
0

>  <i_epik_Tot_abs_Q>  (269) 
0

>  <s_lp_Force_Field>  (269) 
OPLS3e

>  <r_lp_Energy>  (269) 
39.2148

>  <b_lp_Chiralities_Consistent>  (269) 
1

>  <s_lp_Variant>  (269) 
92:0-1

>  <s_i_glide_gridfile>  (269) 
pfpi4k_grid

>  <i_i_glide_lignum>  (269) 
7

>  <i_i_glide_rotatable_bonds>  (269) 
0

>  <r_i_docking_score>  (269) 
-3.83079

>  <r_i_glide_ligand_efficiency>  (269) 
-0.201621

>  <r_i_glide_ligand_efficiency_sa>  (269) 
-0.538005

>  <r_i_glide_ligand_efficiency_ln>  (269) 
-0.971188

>  <r_i_glide_gscore>  (269) 
-3.83079

>  <r_i_glide_lipo>  (269) 
-0.703509

>  <r_i_glide_hbond>  (269) 
-0.11319

>  <r_i_glide_metal>  (269) 
-0

>  <r_i_glide_rewards>  (269) 
-1.67323

>  <r_i_glide_evdw>  (269) 
-20.8092

>  <r_i_glide_ecoul>  (269) 
-2.00265

>  <r_i_glide_erotb>  (269) 
0

>  <r_i_glide_esite>  (269) 
0

>  <r_i_glide_emodel>  (269) 
-29.9814

>  <r_i_glide_energy>  (269) 
-22.8119

>  <r_i_glide_einternal>  (269) 
0

>  <r_i_glide_intrahb_reward>  (269) 
-0

>  <i_i_glide_confnum>  (269) 
1

>  <i_i_glide_posenum>  (269) 
2

>  <r_i_glide_eff_state_penalty>  (269) 
0

>  <ligand_id>  (269) 
92

>  <original_smiles>  (269) 
CC1=CCC2OC3CCC45CC(=O)CC=C4CC1C235

>  <smiles>  (269) 
[H]C1=C2C([H])([H])C3([H])C(C([H])([H])[H])=C([H])C([H])([H])C4([H])OC5([H])C([H])([H])C([H])([H])C2(C([H])([H])C(=O)C1([H])[H])C453

$$$$
92:0:2
     RDKit          3D

 39 43  0  0  1  0  0  0  0  0999 V2000
    3.3934   -3.0392   -3.4980 C   0  0  0  0  0  0  0  0  0  0  0  0
    4.3545   -2.9245   -2.3263 C   0  0  0  0  0  0  0  0  0  0  0  0
    5.6863   -2.9704   -2.5103 C   0  0  0  0  0  0  0  0  0  0  0  0
    6.7429   -2.8161   -1.4291 C   0  0  0  0  0  0  0  0  0  0  0  0
    6.2055   -2.3160   -0.0889 C   0  0  1  0  0  0  0  0  0  0  0  0
    6.3767   -0.8927    0.1138 O   0  0  0  0  0  0  0  0  0  0  0  0
    4.9439   -0.7134    0.1313 C   0  0  2  0  0  0  0  0  0  0  0  0
    4.2912   -0.1554    1.3911 C   0  0  0  0  0  0  0  0  0  0  0  0
    3.3323   -1.2681    1.8567 C   0  0  0  0  0  0  0  0  0  0  0  0
    4.0467   -2.5780    1.4534 C   0  0  1  0  0  0  0  0  0  0  0  0
    5.0085   -3.0236    2.5849 C   0  0  0  0  0  0  0  0  0  0  0  0
    4.2371   -3.5305    3.8058 C   0  0  0  0  0  0  0  0  0  0  0  0
    4.5640   -3.2103    4.9408 O   0  0  0  0  0  0  0  0  0  0  0  0
    3.0375   -4.4637    3.5528 C   0  0  0  0  0  0  0  0  0  0  0  0
    2.6766   -4.5735    2.0698 C   0  0  0  0  0  0  0  0  0  0  0  0
    3.0963   -3.7047    1.1312 C   0  0  0  0  0  0  0  0  0  0  0  0
    2.9357   -3.8560   -0.3657 C   0  0  0  0  0  0  0  0  0  0  0  0
    3.7130   -2.6737   -0.9624 C   0  0  1  0  0  0  0  0  0  0  0  0
    4.6938   -2.2039    0.1171 C   0  0  2  0  0  0  0  0  0  0  0  0
    2.8091   -2.1256   -3.6121 H   0  0  0  0  0  0  0  0  0  0  0  0
    2.6946   -3.8564   -3.3487 H   0  0  0  0  0  0  0  0  0  0  0  0
    3.9314   -3.2133   -4.4293 H   0  0  0  0  0  0  0  0  0  0  0  0
    6.0825   -3.1518   -3.5023 H   0  0  0  0  0  0  0  0  0  0  0  0
    7.1594   -3.8120   -1.2860 H   0  0  0  0  0  0  0  0  0  0  0  0
    7.5687   -2.2066   -1.8013 H   0  0  0  0  0  0  0  0  0  0  0  0
    6.6971   -2.8439    0.7222 H   0  0  0  0  0  0  0  0  0  0  0  0
    4.5985   -0.2436   -0.7921 H   0  0  0  0  0  0  0  0  0  0  0  0
    5.0308    0.0497    2.1686 H   0  0  0  0  0  0  0  0  0  0  0  0
    3.7435    0.7671    1.1959 H   0  0  0  0  0  0  0  0  0  0  0  0
    3.0733   -1.1956    2.9139 H   0  0  0  0  0  0  0  0  0  0  0  0
    2.3971   -1.1850    1.2973 H   0  0  0  0  0  0  0  0  0  0  0  0
    5.6273   -3.8529    2.2520 H   0  0  0  0  0  0  0  0  0  0  0  0
    5.6780   -2.2162    2.8789 H   0  0  0  0  0  0  0  0  0  0  0  0
    3.3018   -5.4518    3.9325 H   0  0  0  0  0  0  0  0  0  0  0  0
    2.1765   -4.1154    4.1237 H   0  0  0  0  0  0  0  0  0  0  0  0
    2.0614   -5.4151    1.7937 H   0  0  0  0  0  0  0  0  0  0  0  0
    3.3922   -4.7954   -0.6728 H   0  0  0  0  0  0  0  0  0  0  0  0
    1.8891   -3.8555   -0.6683 H   0  0  0  0  0  0  0  0  0  0  0  0
    2.9910   -1.8725   -1.1255 H   0  0  0  0  0  0  0  0  0  0  0  0
  1  2  1  0
  1 20  1  0
  1 21  1  0
  1 22  1  0
  2 18  1  0
  2  3  2  0
  3  4  1  0
  3 23  1  0
  4  5  1  0
  4 24  1  0
  4 25  1  0
  5 19  1  0
  5  6  1  0
  5 26  1  1
  6  7  1  0
  7 19  1  0
  7  8  1  0
  7 27  1  6
  8  9  1  0
  8 28  1  0
  8 29  1  0
 10  9  1  1
  9 30  1  0
  9 31  1  0
 10 16  1  0
 19 10  1  1
 10 11  1  0
 11 12  1  0
 11 32  1  0
 11 33  1  0
 12 13  2  0
 12 14  1  0
 14 15  1  0
 14 34  1  0
 14 35  1  0
 15 16  2  0
 15 36  1  0
 16 17  1  0
 17 18  1  0
 17 37  1  0
 17 38  1  0
 18 19  1  0
 18 39  1  6
M  END
>  <i_m_ct_stereo_status>  (270) 
1

>  <s_m_source_file>  (270) 
/var/tmp/pbs.5076255.sched01/tmpvuzdko10/1206lwnzxed.sdf

>  <i_m_source_file_index>  (270) 
7

>  <i_lp_mmshare_version>  (270) 
48012

>  <i_f3d_flags>  (270) 
0

>  <s_epik_input>  (270) 
W0NIMl0xQyg9TylbQ0gyXVtDSF09QzJbQ0gyXVtDQEBIXTNDKFtDSDNdKT1bQ0hdW0NIMl1bQ0BIXShbQ0BdMzRbQ0BdMTI1KU9bQ0BASF00W0NIMl1bQ0gyXTU=

>  <s_epik_cmdline>  (270) 
J2VwaWtfcHl0aG9uJywgJy1waHQnLCAnMi4wJywgJy1waCcsICc3LjAnLCAnLXRuJywgJzgnLCAnLW1hJywgJzIwMCcsICctaW1hZScsICc8aW5maWxlLm1hZT4nLCAnLW9tYWUnLCAnPG91dGZpbGUubWFlPic=

>  <r_lp_tautomer_probability>  (270) 
1

>  <r_epik_Ionization_Penalty>  (270) 
1.77505e-11

>  <r_epik_Ionization_Penalty_Charging>  (270) 
0

>  <r_epik_Ionization_Penalty_Neutral>  (270) 
1.77505e-11

>  <r_epik_State_Penalty>  (270) 
-0

>  <r_epik_Charging_Adjusted_Penalty>  (270) 
0

>  <i_epik_Tot_Q>  (270) 
0

>  <i_epik_Tot_abs_Q>  (270) 
0

>  <s_lp_Force_Field>  (270) 
OPLS3e

>  <r_lp_Energy>  (270) 
39.2148

>  <b_lp_Chiralities_Consistent>  (270) 
1

>  <s_lp_Variant>  (270) 
92:0-1

>  <s_i_glide_gridfile>  (270) 
pfpi4k_grid

>  <i_i_glide_lignum>  (270) 
7

>  <i_i_glide_rotatable_bonds>  (270) 
0

>  <r_i_docking_score>  (270) 
-3.58556

>  <r_i_glide_ligand_efficiency>  (270) 
-0.188714

>  <r_i_glide_ligand_efficiency_sa>  (270) 
-0.503564

>  <r_i_glide_ligand_efficiency_ln>  (270) 
-0.909016

>  <r_i_glide_gscore>  (270) 
-3.58556

>  <r_i_glide_lipo>  (270) 
-0.569417

>  <r_i_glide_hbond>  (270) 
-0.0232505

>  <r_i_glide_metal>  (270) 
-0

>  <r_i_glide_rewards>  (270) 
-1.66768

>  <r_i_glide_evdw>  (270) 
-24.0895

>  <r_i_glide_ecoul>  (270) 
-0.804917

>  <r_i_glide_erotb>  (270) 
0

>  <r_i_glide_esite>  (270) 
0

>  <r_i_glide_emodel>  (270) 
-31.6602

>  <r_i_glide_energy>  (270) 
-24.8944

>  <r_i_glide_einternal>  (270) 
0

>  <r_i_glide_intrahb_reward>  (270) 
-0

>  <i_i_glide_confnum>  (270) 
2

>  <i_i_glide_posenum>  (270) 
20

>  <r_i_glide_eff_state_penalty>  (270) 
0

>  <ligand_id>  (270) 
92

>  <original_smiles>  (270) 
CC1=CCC2OC3CCC45CC(=O)CC=C4CC1C235

>  <smiles>  (270) 
[H]C1=C2C([H])([H])C3([H])C(C([H])([H])[H])=C([H])C([H])([H])C4([H])OC5([H])C([H])([H])C([H])([H])C2(C([H])([H])C(=O)C1([H])[H])C453

$$$$
93:0:0
     RDKit          3D

 66 71  0  0  1  0  0  0  0  0999 V2000
    6.9319   -3.1090   -2.1665 C   0  0  0  0  0  0  0  0  0  0  0  0
    5.5184   -3.0412   -1.5412 C   0  0  2  0  0  0  0  0  0  0  0  0
    4.5738   -2.2513   -2.4449 C   0  0  0  0  0  0  0  0  0  0  0  0
    4.6842   -0.8543   -2.6168 C   0  0  0  0  0  0  0  0  0  0  0  0
    3.8208   -0.1586   -3.4834 C   0  0  0  0  0  0  0  0  0  0  0  0
    2.8018   -0.8505   -4.1490 C   0  0  0  0  0  0  0  0  0  0  0  0
    2.6338   -2.2272   -3.9173 C   0  0  0  0  0  0  0  0  0  0  0  0
    3.5396   -2.9295   -3.1117 C   0  0  0  0  0  0  0  0  0  0  0  0
    5.4367   -2.5299   -0.0679 C   0  0  2  0  0  0  0  0  0  0  0  0
    6.7243   -2.7844    0.7081 C   0  0  0  0  0  0  0  0  0  0  0  0
    7.7468   -2.1356    0.4961 O   0  0  0  0  0  0  0  0  0  0  0  0
    6.5479   -3.8961    1.6283 C   0  0  0  0  0  0  0  0  0  0  0  0
    5.2347   -4.1364    1.7342 C   0  0  0  0  0  0  0  0  0  0  0  0
    4.6137   -5.3256    2.4546 C   0  0  1  0  0  0  0  0  0  0  0  0
    3.8272   -4.9426    3.7182 C   0  0  0  0  0  0  0  0  0  0  0  0
    2.4035   -5.4865    3.5320 C   0  0  0  0  0  0  0  0  0  0  0  0
    2.5431   -6.6539    2.5501 C   0  0  2  0  0  0  0  0  0  0  0  0
    2.9479   -7.9580    3.2867 C   0  0  1  0  0  0  0  0  0  0  0  0
    1.9398   -8.5985    4.2554 C   0  0  0  0  0  0  0  0  0  0  0  0
    2.4502  -10.0278    4.3191 C   0  0  0  0  0  0  0  0  0  0  0  0
    1.9418  -10.9021    5.0039 O   0  0  0  0  0  0  0  0  0  0  0  0
    3.6343  -10.2253    3.3721 C   0  0  1  0  0  0  0  0  0  0  0  0
    3.6726  -11.5531    2.8785 O   0  0  0  0  0  0  0  0  0  0  0  0
    3.4040   -9.0919    2.3481 C   0  0  1  0  0  0  0  0  0  0  0  0
    2.3035   -9.4925    1.3222 C   0  0  0  0  0  0  0  0  0  0  0  0
    4.6804   -8.5877    1.6487 C   0  0  0  0  0  0  0  0  0  0  0  0
    4.4078   -7.3033    0.8334 C   0  0  0  0  0  0  0  0  0  0  0  0
    3.6490   -6.1564    1.5622 C   0  0  2  0  0  0  0  0  0  0  0  0
    2.9857   -5.2971    0.4829 C   0  0  0  0  0  0  0  0  0  0  0  0
    3.2878   -4.0178    0.1909 C   0  0  0  0  0  0  0  0  0  0  0  0
    4.3863   -3.2149    0.8731 C   0  0  2  0  0  0  0  0  0  0  0  0
    3.7209   -2.1296    1.7354 C   0  0  0  0  0  0  0  0  0  0  0  0
    6.8579   -3.4696   -3.1867 H   0  0  0  0  0  0  0  0  0  0  0  0
    7.5730   -3.8252   -1.6521 H   0  0  0  0  0  0  0  0  0  0  0  0
    7.4590   -2.1549   -2.1804 H   0  0  0  0  0  0  0  0  0  0  0  0
    5.2085   -4.0864   -1.5518 H   0  0  0  0  0  0  0  0  0  0  0  0
    5.4573   -0.3046   -2.1074 H   0  0  0  0  0  0  0  0  0  0  0  0
    3.9178    0.9123   -3.6149 H   0  0  0  0  0  0  0  0  0  0  0  0
    2.1144   -0.3127   -4.7831 H   0  0  0  0  0  0  0  0  0  0  0  0
    1.8129   -2.7611   -4.3576 H   0  0  0  0  0  0  0  0  0  0  0  0
    3.4088   -3.9870   -2.9764 H   0  0  0  0  0  0  0  0  0  0  0  0
    5.3227   -1.4454   -0.0781 H   0  0  0  0  0  0  0  0  0  0  0  0
    7.3556   -4.4602    2.0719 H   0  0  0  0  0  0  0  0  0  0  0  0
    5.4394   -5.9617    2.7756 H   0  0  0  0  0  0  0  0  0  0  0  0
    4.2945   -5.4193    4.5829 H   0  0  0  0  0  0  0  0  0  0  0  0
    3.8326   -3.8723    3.9253 H   0  0  0  0  0  0  0  0  0  0  0  0
    1.9439   -5.7711    4.4797 H   0  0  0  0  0  0  0  0  0  0  0  0
    1.7789   -4.7160    3.0857 H   0  0  0  0  0  0  0  0  0  0  0  0
    1.5947   -6.8283    2.0417 H   0  0  0  0  0  0  0  0  0  0  0  0
    3.8113   -7.7015    3.9075 H   0  0  0  0  0  0  0  0  0  0  0  0
    1.9469   -8.1462    5.2476 H   0  0  0  0  0  0  0  0  0  0  0  0
    0.9193   -8.5998    3.8701 H   0  0  0  0  0  0  0  0  0  0  0  0
    4.5448  -10.0485    3.9432 H   0  0  0  0  0  0  0  0  0  0  0  0
    3.9533  -11.5853    1.9601 H   0  0  0  0  0  0  0  0  0  0  0  0
    2.6849  -10.2196    0.6086 H   0  0  0  0  0  0  0  0  0  0  0  0
    1.9367   -8.6344    0.7680 H   0  0  0  0  0  0  0  0  0  0  0  0
    1.4159   -9.9250    1.7848 H   0  0  0  0  0  0  0  0  0  0  0  0
    5.4491   -8.3843    2.3936 H   0  0  0  0  0  0  0  0  0  0  0  0
    5.0822   -9.3719    1.0001 H   0  0  0  0  0  0  0  0  0  0  0  0
    5.3428   -6.9265    0.4221 H   0  0  0  0  0  0  0  0  0  0  0  0
    3.8217   -7.5976   -0.0239 H   0  0  0  0  0  0  0  0  0  0  0  0
    2.1887   -5.7714   -0.0617 H   0  0  0  0  0  0  0  0  0  0  0  0
    2.7343   -3.4972   -0.5787 H   0  0  0  0  0  0  0  0  0  0  0  0
    2.9422   -2.5633    2.3698 H   0  0  0  0  0  0  0  0  0  0  0  0
    3.2458   -1.3703    1.1114 H   0  0  0  0  0  0  0  0  0  0  0  0
    4.4510   -1.6368    2.3826 H   0  0  0  0  0  0  0  0  0  0  0  0
  1  2  1  0
  1 33  1  0
  1 34  1  0
  1 35  1  0
  2  3  1  0
  2  9  1  0
  2 36  1  1
  3  8  1  0
  3  4  2  0
  4  5  1  0
  4 37  1  0
  5  6  2  0
  5 38  1  0
  6  7  1  0
  6 39  1  0
  7  8  2  0
  7 40  1  0
  8 41  1  0
  9 31  1  0
  9 10  1  0
  9 42  1  6
 10 11  2  0
 10 12  1  0
 12 13  2  0
 12 43  1  0
 13 31  1  0
 13 14  1  0
 14 28  1  0
 14 15  1  0
 14 44  1  1
 15 16  1  0
 15 45  1  0
 15 46  1  0
 16 17  1  0
 16 47  1  0
 16 48  1  0
 17 28  1  0
 17 18  1  0
 17 49  1  6
 18 24  1  0
 18 19  1  0
 18 50  1  1
 19 20  1  0
 19 51  1  0
 19 52  1  0
 20 21  2  0
 20 22  1  0
 22 23  1  0
 22 24  1  0
 22 53  1  1
 23 54  1  0
 24 25  1  6
 24 26  1  0
 25 55  1  0
 25 56  1  0
 25 57  1  0
 26 27  1  0
 26 58  1  0
 26 59  1  0
 28 27  1  6
 27 60  1  0
 27 61  1  0
 28 29  1  0
 29 30  2  0
 29 62  1  0
 30 31  1  0
 30 63  1  0
 31 32  1  1
 32 64  1  0
 32 65  1  0
 32 66  1  0
M  END
>  <i_m_ct_stereo_status>  (271) 
1

>  <s_m_source_file>  (271) 
/var/tmp/pbs.5076255.sched01/tmpvuzdko10/1206lwnzxed.sdf

>  <i_m_source_file_index>  (271) 
8

>  <i_lp_mmshare_version>  (271) 
48012

>  <i_f3d_flags>  (271) 
0

>  <s_epik_input>  (271) 
W2NIXTFbY0hdW2NIXVtjSF1bY0hdYzFbQ0BASF0oW0NIM10pW0NASF0oQyg9TylbQ0hdPTIpW0NAQF0oW0NIM10pKFtDSF09W0NIXTMpQzJbQ0BIXShbQ0BdMzQ1KVtDSDJdW0NIMl1bQ0BASF00W0NAQEhdNltDQEBdKFtDSDNdKShbQ0gyXVtDSDJdNSlbQ0BIXShbT0hdKUMoPU8pW0NIMl02

>  <s_epik_cmdline>  (271) 
J2VwaWtfcHl0aG9uJywgJy1waHQnLCAnMi4wJywgJy1waCcsICc3LjAnLCAnLXRuJywgJzgnLCAnLW1hJywgJzIwMCcsICctaW1hZScsICc8aW5maWxlLm1hZT4nLCAnLW9tYWUnLCAnPG91dGZpbGUubWFlPic=

>  <r_lp_tautomer_probability>  (271) 
1

>  <r_epik_Ionization_Penalty>  (271) 
4.25892e-08

>  <r_epik_Ionization_Penalty_Charging>  (271) 
0

>  <r_epik_Ionization_Penalty_Neutral>  (271) 
4.25892e-08

>  <r_epik_State_Penalty>  (271) 
-0

>  <r_epik_Charging_Adjusted_Penalty>  (271) 
0

>  <i_epik_Tot_Q>  (271) 
0

>  <i_epik_Tot_abs_Q>  (271) 
0

>  <s_lp_Force_Field>  (271) 
OPLS3e

>  <r_lp_Energy>  (271) 
48.8593

>  <b_lp_Chiralities_Consistent>  (271) 
1

>  <s_lp_Variant>  (271) 
93:0-1

>  <s_i_glide_gridfile>  (271) 
pfpi4k_grid

>  <i_i_glide_lignum>  (271) 
8

>  <i_i_glide_rotatable_bonds>  (271) 
3

>  <r_i_docking_score>  (271) 
-3.18896

>  <r_i_glide_ligand_efficiency>  (271) 
-0.099655

>  <r_i_glide_ligand_efficiency_sa>  (271) 
-0.316385

>  <r_i_glide_ligand_efficiency_ln>  (271) 
-0.714095

>  <r_i_glide_gscore>  (271) 
-3.18896

>  <r_i_glide_lipo>  (271) 
-0.94912

>  <r_i_glide_hbond>  (271) 
0

>  <r_i_glide_metal>  (271) 
-0

>  <r_i_glide_rewards>  (271) 
-0.593012

>  <r_i_glide_evdw>  (271) 
-25.988

>  <r_i_glide_ecoul>  (271) 
-3.64964

>  <r_i_glide_erotb>  (271) 
0.214484

>  <r_i_glide_esite>  (271) 
-0.0144664

>  <r_i_glide_emodel>  (271) 
-31.847

>  <r_i_glide_energy>  (271) 
-29.6376

>  <r_i_glide_einternal>  (271) 
5.76576

>  <r_i_glide_intrahb_reward>  (271) 
-0

>  <i_i_glide_confnum>  (271) 
6

>  <i_i_glide_posenum>  (271) 
3

>  <r_i_glide_eff_state_penalty>  (271) 
0

>  <ligand_id>  (271) 
93

>  <original_smiles>  (271) 
CC(c1ccccc1)C1C(=O)C=C2C3CCC4C5CC(=O)C(O)C5(C)CCC34C=CC21C

>  <smiles>  (271) 
[H]OC1([H])C(=O)C([H])([H])C2([H])C3([H])C([H])([H])C([H])([H])C4([H])C5=C([H])C(=O)C([H])(C([H])(c6c([H])c([H])c([H])c([H])c6[H])C([H])([H])[H])C5(C([H])([H])[H])C([H])=C([H])C43C([H])([H])C([H])([H])C12C([H])([H])[H]

$$$$
93:0:1
     RDKit          3D

 66 71  0  0  1  0  0  0  0  0999 V2000
    1.7365   -4.5990    7.6847 C   0  0  0  0  0  0  0  0  0  0  0  0
    2.1823   -5.5893    6.5833 C   0  0  2  0  0  0  0  0  0  0  0  0
    1.4991   -6.9493    6.8026 C   0  0  0  0  0  0  0  0  0  0  0  0
    1.5620   -7.6231    8.0468 C   0  0  0  0  0  0  0  0  0  0  0  0
    0.9452   -8.8835    8.2045 C   0  0  0  0  0  0  0  0  0  0  0  0
    0.2881   -9.4856    7.1163 C   0  0  0  0  0  0  0  0  0  0  0  0
    0.2261   -8.8278    5.8795 C   0  0  0  0  0  0  0  0  0  0  0  0
    0.7778   -7.5431    5.7463 C   0  0  0  0  0  0  0  0  0  0  0  0
    3.7422   -5.7365    6.3721 C   0  0  2  0  0  0  0  0  0  0  0  0
    4.5375   -4.4691    6.7121 C   0  0  0  0  0  0  0  0  0  0  0  0
    4.7347   -4.0939    7.8615 O   0  0  0  0  0  0  0  0  0  0  0  0
    5.0000   -3.8147    5.4931 C   0  0  0  0  0  0  0  0  0  0  0  0
    4.8426   -4.6639    4.4786 C   0  0  0  0  0  0  0  0  0  0  0  0
    4.9876   -4.3127    3.0104 C   0  0  1  0  0  0  0  0  0  0  0  0
    6.2066   -4.9799    2.3502 C   0  0  0  0  0  0  0  0  0  0  0  0
    5.6776   -5.7849    1.1561 C   0  0  0  0  0  0  0  0  0  0  0  0
    4.3579   -5.1054    0.7644 C   0  0  2  0  0  0  0  0  0  0  0  0
    4.6110   -3.8932   -0.1627 C   0  0  1  0  0  0  0  0  0  0  0  0
    5.1664   -4.1451   -1.5702 C   0  0  0  0  0  0  0  0  0  0  0  0
    4.7688   -2.8768   -2.3018 C   0  0  0  0  0  0  0  0  0  0  0  0
    5.0118   -2.6419   -3.4741 O   0  0  0  0  0  0  0  0  0  0  0  0
    3.9600   -1.9776   -1.3643 C   0  0  1  0  0  0  0  0  0  0  0  0
    3.0160   -1.2422   -2.1008 O   0  0  0  0  0  0  0  0  0  0  0  0
    3.3840   -2.9871   -0.3545 C   0  0  1  0  0  0  0  0  0  0  0  0
    2.1572   -3.7441   -0.9513 C   0  0  0  0  0  0  0  0  0  0  0  0
    3.0518   -2.4011    1.0327 C   0  0  0  0  0  0  0  0  0  0  0  0
    2.7243   -3.5194    2.0528 C   0  0  0  0  0  0  0  0  0  0  0  0
    3.7472   -4.6851    2.1429 C   0  0  2  0  0  0  0  0  0  0  0  0
    3.0129   -5.8949    2.7054 C   0  0  0  0  0  0  0  0  0  0  0  0
    3.2762   -6.4962    3.8795 C   0  0  0  0  0  0  0  0  0  0  0  0
    4.2704   -6.0145    4.9157 C   0  0  2  0  0  0  0  0  0  0  0  0
    5.3907   -7.0636    4.9678 C   0  0  0  0  0  0  0  0  0  0  0  0
    0.6511   -4.5789    7.7975 H   0  0  0  0  0  0  0  0  0  0  0  0
    2.0265   -3.5793    7.4414 H   0  0  0  0  0  0  0  0  0  0  0  0
    2.1619   -4.8402    8.6589 H   0  0  0  0  0  0  0  0  0  0  0  0
    1.7810   -5.1596    5.6660 H   0  0  0  0  0  0  0  0  0  0  0  0
    2.0875   -7.1871    8.8886 H   0  0  0  0  0  0  0  0  0  0  0  0
    0.9883   -9.4100    9.1517 H   0  0  0  0  0  0  0  0  0  0  0  0
   -0.1560  -10.4730    7.2084 H   0  0  0  0  0  0  0  0  0  0  0  0
   -0.2389   -9.3107    5.0296 H   0  0  0  0  0  0  0  0  0  0  0  0
    0.6732   -7.0390    4.8017 H   0  0  0  0  0  0  0  0  0  0  0  0
    4.1007   -6.5036    7.0681 H   0  0  0  0  0  0  0  0  0  0  0  0
    5.3193   -2.7763    5.4469 H   0  0  0  0  0  0  0  0  0  0  0  0
    5.1482   -3.2281    2.9580 H   0  0  0  0  0  0  0  0  0  0  0  0
    6.8876   -4.2038    2.0008 H   0  0  0  0  0  0  0  0  0  0  0  0
    6.7848   -5.6018    3.0366 H   0  0  0  0  0  0  0  0  0  0  0  0
    6.4010   -5.8348    0.3396 H   0  0  0  0  0  0  0  0  0  0  0  0
    5.4765   -6.8092    1.4681 H   0  0  0  0  0  0  0  0  0  0  0  0
    3.7248   -5.8183    0.2313 H   0  0  0  0  0  0  0  0  0  0  0  0
    5.3708   -3.2879    0.3390 H   0  0  0  0  0  0  0  0  0  0  0  0
    6.2444   -4.2643   -1.5782 H   0  0  0  0  0  0  0  0  0  0  0  0
    4.7104   -5.0033   -2.0593 H   0  0  0  0  0  0  0  0  0  0  0  0
    4.6367   -1.2796   -0.8797 H   0  0  0  0  0  0  0  0  0  0  0  0
    2.2692   -1.0498   -1.5321 H   0  0  0  0  0  0  0  0  0  0  0  0
    1.3039   -3.0756   -1.0436 H   0  0  0  0  0  0  0  0  0  0  0  0
    1.8532   -4.6032   -0.3511 H   0  0  0  0  0  0  0  0  0  0  0  0
    2.3339   -4.1153   -1.9597 H   0  0  0  0  0  0  0  0  0  0  0  0
    3.9015   -1.8223    1.3958 H   0  0  0  0  0  0  0  0  0  0  0  0
    2.2143   -1.7015    0.9565 H   0  0  0  0  0  0  0  0  0  0  0  0
    2.5800   -3.0786    3.0390 H   0  0  0  0  0  0  0  0  0  0  0  0
    1.7605   -3.9380    1.7855 H   0  0  0  0  0  0  0  0  0  0  0  0
    2.2866   -6.3399    2.0526 H   0  0  0  0  0  0  0  0  0  0  0  0
    2.8071   -7.4417    4.0992 H   0  0  0  0  0  0  0  0  0  0  0  0
    5.7327   -7.3221    3.9613 H   0  0  0  0  0  0  0  0  0  0  0  0
    5.0274   -7.9884    5.4255 H   0  0  0  0  0  0  0  0  0  0  0  0
    6.2517   -6.7115    5.5427 H   0  0  0  0  0  0  0  0  0  0  0  0
  1  2  1  0
  1 33  1  0
  1 34  1  0
  1 35  1  0
  2  3  1  0
  2  9  1  0
  2 36  1  6
  3  8  1  0
  3  4  2  0
  4  5  1  0
  4 37  1  0
  5  6  2  0
  5 38  1  0
  6  7  1  0
  6 39  1  0
  7  8  2  0
  7 40  1  0
  8 41  1  0
  9 31  1  0
  9 10  1  0
  9 42  1  1
 10 11  2  0
 10 12  1  0
 12 13  2  0
 12 43  1  0
 13 31  1  0
 13 14  1  0
 14 28  1  0
 14 15  1  0
 14 44  1  1
 15 16  1  0
 15 45  1  0
 15 46  1  0
 16 17  1  0
 16 47  1  0
 16 48  1  0
 17 28  1  0
 17 18  1  0
 17 49  1  6
 18 24  1  0
 18 19  1  0
 18 50  1  1
 19 20  1  0
 19 51  1  0
 19 52  1  0
 20 21  2  0
 20 22  1  0
 22 23  1  0
 22 24  1  0
 22 53  1  1
 23 54  1  0
 24 25  1  6
 24 26  1  0
 25 55  1  0
 25 56  1  0
 25 57  1  0
 26 27  1  0
 26 58  1  0
 26 59  1  0
 28 27  1  6
 27 60  1  0
 27 61  1  0
 28 29  1  0
 29 30  2  0
 29 62  1  0
 30 31  1  0
 30 63  1  0
 31 32  1  1
 32 64  1  0
 32 65  1  0
 32 66  1  0
M  END
>  <i_m_ct_stereo_status>  (272) 
1

>  <s_m_source_file>  (272) 
/var/tmp/pbs.5076255.sched01/tmpvuzdko10/1206lwnzxed.sdf

>  <i_m_source_file_index>  (272) 
8

>  <i_lp_mmshare_version>  (272) 
48012

>  <i_f3d_flags>  (272) 
0

>  <s_epik_input>  (272) 
W2NIXTFbY0hdW2NIXVtjSF1bY0hdYzFbQ0BASF0oW0NIM10pW0NASF0oQyg9TylbQ0hdPTIpW0NAQF0oW0NIM10pKFtDSF09W0NIXTMpQzJbQ0BIXShbQ0BdMzQ1KVtDSDJdW0NIMl1bQ0BASF00W0NAQEhdNltDQEBdKFtDSDNdKShbQ0gyXVtDSDJdNSlbQ0BIXShbT0hdKUMoPU8pW0NIMl02

>  <s_epik_cmdline>  (272) 
J2VwaWtfcHl0aG9uJywgJy1waHQnLCAnMi4wJywgJy1waCcsICc3LjAnLCAnLXRuJywgJzgnLCAnLW1hJywgJzIwMCcsICctaW1hZScsICc8aW5maWxlLm1hZT4nLCAnLW9tYWUnLCAnPG91dGZpbGUubWFlPic=

>  <r_lp_tautomer_probability>  (272) 
1

>  <r_epik_Ionization_Penalty>  (272) 
4.25892e-08

>  <r_epik_Ionization_Penalty_Charging>  (272) 
0

>  <r_epik_Ionization_Penalty_Neutral>  (272) 
4.25892e-08

>  <r_epik_State_Penalty>  (272) 
-0

>  <r_epik_Charging_Adjusted_Penalty>  (272) 
0

>  <i_epik_Tot_Q>  (272) 
0

>  <i_epik_Tot_abs_Q>  (272) 
0

>  <s_lp_Force_Field>  (272) 
OPLS3e

>  <r_lp_Energy>  (272) 
48.8593

>  <b_lp_Chiralities_Consistent>  (272) 
1

>  <s_lp_Variant>  (272) 
93:0-1

>  <s_i_glide_gridfile>  (272) 
pfpi4k_grid

>  <i_i_glide_lignum>  (272) 
8

>  <i_i_glide_rotatable_bonds>  (272) 
3

>  <r_i_docking_score>  (272) 
-2.53721

>  <r_i_glide_ligand_efficiency>  (272) 
-0.0792879

>  <r_i_glide_ligand_efficiency_sa>  (272) 
-0.251723

>  <r_i_glide_ligand_efficiency_ln>  (272) 
-0.568151

>  <r_i_glide_gscore>  (272) 
-2.53721

>  <r_i_glide_lipo>  (272) 
-0.205836

>  <r_i_glide_hbond>  (272) 
0

>  <r_i_glide_metal>  (272) 
-0

>  <r_i_glide_rewards>  (272) 
-0.581335

>  <r_i_glide_evdw>  (272) 
-20.2781

>  <r_i_glide_ecoul>  (272) 
-6.33747

>  <r_i_glide_erotb>  (272) 
0.214484

>  <r_i_glide_esite>  (272) 
0

>  <r_i_glide_emodel>  (272) 
-28.4241

>  <r_i_glide_energy>  (272) 
-26.6156

>  <r_i_glide_einternal>  (272) 
4.52136

>  <r_i_glide_intrahb_reward>  (272) 
-0

>  <i_i_glide_confnum>  (272) 
6

>  <i_i_glide_posenum>  (272) 
2

>  <r_i_glide_eff_state_penalty>  (272) 
0

>  <ligand_id>  (272) 
93

>  <original_smiles>  (272) 
CC(c1ccccc1)C1C(=O)C=C2C3CCC4C5CC(=O)C(O)C5(C)CCC34C=CC21C

>  <smiles>  (272) 
[H]OC1([H])C(=O)C([H])([H])C2([H])C3([H])C([H])([H])C([H])([H])C4([H])C5=C([H])C(=O)C([H])(C([H])(c6c([H])c([H])c([H])c([H])c6[H])C([H])([H])[H])C5(C([H])([H])[H])C([H])=C([H])C43C([H])([H])C([H])([H])C12C([H])([H])[H]

$$$$
93:0:2
     RDKit          3D

 66 71  0  0  1  0  0  0  0  0999 V2000
   -1.5564   -5.1185    6.8371 C   0  0  0  0  0  0  0  0  0  0  0  0
   -0.2843   -5.0816    5.9362 C   0  0  2  0  0  0  0  0  0  0  0  0
   -0.0726   -6.4138    5.1763 C   0  0  0  0  0  0  0  0  0  0  0  0
    1.1784   -7.0966    5.1318 C   0  0  0  0  0  0  0  0  0  0  0  0
    1.3135   -8.3080    4.4324 C   0  0  0  0  0  0  0  0  0  0  0  0
    0.2222   -8.8632    3.7354 C   0  0  0  0  0  0  0  0  0  0  0  0
   -1.0176   -8.1949    3.7516 C   0  0  0  0  0  0  0  0  0  0  0  0
   -1.1573   -6.9892    4.4647 C   0  0  0  0  0  0  0  0  0  0  0  0
    1.0215   -4.5562    6.6674 C   0  0  2  0  0  0  0  0  0  0  0  0
    0.7854   -3.8035    7.9707 C   0  0  0  0  0  0  0  0  0  0  0  0
    0.4280   -4.3787    9.0045 O   0  0  0  0  0  0  0  0  0  0  0  0
    1.0397   -2.3934    7.8174 C   0  0  0  0  0  0  0  0  0  0  0  0
    1.6488   -2.2239    6.6367 C   0  0  0  0  0  0  0  0  0  0  0  0
    1.8866   -0.8757    5.9771 C   0  0  1  0  0  0  0  0  0  0  0  0
    3.3704   -0.4837    5.9388 C   0  0  0  0  0  0  0  0  0  0  0  0
    3.7069   -0.2156    4.4682 C   0  0  0  0  0  0  0  0  0  0  0  0
    2.3717    0.1552    3.8026 C   0  0  2  0  0  0  0  0  0  0  0  0
    2.0453    1.6543    4.0083 C   0  0  1  0  0  0  0  0  0  0  0  0
    2.9347    2.7009    3.3209 C   0  0  0  0  0  0  0  0  0  0  0  0
    2.0274    3.9151    3.3208 C   0  0  0  0  0  0  0  0  0  0  0  0
    2.3724    5.0422    2.9129 O   0  0  0  0  0  0  0  0  0  0  0  0
    0.6536    3.5671    3.8741 C   0  0  1  0  0  0  0  0  0  0  0  0
   -0.3848    4.3398    3.3050 O   0  0  0  0  0  0  0  0  0  0  0  0
    0.5978    2.0358    3.6434 C   0  0  1  0  0  0  0  0  0  0  0  0
    0.2363    1.6940    2.1642 C   0  0  0  0  0  0  0  0  0  0  0  0
   -0.3082    1.2658    4.6207 C   0  0  0  0  0  0  0  0  0  0  0  0
   -0.1258   -0.2633    4.4724 C   0  0  0  0  0  0  0  0  0  0  0  0
    1.3440   -0.7839    4.5163 C   0  0  2  0  0  0  0  0  0  0  0  0
    1.3524   -2.1403    3.8123 C   0  0  0  0  0  0  0  0  0  0  0  0
    1.6021   -3.3328    4.4016 C   0  0  0  0  0  0  0  0  0  0  0  0
    1.9065   -3.5179    5.8802 C   0  0  2  0  0  0  0  0  0  0  0  0
    3.3860   -3.9235    6.0070 C   0  0  0  0  0  0  0  0  0  0  0  0
   -2.4574   -5.4477    6.3287 H   0  0  0  0  0  0  0  0  0  0  0  0
   -1.8177   -4.1317    7.2119 H   0  0  0  0  0  0  0  0  0  0  0  0
   -1.4101   -5.7821    7.6830 H   0  0  0  0  0  0  0  0  0  0  0  0
   -0.5660   -4.3588    5.1687 H   0  0  0  0  0  0  0  0  0  0  0  0
    2.0783   -6.7460    5.6062 H   0  0  0  0  0  0  0  0  0  0  0  0
    2.2700   -8.8081    4.4329 H   0  0  0  0  0  0  0  0  0  0  0  0
    0.3413   -9.7953    3.1967 H   0  0  0  0  0  0  0  0  0  0  0  0
   -1.8604   -8.6137    3.2198 H   0  0  0  0  0  0  0  0  0  0  0  0
   -2.1240   -6.5118    4.4496 H   0  0  0  0  0  0  0  0  0  0  0  0
    1.6064   -5.3765    7.0817 H   0  0  0  0  0  0  0  0  0  0  0  0
    0.6948   -1.6394    8.5199 H   0  0  0  0  0  0  0  0  0  0  0  0
    1.3735   -0.1383    6.6005 H   0  0  0  0  0  0  0  0  0  0  0  0
    3.5063    0.4248    6.5247 H   0  0  0  0  0  0  0  0  0  0  0  0
    4.0293   -1.2281    6.3812 H   0  0  0  0  0  0  0  0  0  0  0  0
    4.4752    0.5517    4.3537 H   0  0  0  0  0  0  0  0  0  0  0  0
    4.0920   -1.1273    4.0128 H   0  0  0  0  0  0  0  0  0  0  0  0
    2.4252   -0.0457    2.7319 H   0  0  0  0  0  0  0  0  0  0  0  0
    2.1607    1.8482    5.0756 H   0  0  0  0  0  0  0  0  0  0  0  0
    3.8467    2.9140    3.8745 H   0  0  0  0  0  0  0  0  0  0  0  0
    3.1832    2.4257    2.2976 H   0  0  0  0  0  0  0  0  0  0  0  0
    0.6726    3.7897    4.9385 H   0  0  0  0  0  0  0  0  0  0  0  0
   -0.2285    4.3793    2.3560 H   0  0  0  0  0  0  0  0  0  0  0  0
   -0.8084    1.9338    1.9528 H   0  0  0  0  0  0  0  0  0  0  0  0
    0.3735    0.6386    1.9203 H   0  0  0  0  0  0  0  0  0  0  0  0
    0.8479    2.2342    1.4427 H   0  0  0  0  0  0  0  0  0  0  0  0
   -0.0755    1.5655    5.6430 H   0  0  0  0  0  0  0  0  0  0  0  0
   -1.3541    1.5410    4.4539 H   0  0  0  0  0  0  0  0  0  0  0  0
   -0.7132   -0.7691    5.2350 H   0  0  0  0  0  0  0  0  0  0  0  0
   -0.5791   -0.5564    3.5286 H   0  0  0  0  0  0  0  0  0  0  0  0
    1.1668   -2.1106    2.7497 H   0  0  0  0  0  0  0  0  0  0  0  0
    1.6027   -4.2288    3.7963 H   0  0  0  0  0  0  0  0  0  0  0  0
    4.0329   -3.2414    5.4473 H   0  0  0  0  0  0  0  0  0  0  0  0
    3.5655   -4.9209    5.6051 H   0  0  0  0  0  0  0  0  0  0  0  0
    3.7143   -3.9163    7.0470 H   0  0  0  0  0  0  0  0  0  0  0  0
  1  2  1  0
  1 33  1  0
  1 34  1  0
  1 35  1  0
  2  3  1  0
  2  9  1  0
  2 36  1  6
  3  8  1  0
  3  4  2  0
  4  5  1  0
  4 37  1  0
  5  6  2  0
  5 38  1  0
  6  7  1  0
  6 39  1  0
  7  8  2  0
  7 40  1  0
  8 41  1  0
  9 31  1  0
  9 10  1  0
  9 42  1  1
 10 11  2  0
 10 12  1  0
 12 13  2  0
 12 43  1  0
 13 31  1  0
 13 14  1  0
 14 28  1  0
 14 15  1  0
 14 44  1  1
 15 16  1  0
 15 45  1  0
 15 46  1  0
 16 17  1  0
 16 47  1  0
 16 48  1  0
 17 28  1  0
 17 18  1  0
 17 49  1  6
 18 24  1  0
 18 19  1  0
 18 50  1  1
 19 20  1  0
 19 51  1  0
 19 52  1  0
 20 21  2  0
 20 22  1  0
 22 23  1  0
 22 24  1  0
 22 53  1  1
 23 54  1  0
 24 25  1  6
 24 26  1  0
 25 55  1  0
 25 56  1  0
 25 57  1  0
 26 27  1  0
 26 58  1  0
 26 59  1  0
 28 27  1  1
 27 60  1  0
 27 61  1  0
 28 29  1  0
 29 30  2  0
 29 62  1  0
 30 31  1  0
 30 63  1  0
 31 32  1  6
 32 64  1  0
 32 65  1  0
 32 66  1  0
M  END
>  <i_m_ct_stereo_status>  (273) 
1

>  <s_m_source_file>  (273) 
/var/tmp/pbs.5076255.sched01/tmpvuzdko10/1206lwnzxed.sdf

>  <i_m_source_file_index>  (273) 
8

>  <i_lp_mmshare_version>  (273) 
48012

>  <i_f3d_flags>  (273) 
0

>  <s_epik_input>  (273) 
W2NIXTFbY0hdW2NIXVtjSF1bY0hdYzFbQ0BASF0oW0NIM10pW0NASF0oQyg9TylbQ0hdPTIpW0NAQF0oW0NIM10pKFtDSF09W0NIXTMpQzJbQ0BIXShbQ0BdMzQ1KVtDSDJdW0NIMl1bQ0BASF00W0NAQEhdNltDQEBdKFtDSDNdKShbQ0gyXVtDSDJdNSlbQ0BIXShbT0hdKUMoPU8pW0NIMl02

>  <s_epik_cmdline>  (273) 
J2VwaWtfcHl0aG9uJywgJy1waHQnLCAnMi4wJywgJy1waCcsICc3LjAnLCAnLXRuJywgJzgnLCAnLW1hJywgJzIwMCcsICctaW1hZScsICc8aW5maWxlLm1hZT4nLCAnLW9tYWUnLCAnPG91dGZpbGUubWFlPic=

>  <r_lp_tautomer_probability>  (273) 
1

>  <r_epik_Ionization_Penalty>  (273) 
4.25892e-08

>  <r_epik_Ionization_Penalty_Charging>  (273) 
0

>  <r_epik_Ionization_Penalty_Neutral>  (273) 
4.25892e-08

>  <r_epik_State_Penalty>  (273) 
-0

>  <r_epik_Charging_Adjusted_Penalty>  (273) 
0

>  <i_epik_Tot_Q>  (273) 
0

>  <i_epik_Tot_abs_Q>  (273) 
0

>  <s_lp_Force_Field>  (273) 
OPLS3e

>  <r_lp_Energy>  (273) 
48.8593

>  <b_lp_Chiralities_Consistent>  (273) 
1

>  <s_lp_Variant>  (273) 
93:0-1

>  <s_i_glide_gridfile>  (273) 
pfpi4k_grid

>  <i_i_glide_lignum>  (273) 
8

>  <i_i_glide_rotatable_bonds>  (273) 
3

>  <r_i_docking_score>  (273) 
-2.50305

>  <r_i_glide_ligand_efficiency>  (273) 
-0.0782202

>  <r_i_glide_ligand_efficiency_sa>  (273) 
-0.248334

>  <r_i_glide_ligand_efficiency_ln>  (273) 
-0.5605

>  <r_i_glide_gscore>  (273) 
-2.50305

>  <r_i_glide_lipo>  (273) 
-0.0745699

>  <r_i_glide_hbond>  (273) 
0

>  <r_i_glide_metal>  (273) 
-0

>  <r_i_glide_rewards>  (273) 
-0.473329

>  <r_i_glide_evdw>  (273) 
-22.6895

>  <r_i_glide_ecoul>  (273) 
-6.50686

>  <r_i_glide_erotb>  (273) 
0.214484

>  <r_i_glide_esite>  (273) 
-0.0591265

>  <r_i_glide_emodel>  (273) 
-29.2218

>  <r_i_glide_energy>  (273) 
-29.1964

>  <r_i_glide_einternal>  (273) 
8.56545

>  <r_i_glide_intrahb_reward>  (273) 
-0

>  <i_i_glide_confnum>  (273) 
6

>  <i_i_glide_posenum>  (273) 
1

>  <r_i_glide_eff_state_penalty>  (273) 
0

>  <ligand_id>  (273) 
93

>  <original_smiles>  (273) 
CC(c1ccccc1)C1C(=O)C=C2C3CCC4C5CC(=O)C(O)C5(C)CCC34C=CC21C

>  <smiles>  (273) 
[H]OC1([H])C(=O)C([H])([H])C2([H])C3([H])C([H])([H])C([H])([H])C4([H])C5=C([H])C(=O)C([H])(C([H])(c6c([H])c([H])c([H])c([H])c6[H])C([H])([H])[H])C5(C([H])([H])[H])C([H])=C([H])C43C([H])([H])C([H])([H])C12C([H])([H])[H]

$$$$
94:0:0
     RDKit          3D

 50 53  0  0  1  0  0  0  0  0999 V2000
    4.3313   -3.4545   -3.4184 C   0  0  0  0  0  0  0  0  0  0  0  0
    4.6193   -2.9653   -2.0124 C   0  0  0  0  0  0  0  0  0  0  0  0
    3.6273   -2.7422   -1.1400 C   0  0  0  0  0  0  0  0  0  0  0  0
    3.7124   -2.1543    0.2564 C   0  0  2  0  0  0  0  0  0  0  0  0
    4.7726   -1.1431    0.6412 C   0  0  2  0  0  0  0  0  0  0  0  0
    6.0864   -1.7785    0.6139 O   0  0  0  0  0  0  0  0  0  0  0  0
    6.4146   -2.9720   -0.1753 C   0  0  1  0  0  0  0  0  0  0  0  0
    7.9539   -2.8756   -0.0690 C   0  0  0  0  0  0  0  0  0  0  0  0
    6.0563   -4.4507    0.3629 C   0  0  0  0  0  0  0  0  0  0  0  0
    4.6044   -5.0858    0.5244 C   0  0  0  0  0  0  0  0  0  0  0  0
    3.8338   -4.4739    1.7160 C   0  0  2  0  0  0  0  0  0  0  0  0
    2.4646   -4.8335    2.2996 C   0  0  1  0  0  0  0  0  0  0  0  0
    2.2051   -6.3428    2.4188 C   0  0  0  0  0  0  0  0  0  0  0  0
    2.3384   -4.0836    3.6879 C   0  0  0  0  0  0  0  0  0  0  0  0
    3.2159   -2.7805    3.8725 C   0  0  0  0  0  0  0  0  0  0  0  0
    3.2961   -2.0225    2.5357 C   0  0  1  0  0  0  0  0  0  0  0  0
    4.2526   -0.8207    2.1308 C   0  0  1  0  0  0  0  0  0  0  0  0
    5.3703   -0.5104    3.1371 C   0  0  0  0  0  0  0  0  0  0  0  0
    3.8572   -2.9802    1.5463 C   0  0  2  0  0  0  0  0  0  0  0  0
    6.0779   -2.7763   -1.6693 C   0  0  0  0  0  0  0  0  0  0  0  0
    4.6814   -2.7411   -4.1609 H   0  0  0  0  0  0  0  0  0  0  0  0
    3.2603   -3.5986   -3.5698 H   0  0  0  0  0  0  0  0  0  0  0  0
    4.8189   -4.4172   -3.5940 H   0  0  0  0  0  0  0  0  0  0  0  0
    2.6137   -2.9346   -1.4659 H   0  0  0  0  0  0  0  0  0  0  0  0
    2.7636   -1.6155    0.2481 H   0  0  0  0  0  0  0  0  0  0  0  0
    4.7625   -0.2673   -0.0069 H   0  0  0  0  0  0  0  0  0  0  0  0
    8.4582   -3.6609   -0.6349 H   0  0  0  0  0  0  0  0  0  0  0  0
    8.2764   -2.9688    0.9681 H   0  0  0  0  0  0  0  0  0  0  0  0
    8.3272   -1.9170   -0.4335 H   0  0  0  0  0  0  0  0  0  0  0  0
    6.5787   -5.1390   -0.2991 H   0  0  0  0  0  0  0  0  0  0  0  0
    6.5582   -4.5792    1.3247 H   0  0  0  0  0  0  0  0  0  0  0  0
    4.0307   -5.0876   -0.3970 H   0  0  0  0  0  0  0  0  0  0  0  0
    4.7382   -6.1455    0.7402 H   0  0  0  0  0  0  0  0  0  0  0  0
    4.4815   -4.7591    2.5507 H   0  0  0  0  0  0  0  0  0  0  0  0
    1.7176   -4.4288    1.6223 H   0  0  0  0  0  0  0  0  0  0  0  0
    2.9365   -6.8194    3.0714 H   0  0  0  0  0  0  0  0  0  0  0  0
    2.2587   -6.8311    1.4455 H   0  0  0  0  0  0  0  0  0  0  0  0
    1.2162   -6.5398    2.8334 H   0  0  0  0  0  0  0  0  0  0  0  0
    1.2893   -3.8253    3.8425 H   0  0  0  0  0  0  0  0  0  0  0  0
    2.5876   -4.7748    4.4934 H   0  0  0  0  0  0  0  0  0  0  0  0
    2.7947   -2.1461    4.6516 H   0  0  0  0  0  0  0  0  0  0  0  0
    4.2202   -3.0518    4.2019 H   0  0  0  0  0  0  0  0  0  0  0  0
    2.2664   -1.7518    2.2873 H   0  0  0  0  0  0  0  0  0  0  0  0
    3.6254    0.0682    2.0688 H   0  0  0  0  0  0  0  0  0  0  0  0
    6.0309   -1.3652    3.2756 H   0  0  0  0  0  0  0  0  0  0  0  0
    4.9542   -0.2388    4.1080 H   0  0  0  0  0  0  0  0  0  0  0  0
    5.9794    0.3254    2.7996 H   0  0  0  0  0  0  0  0  0  0  0  0
    4.8723   -2.9878    1.9366 H   0  0  0  0  0  0  0  0  0  0  0  0
    6.6487   -3.5019   -2.2531 H   0  0  0  0  0  0  0  0  0  0  0  0
    6.3941   -1.7946   -2.0133 H   0  0  0  0  0  0  0  0  0  0  0  0
  1  2  1  0
  1 21  1  0
  1 22  1  0
  1 23  1  0
  2 20  1  0
  2  3  2  0
  3  4  1  0
  3 24  1  0
  4 19  1  0
  4  5  1  0
  4 25  1  1
  5 17  1  0
  5  6  1  0
  5 26  1  6
  6  7  1  0
  7  8  1  6
  7  9  1  0
  7 20  1  0
  8 27  1  0
  8 28  1  0
  8 29  1  0
  9 10  1  0
  9 30  1  0
  9 31  1  0
 10 11  1  0
 10 32  1  0
 10 33  1  0
 11 19  1  0
 11 12  1  0
 11 34  1  1
 12 13  1  0
 12 14  1  0
 12 35  1  6
 13 36  1  0
 13 37  1  0
 13 38  1  0
 14 15  1  0
 14 39  1  0
 14 40  1  0
 15 16  1  0
 15 41  1  0
 15 42  1  0
 16 17  1  0
 16 19  1  0
 16 43  1  6
 17 18  1  0
 17 44  1  6
 18 45  1  0
 18 46  1  0
 18 47  1  0
 19 48  1  1
 20 49  1  0
 20 50  1  0
M  END
>  <i_m_ct_stereo_status>  (274) 
1

>  <s_m_source_file>  (274) 
/var/tmp/pbs.5076255.sched01/tmpvuzdko10/1206lwnzxed.sdf

>  <i_m_source_file_index>  (274) 
9

>  <i_lp_mmshare_version>  (274) 
48012

>  <i_f3d_flags>  (274) 
0

>  <s_epik_input>  (274) 
W0NIM11bQ0BdMTJPW0NASF0zW0NAQEhdKFtDSF09QyhbQ0gzXSlbQ0gyXTIpW0NAQEhdNFtDQEhdKFtDSDJdW0NIMl0xKVtDQEBIXShbQ0gzXSlbQ0gyXVtDSDJdW0NASF00W0NASF0zW0NIM10=

>  <s_epik_cmdline>  (274) 
J2VwaWtfcHl0aG9uJywgJy1waHQnLCAnMi4wJywgJy1waCcsICc3LjAnLCAnLXRuJywgJzgnLCAnLW1hJywgJzIwMCcsICctaW1hZScsICc8aW5maWxlLm1hZT4nLCAnLW9tYWUnLCAnPG91dGZpbGUubWFlPic=

>  <r_lp_tautomer_probability>  (274) 
1

>  <r_epik_Ionization_Penalty>  (274) 
6.55614e-11

>  <r_epik_Ionization_Penalty_Charging>  (274) 
0

>  <r_epik_Ionization_Penalty_Neutral>  (274) 
6.55614e-11

>  <r_epik_State_Penalty>  (274) 
-0

>  <r_epik_Charging_Adjusted_Penalty>  (274) 
0

>  <i_epik_Tot_Q>  (274) 
0

>  <i_epik_Tot_abs_Q>  (274) 
0

>  <s_lp_Force_Field>  (274) 
OPLS3e

>  <r_lp_Energy>  (274) 
118.415

>  <b_lp_Chiralities_Consistent>  (274) 
1

>  <s_lp_Variant>  (274) 
94:0-1

>  <s_i_glide_gridfile>  (274) 
pfpi4k_grid

>  <i_i_glide_lignum>  (274) 
9

>  <i_i_glide_rotatable_bonds>  (274) 
0

>  <r_i_docking_score>  (274) 
-3.55707

>  <r_i_glide_ligand_efficiency>  (274) 
-0.177854

>  <r_i_glide_ligand_efficiency_sa>  (274) 
-0.482769

>  <r_i_glide_ligand_efficiency_ln>  (274) 
-0.890218

>  <r_i_glide_gscore>  (274) 
-3.55707

>  <r_i_glide_lipo>  (274) 
-0.751951

>  <r_i_glide_hbond>  (274) 
0

>  <r_i_glide_metal>  (274) 
-0

>  <r_i_glide_rewards>  (274) 
-1.5379

>  <r_i_glide_evdw>  (274) 
-24.9577

>  <r_i_glide_ecoul>  (274) 
-0.128885

>  <r_i_glide_erotb>  (274) 
0

>  <r_i_glide_esite>  (274) 
0

>  <r_i_glide_emodel>  (274) 
-30.6439

>  <r_i_glide_energy>  (274) 
-25.0866

>  <r_i_glide_einternal>  (274) 
0

>  <r_i_glide_intrahb_reward>  (274) 
-0

>  <i_i_glide_confnum>  (274) 
2

>  <i_i_glide_posenum>  (274) 
24

>  <r_i_glide_eff_state_penalty>  (274) 
0

>  <ligand_id>  (274) 
94

>  <original_smiles>  (274) 
CC1=CC2C3OC(C)(CCC4C(C)CCC(C3C)C24)C1

>  <smiles>  (274) 
[H]C1=C(C([H])([H])[H])C([H])([H])C2(C([H])([H])[H])OC3([H])C1([H])C1([H])C([H])(C([H])([H])C2([H])[H])C([H])(C([H])([H])[H])C([H])([H])C([H])([H])C1([H])C3([H])C([H])([H])[H]

$$$$
94:0:1
     RDKit          3D

 50 53  0  0  1  0  0  0  0  0999 V2000
    4.3795   -7.6799    1.1624 C   0  0  0  0  0  0  0  0  0  0  0  0
    4.6284   -6.1824    1.1578 C   0  0  0  0  0  0  0  0  0  0  0  0
    5.1647   -5.5760    0.0907 C   0  0  0  0  0  0  0  0  0  0  0  0
    5.5854   -4.1283   -0.0701 C   0  0  2  0  0  0  0  0  0  0  0  0
    6.0622   -3.3036    1.1007 C   0  0  2  0  0  0  0  0  0  0  0  0
    4.9690   -3.0858    2.0351 O   0  0  0  0  0  0  0  0  0  0  0  0
    3.8081   -3.9686    2.1502 C   0  0  1  0  0  0  0  0  0  0  0  0
    3.2594   -3.4346    3.4903 C   0  0  0  0  0  0  0  0  0  0  0  0
    2.5826   -3.8259    1.1289 C   0  0  0  0  0  0  0  0  0  0  0  0
    2.5554   -4.1683   -0.4268 C   0  0  0  0  0  0  0  0  0  0  0  0
    3.3379   -3.1382   -1.2718 C   0  0  2  0  0  0  0  0  0  0  0  0
    3.5293   -3.0192   -2.7880 C   0  0  1  0  0  0  0  0  0  0  0  0
    2.2472   -3.2286   -3.5919 C   0  0  0  0  0  0  0  0  0  0  0  0
    4.1611   -1.6014   -3.0640 C   0  0  0  0  0  0  0  0  0  0  0  0
    4.9763   -0.9658   -1.8774 C   0  0  0  0  0  0  0  0  0  0  0  0
    5.7288   -2.0667   -1.1180 C   0  0  1  0  0  0  0  0  0  0  0  0
    6.4572   -1.9786    0.2878 C   0  0  1  0  0  0  0  0  0  0  0  0
    6.1896   -0.6867    1.0548 C   0  0  0  0  0  0  0  0  0  0  0  0
    4.6935   -3.0200   -0.6516 C   0  0  2  0  0  0  0  0  0  0  0  0
    4.2085   -5.4392    2.3983 C   0  0  0  0  0  0  0  0  0  0  0  0
    4.9371   -8.1576    1.9688 H   0  0  0  0  0  0  0  0  0  0  0  0
    4.6930   -8.1355    0.2234 H   0  0  0  0  0  0  0  0  0  0  0  0
    3.3195   -7.8978    1.2958 H   0  0  0  0  0  0  0  0  0  0  0  0
    5.3913   -6.1903   -0.7621 H   0  0  0  0  0  0  0  0  0  0  0  0
    6.4578   -4.2890   -0.7033 H   0  0  0  0  0  0  0  0  0  0  0  0
    6.9091   -3.7556    1.6158 H   0  0  0  0  0  0  0  0  0  0  0  0
    2.3693   -3.9763    3.8152 H   0  0  0  0  0  0  0  0  0  0  0  0
    2.9907   -2.3793    3.4123 H   0  0  0  0  0  0  0  0  0  0  0  0
    4.0061   -3.5228    4.2808 H   0  0  0  0  0  0  0  0  0  0  0  0
    1.8119   -4.4652    1.5529 H   0  0  0  0  0  0  0  0  0  0  0  0
    2.1858   -2.8115    1.2216 H   0  0  0  0  0  0  0  0  0  0  0  0
    2.8383   -5.1911   -0.6364 H   0  0  0  0  0  0  0  0  0  0  0  0
    1.5225   -4.1219   -0.7665 H   0  0  0  0  0  0  0  0  0  0  0  0
    2.7551   -2.2323   -1.0756 H   0  0  0  0  0  0  0  0  0  0  0  0
    4.2392   -3.7902   -3.0946 H   0  0  0  0  0  0  0  0  0  0  0  0
    1.4735   -2.5155   -3.3250 H   0  0  0  0  0  0  0  0  0  0  0  0
    1.8589   -4.2257   -3.4003 H   0  0  0  0  0  0  0  0  0  0  0  0
    2.4370   -3.1468   -4.6618 H   0  0  0  0  0  0  0  0  0  0  0  0
    4.8028   -1.6776   -3.9382 H   0  0  0  0  0  0  0  0  0  0  0  0
    3.3692   -0.9011   -3.3383 H   0  0  0  0  0  0  0  0  0  0  0  0
    5.6622   -0.2197   -2.2689 H   0  0  0  0  0  0  0  0  0  0  0  0
    4.3019   -0.4388   -1.1990 H   0  0  0  0  0  0  0  0  0  0  0  0
    6.4052   -2.5260   -1.8452 H   0  0  0  0  0  0  0  0  0  0  0  0
    7.5281   -2.0195    0.0963 H   0  0  0  0  0  0  0  0  0  0  0  0
    5.1327   -0.5315    1.2853 H   0  0  0  0  0  0  0  0  0  0  0  0
    6.5260    0.1540    0.4571 H   0  0  0  0  0  0  0  0  0  0  0  0
    6.7420   -0.6764    1.9928 H   0  0  0  0  0  0  0  0  0  0  0  0
    4.2527   -2.3801    0.1103 H   0  0  0  0  0  0  0  0  0  0  0  0
    3.3451   -5.9661    2.8101 H   0  0  0  0  0  0  0  0  0  0  0  0
    4.9988   -5.5077    3.1457 H   0  0  0  0  0  0  0  0  0  0  0  0
  1  2  1  0
  1 21  1  0
  1 22  1  0
  1 23  1  0
  2 20  1  0
  2  3  2  0
  3  4  1  0
  3 24  1  0
  4 19  1  0
  4  5  1  0
  4 25  1  6
  5 17  1  0
  5  6  1  0
  5 26  1  1
  6  7  1  0
  7  8  1  1
  7  9  1  0
  7 20  1  0
  8 27  1  0
  8 28  1  0
  8 29  1  0
  9 10  1  0
  9 30  1  0
  9 31  1  0
 10 11  1  0
 10 32  1  0
 10 33  1  0
 11 19  1  0
 11 12  1  0
 11 34  1  1
 12 13  1  0
 12 14  1  0
 12 35  1  6
 13 36  1  0
 13 37  1  0
 13 38  1  0
 14 15  1  0
 14 39  1  0
 14 40  1  0
 15 16  1  0
 15 41  1  0
 15 42  1  0
 16 17  1  0
 16 19  1  0
 16 43  1  6
 17 18  1  0
 17 44  1  6
 18 45  1  0
 18 46  1  0
 18 47  1  0
 19 48  1  1
 20 49  1  0
 20 50  1  0
M  END
>  <i_m_ct_stereo_status>  (275) 
1

>  <s_m_source_file>  (275) 
/var/tmp/pbs.5076255.sched01/tmpvuzdko10/1206lwnzxed.sdf

>  <i_m_source_file_index>  (275) 
9

>  <i_lp_mmshare_version>  (275) 
48012

>  <i_f3d_flags>  (275) 
0

>  <s_epik_input>  (275) 
W0NIM11bQ0BdMTJPW0NASF0zW0NAQEhdKFtDSF09QyhbQ0gzXSlbQ0gyXTIpW0NAQEhdNFtDQEhdKFtDSDJdW0NIMl0xKVtDQEBIXShbQ0gzXSlbQ0gyXVtDSDJdW0NASF00W0NASF0zW0NIM10=

>  <s_epik_cmdline>  (275) 
J2VwaWtfcHl0aG9uJywgJy1waHQnLCAnMi4wJywgJy1waCcsICc3LjAnLCAnLXRuJywgJzgnLCAnLW1hJywgJzIwMCcsICctaW1hZScsICc8aW5maWxlLm1hZT4nLCAnLW9tYWUnLCAnPG91dGZpbGUubWFlPic=

>  <r_lp_tautomer_probability>  (275) 
1

>  <r_epik_Ionization_Penalty>  (275) 
6.55614e-11

>  <r_epik_Ionization_Penalty_Charging>  (275) 
0

>  <r_epik_Ionization_Penalty_Neutral>  (275) 
6.55614e-11

>  <r_epik_State_Penalty>  (275) 
-0

>  <r_epik_Charging_Adjusted_Penalty>  (275) 
0

>  <i_epik_Tot_Q>  (275) 
0

>  <i_epik_Tot_abs_Q>  (275) 
0

>  <s_lp_Force_Field>  (275) 
OPLS3e

>  <r_lp_Energy>  (275) 
118.415

>  <b_lp_Chiralities_Consistent>  (275) 
1

>  <s_lp_Variant>  (275) 
94:0-1

>  <s_i_glide_gridfile>  (275) 
pfpi4k_grid

>  <i_i_glide_lignum>  (275) 
9

>  <i_i_glide_rotatable_bonds>  (275) 
0

>  <r_i_docking_score>  (275) 
-3.42679

>  <r_i_glide_ligand_efficiency>  (275) 
-0.17134

>  <r_i_glide_ligand_efficiency_sa>  (275) 
-0.465087

>  <r_i_glide_ligand_efficiency_ln>  (275) 
-0.857613

>  <r_i_glide_gscore>  (275) 
-3.42679

>  <r_i_glide_lipo>  (275) 
-0.772189

>  <r_i_glide_hbond>  (275) 
0

>  <r_i_glide_metal>  (275) 
-0

>  <r_i_glide_rewards>  (275) 
-1.5379

>  <r_i_glide_evdw>  (275) 
-21.1654

>  <r_i_glide_ecoul>  (275) 
-0.389517

>  <r_i_glide_erotb>  (275) 
0

>  <r_i_glide_esite>  (275) 
0

>  <r_i_glide_emodel>  (275) 
-26.8779

>  <r_i_glide_energy>  (275) 
-21.5549

>  <r_i_glide_einternal>  (275) 
0

>  <r_i_glide_intrahb_reward>  (275) 
-0

>  <i_i_glide_confnum>  (275) 
1

>  <i_i_glide_posenum>  (275) 
3

>  <r_i_glide_eff_state_penalty>  (275) 
0

>  <ligand_id>  (275) 
94

>  <original_smiles>  (275) 
CC1=CC2C3OC(C)(CCC4C(C)CCC(C3C)C24)C1

>  <smiles>  (275) 
[H]C1=C(C([H])([H])[H])C([H])([H])C2(C([H])([H])[H])OC3([H])C1([H])C1([H])C([H])(C([H])([H])C2([H])[H])C([H])(C([H])([H])[H])C([H])([H])C([H])([H])C1([H])C3([H])C([H])([H])[H]

$$$$
94:0:2
     RDKit          3D

 50 53  0  0  1  0  0  0  0  0999 V2000
    2.0142    2.1560    3.2201 C   0  0  0  0  0  0  0  0  0  0  0  0
    2.4084    0.6912    3.1925 C   0  0  0  0  0  0  0  0  0  0  0  0
    2.0013   -0.1197    2.2065 C   0  0  0  0  0  0  0  0  0  0  0  0
    2.2082   -1.6174    2.0743 C   0  0  2  0  0  0  0  0  0  0  0  0
    2.3181   -2.5278    3.2772 C   0  0  2  0  0  0  0  0  0  0  0  0
    3.5441   -2.2288    4.0040 O   0  0  0  0  0  0  0  0  0  0  0  0
    4.2402   -0.9390    3.9553 C   0  0  1  0  0  0  0  0  0  0  0  0
    5.1467   -1.1622    5.1846 C   0  0  0  0  0  0  0  0  0  0  0  0
    5.2496   -0.5860    2.7480 C   0  0  0  0  0  0  0  0  0  0  0  0
    4.8602   -0.3211    1.2226 C   0  0  0  0  0  0  0  0  0  0  0  0
    4.4419   -1.6188    0.4891 C   0  0  2  0  0  0  0  0  0  0  0  0
    4.0704   -1.8591   -0.9779 C   0  0  1  0  0  0  0  0  0  0  0  0
    4.9973   -1.1574   -1.9760 C   0  0  0  0  0  0  0  0  0  0  0  0
    4.0485   -3.4274   -1.1943 C   0  0  0  0  0  0  0  0  0  0  0  0
    3.7761   -4.3186    0.0837 C   0  0  0  0  0  0  0  0  0  0  0  0
    2.7803   -3.5965    1.0009 C   0  0  1  0  0  0  0  0  0  0  0  0
    2.3778   -3.9362    2.5018 C   0  0  1  0  0  0  0  0  0  0  0  0
    3.2422   -5.0038    3.1873 C   0  0  0  0  0  0  0  0  0  0  0  0
    3.3760   -2.2735    1.3189 C   0  0  2  0  0  0  0  0  0  0  0  0
    3.3024    0.2330    4.3201 C   0  0  0  0  0  0  0  0  0  0  0  0
    1.4531    2.3861    4.1264 H   0  0  0  0  0  0  0  0  0  0  0  0
    1.3888    2.4124    2.3632 H   0  0  0  0  0  0  0  0  0  0  0  0
    2.8990    2.7931    3.1874 H   0  0  0  0  0  0  0  0  0  0  0  0
    1.3925    0.3029    1.4172 H   0  0  0  0  0  0  0  0  0  0  0  0
    1.2572   -1.8529    1.5951 H   0  0  0  0  0  0  0  0  0  0  0  0
    1.4566   -2.4478    3.9401 H   0  0  0  0  0  0  0  0  0  0  0  0
    5.7841   -0.3002    5.3854 H   0  0  0  0  0  0  0  0  0  0  0  0
    5.7994   -2.0240    5.0360 H   0  0  0  0  0  0  0  0  0  0  0  0
    4.5586   -1.3529    6.0845 H   0  0  0  0  0  0  0  0  0  0  0  0
    5.7770    0.3147    3.0624 H   0  0  0  0  0  0  0  0  0  0  0  0
    6.0281   -1.3508    2.7368 H   0  0  0  0  0  0  0  0  0  0  0  0
    4.1441    0.4858    1.0942 H   0  0  0  0  0  0  0  0  0  0  0  0
    5.7527    0.0544    0.7219 H   0  0  0  0  0  0  0  0  0  0  0  0
    5.3654   -2.1997    0.5591 H   0  0  0  0  0  0  0  0  0  0  0  0
    3.0641   -1.4688   -1.1371 H   0  0  0  0  0  0  0  0  0  0  0  0
    6.0294   -1.4885   -1.8624 H   0  0  0  0  0  0  0  0  0  0  0  0
    4.9656   -0.0786   -1.8421 H   0  0  0  0  0  0  0  0  0  0  0  0
    4.6911   -1.3599   -3.0021 H   0  0  0  0  0  0  0  0  0  0  0  0
    3.2934   -3.6537   -1.9485 H   0  0  0  0  0  0  0  0  0  0  0  0
    4.9933   -3.7501   -1.6306 H   0  0  0  0  0  0  0  0  0  0  0  0
    3.3941   -5.2949   -0.2157 H   0  0  0  0  0  0  0  0  0  0  0  0
    4.7085   -4.4991    0.6199 H   0  0  0  0  0  0  0  0  0  0  0  0
    1.8748   -3.4787    0.4009 H   0  0  0  0  0  0  0  0  0  0  0  0
    1.3638   -4.3324    2.4795 H   0  0  0  0  0  0  0  0  0  0  0  0
    4.2879   -4.7027    3.2392 H   0  0  0  0  0  0  0  0  0  0  0  0
    3.1892   -5.9493    2.6466 H   0  0  0  0  0  0  0  0  0  0  0  0
    2.8935   -5.1866    4.2046 H   0  0  0  0  0  0  0  0  0  0  0  0
    4.1589   -2.6430    1.9755 H   0  0  0  0  0  0  0  0  0  0  0  0
    3.9183    1.0864    4.6111 H   0  0  0  0  0  0  0  0  0  0  0  0
    2.6892   -0.0119    5.1875 H   0  0  0  0  0  0  0  0  0  0  0  0
  1  2  1  0
  1 21  1  0
  1 22  1  0
  1 23  1  0
  2 20  1  0
  2  3  2  0
  3  4  1  0
  3 24  1  0
  4 19  1  0
  4  5  1  0
  4 25  1  6
  5 17  1  0
  5  6  1  0
  5 26  1  1
  6  7  1  0
  7  8  1  1
  7  9  1  0
  7 20  1  0
  8 27  1  0
  8 28  1  0
  8 29  1  0
  9 10  1  0
  9 30  1  0
  9 31  1  0
 10 11  1  0
 10 32  1  0
 10 33  1  0
 11 19  1  0
 11 12  1  0
 11 34  1  1
 12 13  1  0
 12 14  1  0
 12 35  1  1
 13 36  1  0
 13 37  1  0
 13 38  1  0
 14 15  1  0
 14 39  1  0
 14 40  1  0
 15 16  1  0
 15 41  1  0
 15 42  1  0
 16 17  1  0
 16 19  1  0
 16 43  1  6
 17 18  1  0
 17 44  1  6
 18 45  1  0
 18 46  1  0
 18 47  1  0
 19 48  1  1
 20 49  1  0
 20 50  1  0
M  END
>  <i_m_ct_stereo_status>  (276) 
1

>  <s_m_source_file>  (276) 
/var/tmp/pbs.5076255.sched01/tmpvuzdko10/1206lwnzxed.sdf

>  <i_m_source_file_index>  (276) 
9

>  <i_lp_mmshare_version>  (276) 
48012

>  <i_f3d_flags>  (276) 
0

>  <s_epik_input>  (276) 
W0NIM11bQ0BdMTJPW0NASF0zW0NAQEhdKFtDSF09QyhbQ0gzXSlbQ0gyXTIpW0NAQEhdNFtDQEhdKFtDSDJdW0NIMl0xKVtDQEBIXShbQ0gzXSlbQ0gyXVtDSDJdW0NASF00W0NASF0zW0NIM10=

>  <s_epik_cmdline>  (276) 
J2VwaWtfcHl0aG9uJywgJy1waHQnLCAnMi4wJywgJy1waCcsICc3LjAnLCAnLXRuJywgJzgnLCAnLW1hJywgJzIwMCcsICctaW1hZScsICc8aW5maWxlLm1hZT4nLCAnLW9tYWUnLCAnPG91dGZpbGUubWFlPic=

>  <r_lp_tautomer_probability>  (276) 
1

>  <r_epik_Ionization_Penalty>  (276) 
6.55614e-11

>  <r_epik_Ionization_Penalty_Charging>  (276) 
0

>  <r_epik_Ionization_Penalty_Neutral>  (276) 
6.55614e-11

>  <r_epik_State_Penalty>  (276) 
-0

>  <r_epik_Charging_Adjusted_Penalty>  (276) 
0

>  <i_epik_Tot_Q>  (276) 
0

>  <i_epik_Tot_abs_Q>  (276) 
0

>  <s_lp_Force_Field>  (276) 
OPLS3e

>  <r_lp_Energy>  (276) 
118.415

>  <b_lp_Chiralities_Consistent>  (276) 
1

>  <s_lp_Variant>  (276) 
94:0-1

>  <s_i_glide_gridfile>  (276) 
pfpi4k_grid

>  <i_i_glide_lignum>  (276) 
9

>  <i_i_glide_rotatable_bonds>  (276) 
0

>  <r_i_docking_score>  (276) 
-3.0785

>  <r_i_glide_ligand_efficiency>  (276) 
-0.153925

>  <r_i_glide_ligand_efficiency_sa>  (276) 
-0.417816

>  <r_i_glide_ligand_efficiency_ln>  (276) 
-0.770446

>  <r_i_glide_gscore>  (276) 
-3.0785

>  <r_i_glide_lipo>  (276) 
-0.339532

>  <r_i_glide_hbond>  (276) 
0

>  <r_i_glide_metal>  (276) 
-0

>  <r_i_glide_rewards>  (276) 
-1.5379

>  <r_i_glide_evdw>  (276) 
-21.2879

>  <r_i_glide_ecoul>  (276) 
-0.911127

>  <r_i_glide_erotb>  (276) 
0

>  <r_i_glide_esite>  (276) 
0

>  <r_i_glide_emodel>  (276) 
-27.0022

>  <r_i_glide_energy>  (276) 
-22.199

>  <r_i_glide_einternal>  (276) 
0

>  <r_i_glide_intrahb_reward>  (276) 
-0

>  <i_i_glide_confnum>  (276) 
1

>  <i_i_glide_posenum>  (276) 
2

>  <r_i_glide_eff_state_penalty>  (276) 
0

>  <ligand_id>  (276) 
94

>  <original_smiles>  (276) 
CC1=CC2C3OC(C)(CCC4C(C)CCC(C3C)C24)C1

>  <smiles>  (276) 
[H]C1=C(C([H])([H])[H])C([H])([H])C2(C([H])([H])[H])OC3([H])C1([H])C1([H])C([H])(C([H])([H])C2([H])[H])C([H])(C([H])([H])[H])C([H])([H])C([H])([H])C1([H])C3([H])C([H])([H])[H]

$$$$
95:0:0
     RDKit          3D

 62 65  0  0  1  0  0  0  0  0999 V2000
    1.9124   -0.0877   -4.9839 C   0  0  0  0  0  0  0  0  0  0  0  0
    3.0116   -0.7718   -4.2140 C   0  0  0  0  0  0  0  0  0  0  0  0
    4.1679    0.1622   -3.9889 C   0  0  0  0  0  0  0  0  0  0  0  0
    2.9570   -2.0587   -3.8001 C   0  0  0  0  0  0  0  0  0  0  0  0
    4.0131   -2.8394   -3.0026 C   0  0  0  0  0  0  0  0  0  0  0  0
    3.6719   -3.1118   -1.4895 C   0  0  1  0  0  0  0  0  0  0  0  0
    2.2770   -3.3725   -1.4786 O   0  0  0  0  0  0  0  0  0  0  0  0
    4.5492   -4.2643   -0.8441 C   0  0  2  0  0  0  0  0  0  0  0  0
    3.9895   -4.9467    0.4818 C   0  0  0  0  0  0  0  0  0  0  0  0
    2.4626   -5.2683    0.5132 C   0  0  0  0  0  0  0  0  0  0  0  0
    4.5163   -6.4092    0.4440 C   0  0  0  0  0  0  0  0  0  0  0  0
    4.3401   -4.1332    1.8141 C   0  0  1  0  0  0  0  0  0  0  0  0
    5.6454   -4.5657    2.5534 C   0  0  1  0  0  0  0  0  0  0  0  0
    5.4448   -5.6289    3.6507 C   0  0  0  0  0  0  0  0  0  0  0  0
    6.8696   -4.8888    1.6721 C   0  0  0  0  0  0  0  0  0  0  0  0
    7.0645   -4.2226    0.2867 C   0  0  0  0  0  0  0  0  0  0  0  0
    5.9220   -3.5498   -0.5481 C   0  0  1  0  0  0  0  0  0  0  0  0
    6.6117   -3.4044   -1.7813 O   0  0  0  0  0  0  0  0  0  0  0  0
    5.5287   -2.1037   -0.1601 C   0  0  2  0  0  0  0  0  0  0  0  0
    5.5503   -1.8790    1.3480 C   0  0  1  0  0  0  0  0  0  0  0  0
    5.5867   -0.4857    1.6143 O   0  0  0  0  0  0  0  0  0  0  0  0
    4.2285   -2.5406    1.8201 C   0  0  2  0  0  0  0  0  0  0  0  0
    3.7959   -2.0550    3.2259 C   0  0  0  0  0  0  0  0  0  0  0  0
    3.2573   -1.9568    0.7887 C   0  0  0  0  0  0  0  0  0  0  0  0
    4.0323   -1.9702   -0.5328 C   0  0  2  0  0  0  0  0  0  0  0  0
    3.8613   -0.7476   -1.1432 O   0  0  0  0  0  0  0  0  0  0  0  0
    1.5411    0.7851   -4.4522 H   0  0  0  0  0  0  0  0  0  0  0  0
    1.0630   -0.7612   -5.1331 H   0  0  0  0  0  0  0  0  0  0  0  0
    2.2929    0.2413   -5.9316 H   0  0  0  0  0  0  0  0  0  0  0  0
    3.8155    1.0592   -3.4826 H   0  0  0  0  0  0  0  0  0  0  0  0
    4.5246    0.4580   -4.9670 H   0  0  0  0  0  0  0  0  0  0  0  0
    4.9560   -0.2642   -3.3726 H   0  0  0  0  0  0  0  0  0  0  0  0
    2.0674   -2.6295   -4.0380 H   0  0  0  0  0  0  0  0  0  0  0  0
    4.1020   -3.7976   -3.5323 H   0  0  0  0  0  0  0  0  0  0  0  0
    4.9588   -2.3497   -3.1302 H   0  0  0  0  0  0  0  0  0  0  0  0
    1.8218   -2.5438   -1.5397 H   0  0  0  0  0  0  0  0  0  0  0  0
    4.6849   -5.0497   -1.5879 H   0  0  0  0  0  0  0  0  0  0  0  0
    2.2130   -5.9859    1.2965 H   0  0  0  0  0  0  0  0  0  0  0  0
    2.1206   -5.7035   -0.4258 H   0  0  0  0  0  0  0  0  0  0  0  0
    1.8348   -4.4101    0.7165 H   0  0  0  0  0  0  0  0  0  0  0  0
    4.3433   -6.9508    1.3713 H   0  0  0  0  0  0  0  0  0  0  0  0
    5.5581   -6.4967    0.1603 H   0  0  0  0  0  0  0  0  0  0  0  0
    4.0090   -6.9863   -0.3266 H   0  0  0  0  0  0  0  0  0  0  0  0
    3.5490   -4.4372    2.5015 H   0  0  0  0  0  0  0  0  0  0  0  0
    5.9381   -3.7228    3.1679 H   0  0  0  0  0  0  0  0  0  0  0  0
    5.2183   -6.6178    3.2610 H   0  0  0  0  0  0  0  0  0  0  0  0
    4.6452   -5.3479    4.3375 H   0  0  0  0  0  0  0  0  0  0  0  0
    6.3516   -5.7306    4.2483 H   0  0  0  0  0  0  0  0  0  0  0  0
    7.7674   -4.6723    2.2427 H   0  0  0  0  0  0  0  0  0  0  0  0
    6.9534   -5.9676    1.5664 H   0  0  0  0  0  0  0  0  0  0  0  0
    7.8561   -3.4788    0.3896 H   0  0  0  0  0  0  0  0  0  0  0  0
    7.5372   -4.9891   -0.3226 H   0  0  0  0  0  0  0  0  0  0  0  0
    5.9983   -3.3406   -2.4831 H   0  0  0  0  0  0  0  0  0  0  0  0
    6.1562   -1.3771   -0.6735 H   0  0  0  0  0  0  0  0  0  0  0  0
    6.4628   -2.2356    1.8082 H   0  0  0  0  0  0  0  0  0  0  0  0
    6.4666   -0.1751    1.4831 H   0  0  0  0  0  0  0  0  0  0  0  0
    3.6603   -0.9721    3.2584 H   0  0  0  0  0  0  0  0  0  0  0  0
    4.5222   -2.3019    3.9988 H   0  0  0  0  0  0  0  0  0  0  0  0
    2.8394   -2.4934    3.5126 H   0  0  0  0  0  0  0  0  0  0  0  0
    2.2726   -2.4035    0.7794 H   0  0  0  0  0  0  0  0  0  0  0  0
    3.0462   -0.9212    1.0550 H   0  0  0  0  0  0  0  0  0  0  0  0
    2.9291   -0.6467   -1.3237 H   0  0  0  0  0  0  0  0  0  0  0  0
  1  2  1  0
  1 27  1  0
  1 28  1  0
  1 29  1  0
  2  3  1  0
  2  4  2  3
  3 30  1  0
  3 31  1  0
  3 32  1  0
  4  5  1  0
  4 33  1  0
  5  6  1  0
  5 34  1  0
  5 35  1  0
  6 25  1  0
  6  7  1  6
  6  8  1  0
  7 36  1  0
  8 17  1  0
  8  9  1  0
  8 37  1  6
  9 10  1  0
  9 11  1  0
  9 12  1  0
 10 38  1  0
 10 39  1  0
 10 40  1  0
 11 41  1  0
 11 42  1  0
 11 43  1  0
 12 22  1  0
 12 13  1  0
 12 44  1  1
 13 14  1  0
 13 15  1  0
 13 45  1  1
 14 46  1  0
 14 47  1  0
 14 48  1  0
 15 16  1  0
 15 49  1  0
 15 50  1  0
 16 17  1  0
 16 51  1  0
 16 52  1  0
 17 18  1  6
 17 19  1  0
 18 53  1  0
 19 25  1  0
 19 20  1  0
 19 54  1  6
 20 21  1  0
 20 22  1  0
 20 55  1  1
 21 56  1  0
 22 23  1  1
 22 24  1  0
 23 57  1  0
 23 58  1  0
 23 59  1  0
 24 25  1  0
 24 60  1  0
 24 61  1  0
 25 26  1  6
 26 62  1  0
M  END
>  <i_m_ct_stereo_status>  (277) 
1

>  <s_m_source_file>  (277) 
/var/tmp/pbs.5076255.sched01/tmpvuzdko10/1206lwnzxed.sdf

>  <i_m_source_file_index>  (277) 
10

>  <i_lp_mmshare_version>  (277) 
48012

>  <i_f3d_flags>  (277) 
0

>  <s_epik_input>  (277) 
W0NIM11DKFtDSDNdKT1bQ0hdW0NIMl1bQ0BAXShbT0hdKShbQ0BIXTFbQ0BdMjNbT0hdKVtDQF00KFtPSF0pW0NASF0zW0NAQEhdKFtPSF0pW0NAQF0oW0NIM10pKFtDSDJdNClbQ0BASF0oQzEoW0NIM10pW0NIM10pW0NAQEhdKFtDSDNdKVtDSDJdW0NIMl0y

>  <s_epik_cmdline>  (277) 
J2VwaWtfcHl0aG9uJywgJy1waHQnLCAnMi4wJywgJy1waCcsICc3LjAnLCAnLXRuJywgJzgnLCAnLW1hJywgJzIwMCcsICctaW1hZScsICc8aW5maWxlLm1hZT4nLCAnLW9tYWUnLCAnPG91dGZpbGUubWFlPic=

>  <r_lp_tautomer_probability>  (277) 
1

>  <r_epik_Ionization_Penalty>  (277) 
8.13947e-06

>  <r_epik_Ionization_Penalty_Charging>  (277) 
0

>  <r_epik_Ionization_Penalty_Neutral>  (277) 
8.13947e-06

>  <r_epik_State_Penalty>  (277) 
-0

>  <r_epik_Charging_Adjusted_Penalty>  (277) 
0

>  <i_epik_Tot_Q>  (277) 
0

>  <i_epik_Tot_abs_Q>  (277) 
0

>  <s_lp_Force_Field>  (277) 
OPLS3e

>  <r_lp_Energy>  (277) 
84.911

>  <b_lp_Chiralities_Consistent>  (277) 
1

>  <s_lp_Variant>  (277) 
95:0-1

>  <s_i_glide_gridfile>  (277) 
pfpi4k_grid

>  <i_i_glide_lignum>  (277) 
10

>  <i_i_glide_rotatable_bonds>  (277) 
6

>  <r_i_docking_score>  (277) 
-3.20229

>  <r_i_glide_ligand_efficiency>  (277) 
-0.123165

>  <r_i_glide_ligand_efficiency_sa>  (277) 
-0.364875

>  <r_i_glide_ligand_efficiency_ln>  (277) 
-0.752046

>  <r_i_glide_gscore>  (277) 
-3.20229

>  <r_i_glide_lipo>  (277) 
-1.11104

>  <r_i_glide_hbond>  (277) 
0

>  <r_i_glide_metal>  (277) 
-0

>  <r_i_glide_rewards>  (277) 
-0.923735

>  <r_i_glide_evdw>  (277) 
-16.3043

>  <r_i_glide_ecoul>  (277) 
-4.27787

>  <r_i_glide_erotb>  (277) 
0.289383

>  <r_i_glide_esite>  (277) 
0

>  <r_i_glide_emodel>  (277) 
-21.0173

>  <r_i_glide_energy>  (277) 
-20.5821

>  <r_i_glide_einternal>  (277) 
4.95071

>  <r_i_glide_intrahb_reward>  (277) 
-0

>  <i_i_glide_confnum>  (277) 
2

>  <i_i_glide_posenum>  (277) 
5

>  <r_i_glide_eff_state_penalty>  (277) 
0

>  <ligand_id>  (277) 
95

>  <original_smiles>  (277) 
CC(C)=CCC1(O)C2C(C)(C)C3C(C)CCC2(O)C2C(O)C3(C)CC21O

>  <smiles>  (277) 
[H]OC1([H])C2([H])C3(O[H])C([H])([H])C([H])([H])C([H])(C([H])([H])[H])C4([H])C1(C([H])([H])[H])C([H])([H])C2(O[H])C(O[H])(C([H])([H])C([H])=C(C([H])([H])[H])C([H])([H])[H])C3([H])C4(C([H])([H])[H])C([H])([H])[H]

$$$$
95:0:1
     RDKit          3D

 62 65  0  0  1  0  0  0  0  0999 V2000
    1.9282   -0.1414   -4.9866 C   0  0  0  0  0  0  0  0  0  0  0  0
    3.0304   -0.8441   -4.2382 C   0  0  0  0  0  0  0  0  0  0  0  0
    4.2118    0.0689   -4.0458 C   0  0  0  0  0  0  0  0  0  0  0  0
    2.9413   -2.1288   -3.8059 C   0  0  0  0  0  0  0  0  0  0  0  0
    3.9872   -2.9207   -3.0213 C   0  0  0  0  0  0  0  0  0  0  0  0
    3.6962   -3.1278   -1.4810 C   0  0  1  0  0  0  0  0  0  0  0  0
    2.3087   -3.4064   -1.4333 O   0  0  0  0  0  0  0  0  0  0  0  0
    4.5943   -4.2437   -0.8116 C   0  0  2  0  0  0  0  0  0  0  0  0
    4.0885   -4.8688    0.5612 C   0  0  0  0  0  0  0  0  0  0  0  0
    2.5719   -5.2077    0.6412 C   0  0  0  0  0  0  0  0  0  0  0  0
    4.6370   -6.3229    0.5741 C   0  0  0  0  0  0  0  0  0  0  0  0
    4.4679   -3.9880    1.8443 C   0  0  1  0  0  0  0  0  0  0  0  0
    5.8034   -4.3601    2.5643 C   0  0  1  0  0  0  0  0  0  0  0  0
    5.6441   -5.3668    3.7189 C   0  0  0  0  0  0  0  0  0  0  0  0
    6.9988   -4.7251    1.6620 C   0  0  0  0  0  0  0  0  0  0  0  0
    7.1472   -4.1130    0.2649 C   0  0  0  0  0  0  0  0  0  0  0  0
    5.9677   -3.5119   -0.5835 C   0  0  1  0  0  0  0  0  0  0  0  0
    6.6035   -3.4547   -1.8508 O   0  0  0  0  0  0  0  0  0  0  0  0
    5.5711   -2.0530   -0.2504 C   0  0  2  0  0  0  0  0  0  0  0  0
    5.6364   -1.7377    1.2389 C   0  0  1  0  0  0  0  0  0  0  0  0
    5.6472   -0.3344    1.4242 O   0  0  0  0  0  0  0  0  0  0  0  0
    4.3376   -2.3991    1.7792 C   0  0  2  0  0  0  0  0  0  0  0  0
    3.9361   -1.8422    3.1669 C   0  0  0  0  0  0  0  0  0  0  0  0
    3.3243   -1.8892    0.7574 C   0  0  0  0  0  0  0  0  0  0  0  0
    4.0609   -1.9419   -0.5794 C   0  0  2  0  0  0  0  0  0  0  0  0
    3.8098   -0.7293   -1.1800 O   0  0  0  0  0  0  0  0  0  0  0  0
    1.5931    0.7417   -4.4460 H   0  0  0  0  0  0  0  0  0  0  0  0
    1.0696   -0.7969   -5.1244 H   0  0  0  0  0  0  0  0  0  0  0  0
    2.3160    0.1891   -5.9376 H   0  0  0  0  0  0  0  0  0  0  0  0
    3.8735    0.9543   -3.5121 H   0  0  0  0  0  0  0  0  0  0  0  0
    4.5838    0.3742   -5.0226 H   0  0  0  0  0  0  0  0  0  0  0  0
    5.0077   -0.3782   -3.4614 H   0  0  0  0  0  0  0  0  0  0  0  0
    2.0417   -2.6878   -4.0333 H   0  0  0  0  0  0  0  0  0  0  0  0
    4.0187   -3.8936   -3.5178 H   0  0  0  0  0  0  0  0  0  0  0  0
    4.9513   -2.4642   -3.2186 H   0  0  0  0  0  0  0  0  0  0  0  0
    1.8380   -2.5933   -1.5631 H   0  0  0  0  0  0  0  0  0  0  0  0
    4.7167   -5.0578   -1.5358 H   0  0  0  0  0  0  0  0  0  0  0  0
    2.3569   -5.8857    1.4678 H   0  0  0  0  0  0  0  0  0  0  0  0
    2.2236   -5.6914   -0.2742 H   0  0  0  0  0  0  0  0  0  0  0  0
    1.9417   -4.3471    0.8193 H   0  0  0  0  0  0  0  0  0  0  0  0
    4.4987   -6.8109    1.5346 H   0  0  0  0  0  0  0  0  0  0  0  0
    5.6710   -6.4073    0.2675 H   0  0  0  0  0  0  0  0  0  0  0  0
    4.1147   -6.9431   -0.1539 H   0  0  0  0  0  0  0  0  0  0  0  0
    3.6960   -4.2612    2.5626 H   0  0  0  0  0  0  0  0  0  0  0  0
    6.0939   -3.4774    3.1142 H   0  0  0  0  0  0  0  0  0  0  0  0
    5.4216   -6.3775    3.3849 H   0  0  0  0  0  0  0  0  0  0  0  0
    4.8597   -5.0615    4.4145 H   0  0  0  0  0  0  0  0  0  0  0  0
    6.5702   -5.4257    4.2910 H   0  0  0  0  0  0  0  0  0  0  0  0
    7.9549   -4.5091    2.1184 H   0  0  0  0  0  0  0  0  0  0  0  0
    7.0684   -5.8045    1.6076 H   0  0  0  0  0  0  0  0  0  0  0  0
    7.9234   -3.3461    0.3010 H   0  0  0  0  0  0  0  0  0  0  0  0
    7.6346   -4.9270   -0.2496 H   0  0  0  0  0  0  0  0  0  0  0  0
    6.5709   -4.2676   -2.2691 H   0  0  0  0  0  0  0  0  0  0  0  0
    6.1692   -1.3468   -0.8321 H   0  0  0  0  0  0  0  0  0  0  0  0
    6.5729   -2.0540    1.6919 H   0  0  0  0  0  0  0  0  0  0  0  0
    6.5238   -0.0131    1.2798 H   0  0  0  0  0  0  0  0  0  0  0  0
    3.7856   -0.7610    3.1432 H   0  0  0  0  0  0  0  0  0  0  0  0
    4.6885   -2.0395    3.9297 H   0  0  0  0  0  0  0  0  0  0  0  0
    2.9927   -2.2777    3.4977 H   0  0  0  0  0  0  0  0  0  0  0  0
    2.3448   -2.3434    0.7902 H   0  0  0  0  0  0  0  0  0  0  0  0
    3.1030   -0.8464    0.9884 H   0  0  0  0  0  0  0  0  0  0  0  0
    2.8894   -0.6968   -1.4098 H   0  0  0  0  0  0  0  0  0  0  0  0
  1  2  1  0
  1 27  1  0
  1 28  1  0
  1 29  1  0
  2  3  1  0
  2  4  2  3
  3 30  1  0
  3 31  1  0
  3 32  1  0
  4  5  1  0
  4 33  1  0
  5  6  1  0
  5 34  1  0
  5 35  1  0
  6 25  1  0
  6  7  1  6
  6  8  1  0
  7 36  1  0
  8 17  1  0
  8  9  1  0
  8 37  1  6
  9 10  1  0
  9 11  1  0
  9 12  1  0
 10 38  1  0
 10 39  1  0
 10 40  1  0
 11 41  1  0
 11 42  1  0
 11 43  1  0
 12 22  1  0
 12 13  1  0
 12 44  1  1
 13 14  1  0
 13 15  1  0
 13 45  1  1
 14 46  1  0
 14 47  1  0
 14 48  1  0
 15 16  1  0
 15 49  1  0
 15 50  1  0
 16 17  1  0
 16 51  1  0
 16 52  1  0
 17 18  1  6
 17 19  1  0
 18 53  1  0
 19 25  1  0
 19 20  1  0
 19 54  1  6
 20 21  1  0
 20 22  1  0
 20 55  1  1
 21 56  1  0
 22 23  1  1
 22 24  1  0
 23 57  1  0
 23 58  1  0
 23 59  1  0
 24 25  1  0
 24 60  1  0
 24 61  1  0
 25 26  1  6
 26 62  1  0
M  END
>  <i_m_ct_stereo_status>  (278) 
1

>  <s_m_source_file>  (278) 
/var/tmp/pbs.5076255.sched01/tmpvuzdko10/1206lwnzxed.sdf

>  <i_m_source_file_index>  (278) 
10

>  <i_lp_mmshare_version>  (278) 
48012

>  <i_f3d_flags>  (278) 
0

>  <s_epik_input>  (278) 
W0NIM11DKFtDSDNdKT1bQ0hdW0NIMl1bQ0BAXShbT0hdKShbQ0BIXTFbQ0BdMjNbT0hdKVtDQF00KFtPSF0pW0NASF0zW0NAQEhdKFtPSF0pW0NAQF0oW0NIM10pKFtDSDJdNClbQ0BASF0oQzEoW0NIM10pW0NIM10pW0NAQEhdKFtDSDNdKVtDSDJdW0NIMl0y

>  <s_epik_cmdline>  (278) 
J2VwaWtfcHl0aG9uJywgJy1waHQnLCAnMi4wJywgJy1waCcsICc3LjAnLCAnLXRuJywgJzgnLCAnLW1hJywgJzIwMCcsICctaW1hZScsICc8aW5maWxlLm1hZT4nLCAnLW9tYWUnLCAnPG91dGZpbGUubWFlPic=

>  <r_lp_tautomer_probability>  (278) 
1

>  <r_epik_Ionization_Penalty>  (278) 
8.13947e-06

>  <r_epik_Ionization_Penalty_Charging>  (278) 
0

>  <r_epik_Ionization_Penalty_Neutral>  (278) 
8.13947e-06

>  <r_epik_State_Penalty>  (278) 
-0

>  <r_epik_Charging_Adjusted_Penalty>  (278) 
0

>  <i_epik_Tot_Q>  (278) 
0

>  <i_epik_Tot_abs_Q>  (278) 
0

>  <s_lp_Force_Field>  (278) 
OPLS3e

>  <r_lp_Energy>  (278) 
84.911

>  <b_lp_Chiralities_Consistent>  (278) 
1

>  <s_lp_Variant>  (278) 
95:0-1

>  <s_i_glide_gridfile>  (278) 
pfpi4k_grid

>  <i_i_glide_lignum>  (278) 
10

>  <i_i_glide_rotatable_bonds>  (278) 
6

>  <r_i_docking_score>  (278) 
-3.17391

>  <r_i_glide_ligand_efficiency>  (278) 
-0.122073

>  <r_i_glide_ligand_efficiency_sa>  (278) 
-0.361642

>  <r_i_glide_ligand_efficiency_ln>  (278) 
-0.745382

>  <r_i_glide_gscore>  (278) 
-3.17391

>  <r_i_glide_lipo>  (278) 
-1.14951

>  <r_i_glide_hbond>  (278) 
0

>  <r_i_glide_metal>  (278) 
-0

>  <r_i_glide_rewards>  (278) 
-0.923735

>  <r_i_glide_evdw>  (278) 
-15.506

>  <r_i_glide_ecoul>  (278) 
-4.09831

>  <r_i_glide_erotb>  (278) 
0.289383

>  <r_i_glide_esite>  (278) 
0

>  <r_i_glide_emodel>  (278) 
-19.721

>  <r_i_glide_energy>  (278) 
-19.6044

>  <r_i_glide_einternal>  (278) 
5.06512

>  <r_i_glide_intrahb_reward>  (278) 
-0

>  <i_i_glide_confnum>  (278) 
2

>  <i_i_glide_posenum>  (278) 
2

>  <r_i_glide_eff_state_penalty>  (278) 
0

>  <ligand_id>  (278) 
95

>  <original_smiles>  (278) 
CC(C)=CCC1(O)C2C(C)(C)C3C(C)CCC2(O)C2C(O)C3(C)CC21O

>  <smiles>  (278) 
[H]OC1([H])C2([H])C3(O[H])C([H])([H])C([H])([H])C([H])(C([H])([H])[H])C4([H])C1(C([H])([H])[H])C([H])([H])C2(O[H])C(O[H])(C([H])([H])C([H])=C(C([H])([H])[H])C([H])([H])[H])C3([H])C4(C([H])([H])[H])C([H])([H])[H]

$$$$
95:0:2
     RDKit          3D

 62 65  0  0  1  0  0  0  0  0999 V2000
    1.9165    0.6589   -4.5511 C   0  0  0  0  0  0  0  0  0  0  0  0
    3.0315   -0.2759   -4.1536 C   0  0  0  0  0  0  0  0  0  0  0  0
    3.9257   -0.5035   -5.3080 C   0  0  0  0  0  0  0  0  0  0  0  0
    3.2433   -0.8362   -2.9469 C   0  0  0  0  0  0  0  0  0  0  0  0
    4.3827   -1.7765   -2.5130 C   0  0  0  0  0  0  0  0  0  0  0  0
    4.1460   -2.5250   -1.1413 C   0  0  1  0  0  0  0  0  0  0  0  0
    2.8471   -3.0493   -1.2767 O   0  0  0  0  0  0  0  0  0  0  0  0
    5.1600   -3.6700   -0.7906 C   0  0  2  0  0  0  0  0  0  0  0  0
    4.6681   -4.7444    0.3031 C   0  0  0  0  0  0  0  0  0  0  0  0
    3.2005   -5.2587    0.3249 C   0  0  0  0  0  0  0  0  0  0  0  0
    5.3778   -6.0512   -0.0871 C   0  0  0  0  0  0  0  0  0  0  0  0
    4.9680   -4.3162    1.7879 C   0  0  1  0  0  0  0  0  0  0  0  0
    6.3206   -4.8152    2.3585 C   0  0  1  0  0  0  0  0  0  0  0  0
    6.3092   -6.1484    3.1195 C   0  0  0  0  0  0  0  0  0  0  0  0
    7.6040   -4.6369    1.4944 C   0  0  0  0  0  0  0  0  0  0  0  0
    7.6725   -3.5853    0.3500 C   0  0  0  0  0  0  0  0  0  0  0  0
    6.4293   -2.8705   -0.2946 C   0  0  1  0  0  0  0  0  0  0  0  0
    7.0740   -2.3104   -1.4403 O   0  0  0  0  0  0  0  0  0  0  0  0
    5.8367   -1.6685    0.4962 C   0  0  2  0  0  0  0  0  0  0  0  0
    5.7977   -1.8683    1.9975 C   0  0  1  0  0  0  0  0  0  0  0  0
    5.6207   -0.6254    2.6583 O   0  0  0  0  0  0  0  0  0  0  0  0
    4.6230   -2.8332    2.2392 C   0  0  2  0  0  0  0  0  0  0  0  0
    4.1490   -2.8307    3.7066 C   0  0  0  0  0  0  0  0  0  0  0  0
    3.5681   -2.1473    1.3951 C   0  0  0  0  0  0  0  0  0  0  0  0
    4.3188   -1.6281    0.1456 C   0  0  2  0  0  0  0  0  0  0  0  0
    3.9608   -0.2946    0.0874 O   0  0  0  0  0  0  0  0  0  0  0  0
    2.3663    1.5631   -4.9408 H   0  0  0  0  0  0  0  0  0  0  0  0
    1.2567    0.9435   -3.7626 H   0  0  0  0  0  0  0  0  0  0  0  0
    1.2657    0.2162   -5.2804 H   0  0  0  0  0  0  0  0  0  0  0  0
    4.1623    0.4695   -5.7264 H   0  0  0  0  0  0  0  0  0  0  0  0
    3.4215   -1.0452   -6.1038 H   0  0  0  0  0  0  0  0  0  0  0  0
    4.8293   -1.0078   -4.9934 H   0  0  0  0  0  0  0  0  0  0  0  0
    2.5572   -0.5957   -2.1724 H   0  0  0  0  0  0  0  0  0  0  0  0
    4.5336   -2.5212   -3.2907 H   0  0  0  0  0  0  0  0  0  0  0  0
    5.2762   -1.1441   -2.4849 H   0  0  0  0  0  0  0  0  0  0  0  0
    2.8146   -3.6164   -2.0297 H   0  0  0  0  0  0  0  0  0  0  0  0
    5.3988   -4.1851   -1.7242 H   0  0  0  0  0  0  0  0  0  0  0  0
    3.1339   -6.2164    0.8425 H   0  0  0  0  0  0  0  0  0  0  0  0
    2.8479   -5.4309   -0.6536 H   0  0  0  0  0  0  0  0  0  0  0  0
    2.4912   -4.5920    0.8016 H   0  0  0  0  0  0  0  0  0  0  0  0
    5.2511   -6.8693    0.6228 H   0  0  0  0  0  0  0  0  0  0  0  0
    6.4322   -5.9009   -0.2670 H   0  0  0  0  0  0  0  0  0  0  0  0
    4.9812   -6.3809   -1.0396 H   0  0  0  0  0  0  0  0  0  0  0  0
    4.2634   -4.9097    2.3645 H   0  0  0  0  0  0  0  0  0  0  0  0
    6.3497   -4.2259    3.2444 H   0  0  0  0  0  0  0  0  0  0  0  0
    6.2383   -7.0295    2.4867 H   0  0  0  0  0  0  0  0  0  0  0  0
    5.4947   -6.1632    3.8488 H   0  0  0  0  0  0  0  0  0  0  0  0
    7.2325   -6.2307    3.6954 H   0  0  0  0  0  0  0  0  0  0  0  0
    8.4735   -4.4669    2.1166 H   0  0  0  0  0  0  0  0  0  0  0  0
    7.8952   -5.6074    1.1017 H   0  0  0  0  0  0  0  0  0  0  0  0
    8.3446   -2.7931    0.6855 H   0  0  0  0  0  0  0  0  0  0  0  0
    8.2394   -4.0760   -0.4443 H   0  0  0  0  0  0  0  0  0  0  0  0
    7.4548   -3.0188   -1.9392 H   0  0  0  0  0  0  0  0  0  0  0  0
    6.3417   -0.7386    0.2210 H   0  0  0  0  0  0  0  0  0  0  0  0
    6.7209   -2.2541    2.3465 H   0  0  0  0  0  0  0  0  0  0  0  0
    4.8162   -0.2345    2.3543 H   0  0  0  0  0  0  0  0  0  0  0  0
    3.8560   -1.8365    4.0457 H   0  0  0  0  0  0  0  0  0  0  0  0
    4.9204   -3.1751    4.3956 H   0  0  0  0  0  0  0  0  0  0  0  0
    3.2750   -3.4728    3.8349 H   0  0  0  0  0  0  0  0  0  0  0  0
    2.6527   -2.6667    1.1886 H   0  0  0  0  0  0  0  0  0  0  0  0
    3.1918   -1.2922    1.9445 H   0  0  0  0  0  0  0  0  0  0  0  0
    3.0744   -0.3208   -0.2674 H   0  0  0  0  0  0  0  0  0  0  0  0
  1  2  1  0
  1 27  1  0
  1 28  1  0
  1 29  1  0
  2  3  1  0
  2  4  2  3
  3 30  1  0
  3 31  1  0
  3 32  1  0
  4  5  1  0
  4 33  1  0
  5  6  1  0
  5 34  1  0
  5 35  1  0
  6 25  1  0
  6  7  1  6
  6  8  1  0
  7 36  1  0
  8 17  1  0
  8  9  1  0
  8 37  1  6
  9 10  1  0
  9 11  1  0
  9 12  1  0
 10 38  1  0
 10 39  1  0
 10 40  1  0
 11 41  1  0
 11 42  1  0
 11 43  1  0
 12 22  1  0
 12 13  1  0
 12 44  1  1
 13 14  1  0
 13 15  1  0
 13 45  1  1
 14 46  1  0
 14 47  1  0
 14 48  1  0
 15 16  1  0
 15 49  1  0
 15 50  1  0
 16 17  1  0
 16 51  1  0
 16 52  1  0
 17 18  1  6
 17 19  1  0
 18 53  1  0
 19 25  1  0
 19 20  1  0
 19 54  1  1
 20 21  1  0
 20 22  1  0
 20 55  1  1
 21 56  1  0
 22 23  1  1
 22 24  1  0
 23 57  1  0
 23 58  1  0
 23 59  1  0
 24 25  1  0
 24 60  1  0
 24 61  1  0
 25 26  1  6
 26 62  1  0
M  END
>  <i_m_ct_stereo_status>  (279) 
1

>  <s_m_source_file>  (279) 
/var/tmp/pbs.5076255.sched01/tmpvuzdko10/1206lwnzxed.sdf

>  <i_m_source_file_index>  (279) 
10

>  <i_lp_mmshare_version>  (279) 
48012

>  <i_f3d_flags>  (279) 
0

>  <s_epik_input>  (279) 
W0NIM11DKFtDSDNdKT1bQ0hdW0NIMl1bQ0BAXShbT0hdKShbQ0BIXTFbQ0BdMjNbT0hdKVtDQF00KFtPSF0pW0NASF0zW0NAQEhdKFtPSF0pW0NAQF0oW0NIM10pKFtDSDJdNClbQ0BASF0oQzEoW0NIM10pW0NIM10pW0NAQEhdKFtDSDNdKVtDSDJdW0NIMl0y

>  <s_epik_cmdline>  (279) 
J2VwaWtfcHl0aG9uJywgJy1waHQnLCAnMi4wJywgJy1waCcsICc3LjAnLCAnLXRuJywgJzgnLCAnLW1hJywgJzIwMCcsICctaW1hZScsICc8aW5maWxlLm1hZT4nLCAnLW9tYWUnLCAnPG91dGZpbGUubWFlPic=

>  <r_lp_tautomer_probability>  (279) 
1

>  <r_epik_Ionization_Penalty>  (279) 
8.13947e-06

>  <r_epik_Ionization_Penalty_Charging>  (279) 
0

>  <r_epik_Ionization_Penalty_Neutral>  (279) 
8.13947e-06

>  <r_epik_State_Penalty>  (279) 
-0

>  <r_epik_Charging_Adjusted_Penalty>  (279) 
0

>  <i_epik_Tot_Q>  (279) 
0

>  <i_epik_Tot_abs_Q>  (279) 
0

>  <s_lp_Force_Field>  (279) 
OPLS3e

>  <r_lp_Energy>  (279) 
84.911

>  <b_lp_Chiralities_Consistent>  (279) 
1

>  <s_lp_Variant>  (279) 
95:0-1

>  <s_i_glide_gridfile>  (279) 
pfpi4k_grid

>  <i_i_glide_lignum>  (279) 
10

>  <i_i_glide_rotatable_bonds>  (279) 
6

>  <r_i_docking_score>  (279) 
-2.96443

>  <r_i_glide_ligand_efficiency>  (279) 
-0.114016

>  <r_i_glide_ligand_efficiency_sa>  (279) 
-0.337773

>  <r_i_glide_ligand_efficiency_ln>  (279) 
-0.696186

>  <r_i_glide_gscore>  (279) 
-2.96443

>  <r_i_glide_lipo>  (279) 
-1.07161

>  <r_i_glide_hbond>  (279) 
-0.16

>  <r_i_glide_metal>  (279) 
-0

>  <r_i_glide_rewards>  (279) 
-0.965402

>  <r_i_glide_evdw>  (279) 
-7.57514

>  <r_i_glide_ecoul>  (279) 
-4.52027

>  <r_i_glide_erotb>  (279) 
0.289383

>  <r_i_glide_esite>  (279) 
0

>  <r_i_glide_emodel>  (279) 
-10.7668

>  <r_i_glide_energy>  (279) 
-12.0954

>  <r_i_glide_einternal>  (279) 
5.14554

>  <r_i_glide_intrahb_reward>  (279) 
-0

>  <i_i_glide_confnum>  (279) 
4

>  <i_i_glide_posenum>  (279) 
27

>  <r_i_glide_eff_state_penalty>  (279) 
0

>  <ligand_id>  (279) 
95

>  <original_smiles>  (279) 
CC(C)=CCC1(O)C2C(C)(C)C3C(C)CCC2(O)C2C(O)C3(C)CC21O

>  <smiles>  (279) 
[H]OC1([H])C2([H])C3(O[H])C([H])([H])C([H])([H])C([H])(C([H])([H])[H])C4([H])C1(C([H])([H])[H])C([H])([H])C2(O[H])C(O[H])(C([H])([H])C([H])=C(C([H])([H])[H])C([H])([H])[H])C3([H])C4(C([H])([H])[H])C([H])([H])[H]

$$$$
96:0:0
     RDKit          3D

 58 63  0  0  1  0  0  0  0  0999 V2000
    7.0065   -3.4415    1.2472 C   0  0  0  0  0  0  0  0  0  0  0  0
    5.6121   -4.0985    1.1578 C   0  0  1  0  0  0  0  0  0  0  0  0
    5.8128   -5.4162    0.3774 C   0  0  0  0  0  0  0  0  0  0  0  0
    4.6982   -6.4674    0.5242 C   0  0  0  0  0  0  0  0  0  0  0  0
    4.4349   -6.7674    2.0157 C   0  0  1  0  0  0  0  0  0  0  0  0
    3.9355   -5.4553    2.6636 C   0  0  2  0  0  0  0  0  0  0  0  0
    2.5206   -5.1074    2.1119 C   0  0  0  0  0  0  0  0  0  0  0  0
    1.5867   -6.3053    2.1226 C   0  0  0  0  0  0  0  0  0  0  0  0
    0.2632   -6.0675    2.1586 F   0  0  0  0  0  0  0  0  0  0  0  0
    1.9990   -7.5809    2.2325 C   0  0  0  0  0  0  0  0  0  0  0  0
    1.0212   -8.7167    2.4969 C   0  0  0  0  0  0  0  0  0  0  0  0
    1.2716   -9.2860    3.9023 C   0  0  1  0  0  0  0  0  0  0  0  0
    0.4854  -10.4458    4.0841 O   0  0  0  0  0  0  0  0  0  0  0  0
    2.7485   -9.6603    4.1333 C   0  0  0  0  0  0  0  0  0  0  0  0
    3.7260   -8.5362    3.7168 C   0  0  0  0  0  0  0  0  0  0  0  0
    3.4790   -7.9844    2.2889 C   0  0  2  0  0  0  0  0  0  0  0  0
    3.7799   -9.1273    1.2863 C   0  0  0  0  0  0  0  0  0  0  0  0
    5.0201   -4.3237    2.5840 C   0  0  2  0  0  0  0  0  0  0  0  0
    4.4413   -2.9358    2.9436 C   0  0  0  0  0  0  0  0  0  0  0  0
    4.0906   -2.3828    1.5866 C   0  0  0  0  0  0  0  0  0  0  0  0
    4.6807   -3.0366    0.5805 C   0  0  0  0  0  0  0  0  0  0  0  0
    4.4547   -2.7083   -0.8351 C   0  0  0  0  0  0  0  0  0  0  0  0
    4.1711   -3.7208   -1.7640 C   0  0  0  0  0  0  0  0  0  0  0  0
    3.8821   -3.3963   -3.0936 C   0  0  0  0  0  0  0  0  0  0  0  0
    3.9089   -2.0477   -3.4403 C   0  0  0  0  0  0  0  0  0  0  0  0
    3.6637   -1.6312   -4.6855 N   0  0  0  0  0  0  0  0  0  0  0  0
    3.7583    0.0176   -4.5830 S   0  0  0  0  0  0  0  0  0  0  0  0
    4.2092    0.1606   -2.9891 N   0  0  0  0  0  0  0  0  0  0  0  0
    4.2031   -1.0741   -2.4712 C   0  0  0  0  0  0  0  0  0  0  0  0
    4.4721   -1.3976   -1.1837 N   0  0  0  0  0  0  0  0  0  0  0  0
    7.7021   -4.0769    1.7980 H   0  0  0  0  0  0  0  0  0  0  0  0
    6.9593   -2.4694    1.7393 H   0  0  0  0  0  0  0  0  0  0  0  0
    7.4443   -3.2616    0.2629 H   0  0  0  0  0  0  0  0  0  0  0  0
    6.0277   -5.1856   -0.6612 H   0  0  0  0  0  0  0  0  0  0  0  0
    6.7325   -5.8823    0.7336 H   0  0  0  0  0  0  0  0  0  0  0  0
    3.7754   -6.1674    0.0355 H   0  0  0  0  0  0  0  0  0  0  0  0
    5.0148   -7.3615   -0.0119 H   0  0  0  0  0  0  0  0  0  0  0  0
    5.4011   -7.0204    2.4544 H   0  0  0  0  0  0  0  0  0  0  0  0
    3.8071   -5.6406    3.7275 H   0  0  0  0  0  0  0  0  0  0  0  0
    2.0613   -4.3314    2.7229 H   0  0  0  0  0  0  0  0  0  0  0  0
    2.5557   -4.7140    1.0958 H   0  0  0  0  0  0  0  0  0  0  0  0
   -0.0131   -8.3843    2.4115 H   0  0  0  0  0  0  0  0  0  0  0  0
    1.1435   -9.4832    1.7359 H   0  0  0  0  0  0  0  0  0  0  0  0
    0.9873   -8.5367    4.6444 H   0  0  0  0  0  0  0  0  0  0  0  0
   -0.3920  -10.2274    4.3818 H   0  0  0  0  0  0  0  0  0  0  0  0
    2.8972   -9.8839    5.1882 H   0  0  0  0  0  0  0  0  0  0  0  0
    2.9965  -10.5871    3.6130 H   0  0  0  0  0  0  0  0  0  0  0  0
    3.6358   -7.7298    4.4440 H   0  0  0  0  0  0  0  0  0  0  0  0
    4.7534   -8.8993    3.7949 H   0  0  0  0  0  0  0  0  0  0  0  0
    4.8487   -9.3419    1.2321 H   0  0  0  0  0  0  0  0  0  0  0  0
    3.4427   -8.8978    0.2818 H   0  0  0  0  0  0  0  0  0  0  0  0
    3.2796  -10.0610    1.5327 H   0  0  0  0  0  0  0  0  0  0  0  0
    5.8240   -4.5867    3.2774 H   0  0  0  0  0  0  0  0  0  0  0  0
    3.5837   -2.9759    3.6173 H   0  0  0  0  0  0  0  0  0  0  0  0
    5.1970   -2.2871    3.3932 H   0  0  0  0  0  0  0  0  0  0  0  0
    3.4122   -1.5582    1.4589 H   0  0  0  0  0  0  0  0  0  0  0  0
    4.1364   -4.7535   -1.4907 H   0  0  0  0  0  0  0  0  0  0  0  0
    3.6385   -4.1510   -3.8228 H   0  0  0  0  0  0  0  0  0  0  0  0
  2  1  1  1
  1 31  1  0
  1 32  1  0
  1 33  1  0
  2 18  1  0
  2 21  1  0
  2  3  1  0
  3  4  1  0
  3 34  1  0
  3 35  1  0
  4  5  1  0
  4 36  1  0
  4 37  1  0
  5 16  1  0
  5  6  1  0
  5 38  1  1
  6  7  1  0
  6 18  1  0
  6 39  1  1
  7  8  1  0
  7 40  1  0
  7 41  1  0
  8  9  1  0
  8 10  2  0
 10 16  1  0
 10 11  1  0
 11 12  1  0
 11 42  1  0
 11 43  1  0
 12 13  1  0
 12 14  1  0
 12 44  1  1
 13 45  1  0
 14 15  1  0
 14 46  1  0
 14 47  1  0
 15 16  1  0
 15 48  1  0
 15 49  1  0
 16 17  1  6
 17 50  1  0
 17 51  1  0
 17 52  1  0
 18 19  1  0
 18 53  1  1
 19 20  1  0
 19 54  1  0
 19 55  1  0
 20 21  2  0
 20 56  1  0
 21 22  1  0
 22 30  2  0
 22 23  1  0
 23 24  2  0
 23 57  1  0
 24 25  1  0
 24 58  1  0
 25 29  1  0
 25 26  2  0
 26 27  1  0
 27 28  1  0
 28 29  2  0
 29 30  1  0
M  END
>  <i_m_ct_stereo_status>  (280) 
1

>  <s_m_source_file>  (280) 
/var/tmp/pbs.5076255.sched01/tmpvuzdko10/1206lwnzxed.sdf

>  <i_m_source_file_index>  (280) 
11

>  <i_lp_mmshare_version>  (280) 
48012

>  <i_f3d_flags>  (280) 
0

>  <s_epik_input>  (280) 
W0NIMl0xW0NIMl1bQ0BIXShbT0hdKVtDSDJdQyg9QyhGKVtDSDJdMilbQ0BAXTEoW0NIM10pW0NAQEhdKFtDSDJdW0NIMl0zKVtDQEhdMltDQEBIXShbQ0BAXTM0W0NIM10pW0NIMl1bQ0hdPUM0YyhbY0hdW2NIXTUpbmMoYzU2KW5zbjY=

>  <s_epik_cmdline>  (280) 
J2VwaWtfcHl0aG9uJywgJy1waHQnLCAnMi4wJywgJy1waCcsICc3LjAnLCAnLXRuJywgJzgnLCAnLW1hJywgJzIwMCcsICctaW1hZScsICc8aW5maWxlLm1hZT4nLCAnLW9tYWUnLCAnPG91dGZpbGUubWFlPic=

>  <r_lp_tautomer_probability>  (280) 
1

>  <r_epik_Ionization_Penalty>  (280) 
9.52352e-07

>  <r_epik_Ionization_Penalty_Charging>  (280) 
0

>  <r_epik_Ionization_Penalty_Neutral>  (280) 
9.52352e-07

>  <r_epik_State_Penalty>  (280) 
-0

>  <r_epik_Charging_Adjusted_Penalty>  (280) 
0

>  <i_epik_Tot_Q>  (280) 
0

>  <i_epik_Tot_abs_Q>  (280) 
0

>  <s_lp_Force_Field>  (280) 
OPLS3e

>  <r_lp_Energy>  (280) 
35.3321

>  <b_lp_Chiralities_Consistent>  (280) 
1

>  <s_lp_Variant>  (280) 
96:0-1

>  <s_i_glide_gridfile>  (280) 
pfpi4k_grid

>  <i_i_glide_lignum>  (280) 
11

>  <i_i_glide_rotatable_bonds>  (280) 
2

>  <r_i_docking_score>  (280) 
-3.98708

>  <r_i_glide_ligand_efficiency>  (280) 
-0.132903

>  <r_i_glide_ligand_efficiency_sa>  (280) 
-0.41296

>  <r_i_glide_ligand_efficiency_ln>  (280) 
-0.905909

>  <r_i_glide_gscore>  (280) 
-3.98708

>  <r_i_glide_lipo>  (280) 
-0.923049

>  <r_i_glide_hbond>  (280) 
-0.415331

>  <r_i_glide_metal>  (280) 
-0

>  <r_i_glide_rewards>  (280) 
-0.507525

>  <r_i_glide_evdw>  (280) 
-27.1924

>  <r_i_glide_ecoul>  (280) 
-5.15227

>  <r_i_glide_erotb>  (280) 
0.109541

>  <r_i_glide_esite>  (280) 
-0.118259

>  <r_i_glide_emodel>  (280) 
-39.1548

>  <r_i_glide_energy>  (280) 
-32.3447

>  <r_i_glide_einternal>  (280) 
2.41515

>  <r_i_glide_intrahb_reward>  (280) 
-0

>  <i_i_glide_confnum>  (280) 
3

>  <i_i_glide_posenum>  (280) 
3

>  <r_i_glide_eff_state_penalty>  (280) 
0

>  <ligand_id>  (280) 
96

>  <original_smiles>  (280) 
CC12CCC3C(CC(F)=C4CC(O)CCC43C)C1CC=C2c1ccc2nsnc2n1

>  <smiles>  (280) 
[H]OC1([H])C([H])([H])C2=C(F)C([H])([H])C3([H])C4([H])C([H])([H])C([H])=C(c5nc6nsnc6c([H])c5[H])C4(C([H])([H])[H])C([H])([H])C([H])([H])C3([H])C2(C([H])([H])[H])C([H])([H])C1([H])[H]

$$$$
96:0:1
     RDKit          3D

 58 63  0  0  1  0  0  0  0  0999 V2000
    7.1055   -3.3458    1.1509 C   0  0  0  0  0  0  0  0  0  0  0  0
    5.7159   -4.0072    1.1264 C   0  0  1  0  0  0  0  0  0  0  0  0
    5.8975   -5.3367    0.3720 C   0  0  0  0  0  0  0  0  0  0  0  0
    4.7954   -6.3850    0.5834 C   0  0  0  0  0  0  0  0  0  0  0  0
    4.5687   -6.6501    2.0850 C   0  0  1  0  0  0  0  0  0  0  0  0
    4.0874   -5.3223    2.7141 C   0  0  2  0  0  0  0  0  0  0  0  0
    2.6595   -4.9836    2.1935 C   0  0  0  0  0  0  0  0  0  0  0  0
    1.7271   -6.1793    2.2614 C   0  0  0  0  0  0  0  0  0  0  0  0
    0.4077   -5.9240    2.3321 F   0  0  0  0  0  0  0  0  0  0  0  0
    2.1393   -7.4531    2.3878 C   0  0  0  0  0  0  0  0  0  0  0  0
    1.1690   -8.5855    2.6987 C   0  0  0  0  0  0  0  0  0  0  0  0
    1.4646   -9.1305    4.1039 C   0  0  1  0  0  0  0  0  0  0  0  0
    0.6498  -10.2550    4.3561 O   0  0  0  0  0  0  0  0  0  0  0  0
    2.9454   -9.4965    4.3129 C   0  0  0  0  0  0  0  0  0  0  0  0
    3.9068   -8.3796    3.8427 C   0  0  0  0  0  0  0  0  0  0  0  0
    3.6198   -7.8612    2.4111 C   0  0  2  0  0  0  0  0  0  0  0  0
    3.8826   -9.0256    1.4221 C   0  0  0  0  0  0  0  0  0  0  0  0
    5.1703   -4.1956    2.5746 C   0  0  2  0  0  0  0  0  0  0  0  0
    4.6049   -2.7982    2.9189 C   0  0  0  0  0  0  0  0  0  0  0  0
    4.2144   -2.2776    1.5609 C   0  0  0  0  0  0  0  0  0  0  0  0
    4.7706   -2.9582    0.5531 C   0  0  0  0  0  0  0  0  0  0  0  0
    4.5060   -2.6569   -0.8599 C   0  0  0  0  0  0  0  0  0  0  0  0
    4.1767   -3.6910   -1.7506 C   0  0  0  0  0  0  0  0  0  0  0  0
    3.8575   -3.3902   -3.0846 C   0  0  0  0  0  0  0  0  0  0  0  0
    3.8910   -2.0453   -3.4625 C   0  0  0  0  0  0  0  0  0  0  0  0
    3.6175   -1.6653   -4.7101 N   0  0  0  0  0  0  0  0  0  0  0  0
    3.7062   -0.0136   -4.6509 S   0  0  0  0  0  0  0  0  0  0  0  0
    4.2109    0.1632   -3.0680 N   0  0  0  0  0  0  0  0  0  0  0  0
    4.2161   -1.0560   -2.5268 C   0  0  0  0  0  0  0  0  0  0  0  0
    4.5227   -1.3535   -1.2418 N   0  0  0  0  0  0  0  0  0  0  0  0
    7.8336   -3.9604    1.6839 H   0  0  0  0  0  0  0  0  0  0  0  0
    7.0402   -2.3742    1.6427 H   0  0  0  0  0  0  0  0  0  0  0  0
    7.5184   -3.1776    0.1524 H   0  0  0  0  0  0  0  0  0  0  0  0
    6.0770   -5.1258   -0.6780 H   0  0  0  0  0  0  0  0  0  0  0  0
    6.8283   -5.7949    0.7122 H   0  0  0  0  0  0  0  0  0  0  0  0
    3.8582   -6.1101    0.1046 H   0  0  0  0  0  0  0  0  0  0  0  0
    5.1241   -7.2945    0.0857 H   0  0  0  0  0  0  0  0  0  0  0  0
    5.5463   -6.8947    2.5015 H   0  0  0  0  0  0  0  0  0  0  0  0
    3.9897   -5.4820    3.7854 H   0  0  0  0  0  0  0  0  0  0  0  0
    2.2194   -4.1930    2.8002 H   0  0  0  0  0  0  0  0  0  0  0  0
    2.6645   -4.6139    1.1677 H   0  0  0  0  0  0  0  0  0  0  0  0
    0.1333   -8.2484    2.6495 H   0  0  0  0  0  0  0  0  0  0  0  0
    1.2608   -9.3638    1.9457 H   0  0  0  0  0  0  0  0  0  0  0  0
    1.1937   -8.3664    4.8312 H   0  0  0  0  0  0  0  0  0  0  0  0
    0.8853  -10.9600    3.7737 H   0  0  0  0  0  0  0  0  0  0  0  0
    3.1191   -9.6865    5.3707 H   0  0  0  0  0  0  0  0  0  0  0  0
    3.1854  -10.4330    3.8095 H   0  0  0  0  0  0  0  0  0  0  0  0
    3.8358   -7.5541    4.5510 H   0  0  0  0  0  0  0  0  0  0  0  0
    4.9365   -8.7386    3.8988 H   0  0  0  0  0  0  0  0  0  0  0  0
    4.9486   -9.2432    1.3332 H   0  0  0  0  0  0  0  0  0  0  0  0
    3.5031   -8.7887    0.4339 H   0  0  0  0  0  0  0  0  0  0  0  0
    3.3918   -9.9577    1.6960 H   0  0  0  0  0  0  0  0  0  0  0  0
    5.9933   -4.4466    3.2496 H   0  0  0  0  0  0  0  0  0  0  0  0
    3.7667   -2.8199    3.6176 H   0  0  0  0  0  0  0  0  0  0  0  0
    5.3733   -2.1404    3.3331 H   0  0  0  0  0  0  0  0  0  0  0  0
    3.5362   -1.4503    1.4337 H   0  0  0  0  0  0  0  0  0  0  0  0
    4.1279   -4.7173   -1.4586 H   0  0  0  0  0  0  0  0  0  0  0  0
    3.5889   -4.1571   -3.7898 H   0  0  0  0  0  0  0  0  0  0  0  0
  2  1  1  1
  1 31  1  0
  1 32  1  0
  1 33  1  0
  2 18  1  0
  2 21  1  0
  2  3  1  0
  3  4  1  0
  3 34  1  0
  3 35  1  0
  4  5  1  0
  4 36  1  0
  4 37  1  0
  5 16  1  0
  5  6  1  0
  5 38  1  1
  6  7  1  0
  6 18  1  0
  6 39  1  1
  7  8  1  0
  7 40  1  0
  7 41  1  0
  8  9  1  0
  8 10  2  0
 10 16  1  0
 10 11  1  0
 11 12  1  0
 11 42  1  0
 11 43  1  0
 12 13  1  0
 12 14  1  0
 12 44  1  1
 13 45  1  0
 14 15  1  0
 14 46  1  0
 14 47  1  0
 15 16  1  0
 15 48  1  0
 15 49  1  0
 16 17  1  6
 17 50  1  0
 17 51  1  0
 17 52  1  0
 18 19  1  0
 18 53  1  1
 19 20  1  0
 19 54  1  0
 19 55  1  0
 20 21  2  0
 20 56  1  0
 21 22  1  0
 22 30  2  0
 22 23  1  0
 23 24  2  0
 23 57  1  0
 24 25  1  0
 24 58  1  0
 25 29  1  0
 25 26  2  0
 26 27  1  0
 27 28  1  0
 28 29  2  0
 29 30  1  0
M  END
>  <i_m_ct_stereo_status>  (281) 
1

>  <s_m_source_file>  (281) 
/var/tmp/pbs.5076255.sched01/tmpvuzdko10/1206lwnzxed.sdf

>  <i_m_source_file_index>  (281) 
11

>  <i_lp_mmshare_version>  (281) 
48012

>  <i_f3d_flags>  (281) 
0

>  <s_epik_input>  (281) 
W0NIMl0xW0NIMl1bQ0BIXShbT0hdKVtDSDJdQyg9QyhGKVtDSDJdMilbQ0BAXTEoW0NIM10pW0NAQEhdKFtDSDJdW0NIMl0zKVtDQEhdMltDQEBIXShbQ0BAXTM0W0NIM10pW0NIMl1bQ0hdPUM0YyhbY0hdW2NIXTUpbmMoYzU2KW5zbjY=

>  <s_epik_cmdline>  (281) 
J2VwaWtfcHl0aG9uJywgJy1waHQnLCAnMi4wJywgJy1waCcsICc3LjAnLCAnLXRuJywgJzgnLCAnLW1hJywgJzIwMCcsICctaW1hZScsICc8aW5maWxlLm1hZT4nLCAnLW9tYWUnLCAnPG91dGZpbGUubWFlPic=

>  <r_lp_tautomer_probability>  (281) 
1

>  <r_epik_Ionization_Penalty>  (281) 
9.52352e-07

>  <r_epik_Ionization_Penalty_Charging>  (281) 
0

>  <r_epik_Ionization_Penalty_Neutral>  (281) 
9.52352e-07

>  <r_epik_State_Penalty>  (281) 
-0

>  <r_epik_Charging_Adjusted_Penalty>  (281) 
0

>  <i_epik_Tot_Q>  (281) 
0

>  <i_epik_Tot_abs_Q>  (281) 
0

>  <s_lp_Force_Field>  (281) 
OPLS3e

>  <r_lp_Energy>  (281) 
35.3321

>  <b_lp_Chiralities_Consistent>  (281) 
1

>  <s_lp_Variant>  (281) 
96:0-1

>  <s_i_glide_gridfile>  (281) 
pfpi4k_grid

>  <i_i_glide_lignum>  (281) 
11

>  <i_i_glide_rotatable_bonds>  (281) 
2

>  <r_i_docking_score>  (281) 
-3.6324

>  <r_i_glide_ligand_efficiency>  (281) 
-0.12108

>  <r_i_glide_ligand_efficiency_sa>  (281) 
-0.376223

>  <r_i_glide_ligand_efficiency_ln>  (281) 
-0.82532

>  <r_i_glide_gscore>  (281) 
-3.6324

>  <r_i_glide_lipo>  (281) 
-0.952926

>  <r_i_glide_hbond>  (281) 
-0.32

>  <r_i_glide_metal>  (281) 
-0

>  <r_i_glide_rewards>  (281) 
-0.507525

>  <r_i_glide_evdw>  (281) 
-27.5419

>  <r_i_glide_ecoul>  (281) 
-3.18822

>  <r_i_glide_erotb>  (281) 
0.109541

>  <r_i_glide_esite>  (281) 
-0.106158

>  <r_i_glide_emodel>  (281) 
-37.4243

>  <r_i_glide_energy>  (281) 
-30.7301

>  <r_i_glide_einternal>  (281) 
1.69739

>  <r_i_glide_intrahb_reward>  (281) 
-0

>  <i_i_glide_confnum>  (281) 
3

>  <i_i_glide_posenum>  (281) 
21

>  <r_i_glide_eff_state_penalty>  (281) 
0

>  <ligand_id>  (281) 
96

>  <original_smiles>  (281) 
CC12CCC3C(CC(F)=C4CC(O)CCC43C)C1CC=C2c1ccc2nsnc2n1

>  <smiles>  (281) 
[H]OC1([H])C([H])([H])C2=C(F)C([H])([H])C3([H])C4([H])C([H])([H])C([H])=C(c5nc6nsnc6c([H])c5[H])C4(C([H])([H])[H])C([H])([H])C([H])([H])C3([H])C2(C([H])([H])[H])C([H])([H])C1([H])[H]

$$$$
96:0:2
     RDKit          3D

 58 63  0  0  1  0  0  0  0  0999 V2000
    1.5865   -3.0656    8.2667 C   0  0  0  0  0  0  0  0  0  0  0  0
    1.1433   -3.8569    7.0055 C   0  0  1  0  0  0  0  0  0  0  0  0
    2.4270   -4.0892    6.1656 C   0  0  0  0  0  0  0  0  0  0  0  0
    2.3271   -5.2090    5.1134 C   0  0  0  0  0  0  0  0  0  0  0  0
    1.8721   -6.5410    5.7680 C   0  0  1  0  0  0  0  0  0  0  0  0
    0.4554   -6.3217    6.3471 C   0  0  2  0  0  0  0  0  0  0  0  0
   -0.5649   -6.1775    5.1825 C   0  0  0  0  0  0  0  0  0  0  0  0
   -0.4041   -7.2511    4.1247 C   0  0  0  0  0  0  0  0  0  0  0  0
   -1.4797   -7.5092    3.3578 F   0  0  0  0  0  0  0  0  0  0  0  0
    0.6998   -8.0140    3.9924 C   0  0  0  0  0  0  0  0  0  0  0  0
    0.7339   -9.2435    3.0910 C   0  0  0  0  0  0  0  0  0  0  0  0
    0.8634  -10.5047    3.9656 C   0  0  1  0  0  0  0  0  0  0  0  0
    1.0209  -11.6340    3.1396 O   0  0  0  0  0  0  0  0  0  0  0  0
    2.0367  -10.4276    4.9609 C   0  0  0  0  0  0  0  0  0  0  0  0
    2.0630   -9.0978    5.7479 C   0  0  0  0  0  0  0  0  0  0  0  0
    1.9583   -7.8256    4.8570 C   0  0  2  0  0  0  0  0  0  0  0  0
    3.2284   -7.7455    3.9673 C   0  0  0  0  0  0  0  0  0  0  0  0
    0.4494   -5.1900    7.4367 C   0  0  2  0  0  0  0  0  0  0  0  0
   -0.9851   -4.7341    7.7975 C   0  0  0  0  0  0  0  0  0  0  0  0
   -1.1730   -3.5616    6.8750 C   0  0  0  0  0  0  0  0  0  0  0  0
   -0.0232   -3.0950    6.3723 C   0  0  0  0  0  0  0  0  0  0  0  0
    0.0252   -1.9887    5.3886 C   0  0  0  0  0  0  0  0  0  0  0  0
    0.8977   -2.0334    4.2771 C   0  0  0  0  0  0  0  0  0  0  0  0
    0.9078   -0.9583    3.3840 C   0  0  0  0  0  0  0  0  0  0  0  0
    0.0073    0.0945    3.6062 C   0  0  0  0  0  0  0  0  0  0  0  0
   -0.0732    1.1365    2.7736 N   0  0  0  0  0  0  0  0  0  0  0  0
   -1.2893    2.0722    3.4330 S   0  0  0  0  0  0  0  0  0  0  0  0
   -1.6780    1.1302    4.7791 N   0  0  0  0  0  0  0  0  0  0  0  0
   -0.8678    0.0631    4.7078 C   0  0  0  0  0  0  0  0  0  0  0  0
   -0.8570   -0.9748    5.5835 N   0  0  0  0  0  0  0  0  0  0  0  0
    2.3018   -3.6359    8.8632 H   0  0  0  0  0  0  0  0  0  0  0  0
    0.7515   -2.8128    8.9234 H   0  0  0  0  0  0  0  0  0  0  0  0
    2.0692   -2.1254    7.9891 H   0  0  0  0  0  0  0  0  0  0  0  0
    2.7892   -3.1525    5.7352 H   0  0  0  0  0  0  0  0  0  0  0  0
    3.2243   -4.3954    6.8480 H   0  0  0  0  0  0  0  0  0  0  0  0
    1.6637   -4.9531    4.2892 H   0  0  0  0  0  0  0  0  0  0  0  0
    3.3170   -5.2958    4.6690 H   0  0  0  0  0  0  0  0  0  0  0  0
    2.5521   -6.7082    6.6046 H   0  0  0  0  0  0  0  0  0  0  0  0
    0.1684   -7.2274    6.8816 H   0  0  0  0  0  0  0  0  0  0  0  0
   -1.5853   -6.2544    5.5571 H   0  0  0  0  0  0  0  0  0  0  0  0
   -0.4912   -5.2094    4.6895 H   0  0  0  0  0  0  0  0  0  0  0  0
   -0.1656   -9.3110    2.4777 H   0  0  0  0  0  0  0  0  0  0  0  0
    1.5601   -9.1643    2.3871 H   0  0  0  0  0  0  0  0  0  0  0  0
   -0.0635  -10.6298    4.5259 H   0  0  0  0  0  0  0  0  0  0  0  0
    1.2063  -12.3969    3.6734 H   0  0  0  0  0  0  0  0  0  0  0  0
    1.9577  -11.2512    5.6714 H   0  0  0  0  0  0  0  0  0  0  0  0
    2.9849  -10.5786    4.4453 H   0  0  0  0  0  0  0  0  0  0  0  0
    1.2328   -9.1227    6.4552 H   0  0  0  0  0  0  0  0  0  0  0  0
    2.9690   -9.0571    6.3544 H   0  0  0  0  0  0  0  0  0  0  0  0
    4.1091   -7.5056    4.5651 H   0  0  0  0  0  0  0  0  0  0  0  0
    3.1286   -6.9890    3.1866 H   0  0  0  0  0  0  0  0  0  0  0  0
    3.4544   -8.6785    3.4532 H   0  0  0  0  0  0  0  0  0  0  0  0
    0.9437   -5.5904    8.3237 H   0  0  0  0  0  0  0  0  0  0  0  0
   -1.7446   -5.4974    7.6511 H   0  0  0  0  0  0  0  0  0  0  0  0
   -1.0565   -4.3992    8.8349 H   0  0  0  0  0  0  0  0  0  0  0  0
   -2.1535   -3.1864    6.6314 H   0  0  0  0  0  0  0  0  0  0  0  0
    1.5618   -2.8530    4.0694 H   0  0  0  0  0  0  0  0  0  0  0  0
    1.5711   -0.9507    2.5337 H   0  0  0  0  0  0  0  0  0  0  0  0
  2  1  1  1
  1 31  1  0
  1 32  1  0
  1 33  1  0
  2 18  1  0
  2 21  1  0
  2  3  1  0
  3  4  1  0
  3 34  1  0
  3 35  1  0
  4  5  1  0
  4 36  1  0
  4 37  1  0
  5 16  1  0
  5  6  1  0
  5 38  1  1
  6  7  1  0
  6 18  1  0
  6 39  1  1
  7  8  1  0
  7 40  1  0
  7 41  1  0
  8  9  1  0
  8 10  2  0
 10 16  1  0
 10 11  1  0
 11 12  1  0
 11 42  1  0
 11 43  1  0
 12 13  1  0
 12 14  1  0
 12 44  1  1
 13 45  1  0
 14 15  1  0
 14 46  1  0
 14 47  1  0
 15 16  1  0
 15 48  1  0
 15 49  1  0
 16 17  1  6
 17 50  1  0
 17 51  1  0
 17 52  1  0
 18 19  1  0
 18 53  1  1
 19 20  1  0
 19 54  1  0
 19 55  1  0
 20 21  2  0
 20 56  1  0
 21 22  1  0
 22 30  2  0
 22 23  1  0
 23 24  2  0
 23 57  1  0
 24 25  1  0
 24 58  1  0
 25 29  1  0
 25 26  2  0
 26 27  1  0
 27 28  1  0
 28 29  2  0
 29 30  1  0
M  END
>  <i_m_ct_stereo_status>  (282) 
1

>  <s_m_source_file>  (282) 
/var/tmp/pbs.5076255.sched01/tmpvuzdko10/1206lwnzxed.sdf

>  <i_m_source_file_index>  (282) 
11

>  <i_lp_mmshare_version>  (282) 
48012

>  <i_f3d_flags>  (282) 
0

>  <s_epik_input>  (282) 
W0NIMl0xW0NIMl1bQ0BIXShbT0hdKVtDSDJdQyg9QyhGKVtDSDJdMilbQ0BAXTEoW0NIM10pW0NAQEhdKFtDSDJdW0NIMl0zKVtDQEhdMltDQEBIXShbQ0BAXTM0W0NIM10pW0NIMl1bQ0hdPUM0YyhbY0hdW2NIXTUpbmMoYzU2KW5zbjY=

>  <s_epik_cmdline>  (282) 
J2VwaWtfcHl0aG9uJywgJy1waHQnLCAnMi4wJywgJy1waCcsICc3LjAnLCAnLXRuJywgJzgnLCAnLW1hJywgJzIwMCcsICctaW1hZScsICc8aW5maWxlLm1hZT4nLCAnLW9tYWUnLCAnPG91dGZpbGUubWFlPic=

>  <r_lp_tautomer_probability>  (282) 
1

>  <r_epik_Ionization_Penalty>  (282) 
9.52352e-07

>  <r_epik_Ionization_Penalty_Charging>  (282) 
0

>  <r_epik_Ionization_Penalty_Neutral>  (282) 
9.52352e-07

>  <r_epik_State_Penalty>  (282) 
-0

>  <r_epik_Charging_Adjusted_Penalty>  (282) 
0

>  <i_epik_Tot_Q>  (282) 
0

>  <i_epik_Tot_abs_Q>  (282) 
0

>  <s_lp_Force_Field>  (282) 
OPLS3e

>  <r_lp_Energy>  (282) 
35.3321

>  <b_lp_Chiralities_Consistent>  (282) 
1

>  <s_lp_Variant>  (282) 
96:0-1

>  <s_i_glide_gridfile>  (282) 
pfpi4k_grid

>  <i_i_glide_lignum>  (282) 
11

>  <i_i_glide_rotatable_bonds>  (282) 
2

>  <r_i_docking_score>  (282) 
-2.61204

>  <r_i_glide_ligand_efficiency>  (282) 
-0.0870679

>  <r_i_glide_ligand_efficiency_sa>  (282) 
-0.27054

>  <r_i_glide_ligand_efficiency_ln>  (282) 
-0.593483

>  <r_i_glide_gscore>  (282) 
-2.61204

>  <r_i_glide_lipo>  (282) 
-0.0144785

>  <r_i_glide_hbond>  (282) 
-0.100006

>  <r_i_glide_metal>  (282) 
-0

>  <r_i_glide_rewards>  (282) 
-0.507525

>  <r_i_glide_evdw>  (282) 
-30.5025

>  <r_i_glide_ecoul>  (282) 
-3.16335

>  <r_i_glide_erotb>  (282) 
0.109541

>  <r_i_glide_esite>  (282) 
-0.0999403

>  <r_i_glide_emodel>  (282) 
-37.9742

>  <r_i_glide_energy>  (282) 
-33.6658

>  <r_i_glide_einternal>  (282) 
2.16118

>  <r_i_glide_intrahb_reward>  (282) 
-0

>  <i_i_glide_confnum>  (282) 
4

>  <i_i_glide_posenum>  (282) 
31

>  <r_i_glide_eff_state_penalty>  (282) 
0

>  <ligand_id>  (282) 
96

>  <original_smiles>  (282) 
CC12CCC3C(CC(F)=C4CC(O)CCC43C)C1CC=C2c1ccc2nsnc2n1

>  <smiles>  (282) 
[H]OC1([H])C([H])([H])C2=C(F)C([H])([H])C3([H])C4([H])C([H])([H])C([H])=C(c5nc6nsnc6c([H])c5[H])C4(C([H])([H])[H])C([H])([H])C([H])([H])C3([H])C2(C([H])([H])[H])C([H])([H])C1([H])[H]

$$$$
97:0:0
     RDKit          3D

 90 98  0  0  1  0  0  0  0  0999 V2000
    5.9384   -3.3354    6.2842 C   0  0  0  0  0  0  0  0  0  0  0  0
    5.4053   -3.4886    4.9681 O   0  0  0  0  0  0  0  0  0  0  0  0
    4.0928   -2.9820    4.6492 C   0  0  2  0  0  0  0  0  0  0  0  0
    3.0535   -3.4322    5.7684 C   0  0  0  0  0  0  0  0  0  0  0  0
    2.7503   -4.9349    6.0848 C   0  0  0  0  0  0  0  0  0  0  0  0
    2.0670   -5.8080    5.0201 C   0  0  0  0  0  0  0  0  0  0  0  0
    2.6309   -6.9936    4.6820 C   0  0  0  0  0  0  0  0  0  0  0  0
    3.6078   -6.9771    3.6765 N   0  0  0  0  0  0  0  0  0  0  0  0
    4.0642   -5.6336    3.3473 C   0  0  1  0  0  0  0  0  0  0  0  0
    5.3700   -5.2663    2.6837 C   0  0  0  0  0  0  0  0  0  0  0  0
    5.0387   -3.7826    2.3010 C   0  0  1  0  0  0  0  0  0  0  0  0
    4.8125   -3.7883    0.8416 N   0  0  0  0  0  0  0  0  0  0  0  0
    5.9779   -3.8892   -0.0409 C   0  0  0  0  0  0  0  0  0  0  0  0
    7.0701   -2.8844    0.2693 C   0  0  0  0  0  0  0  0  0  0  0  0
    6.9237   -1.4549   -0.1785 C   0  0  0  0  0  0  0  0  0  0  0  0
    7.9408   -2.3464   -0.8450 C   0  0  0  0  0  0  0  0  0  0  0  0
    3.7945   -4.7469    0.4139 C   0  0  0  0  0  0  0  0  0  0  0  0
    2.6107   -4.8609    1.3958 C   0  0  0  0  0  0  0  0  0  0  0  0
    2.9341   -4.6646    2.9143 C   0  0  1  0  0  0  0  0  0  0  0  0
    1.6580   -4.9863    3.8011 C   0  0  1  0  0  0  0  0  0  0  0  0
    0.7041   -5.6993    2.9908 O   0  0  0  0  0  0  0  0  0  0  0  0
   -0.1358   -6.6955    3.5718 C   0  0  0  0  0  0  0  0  0  0  0  0
    0.5138   -8.1076    3.6276 C   0  0  0  0  0  0  0  0  0  0  0  0
   -0.5684   -9.0932    4.1102 C   0  0  0  0  0  0  0  0  0  0  0  0
    0.9268   -8.5613    2.2134 C   0  0  0  0  0  0  0  0  0  0  0  0
    1.7154   -8.2072    4.6112 C   0  0  0  0  0  0  0  0  0  0  0  0
    3.7173   -3.3087    3.1064 C   0  0  1  0  0  0  0  0  0  0  0  0
    3.0312   -1.9223    2.6078 C   0  0  1  0  0  0  0  0  0  0  0  0
    3.1287   -1.5401    1.0975 C   0  0  0  0  0  0  0  0  0  0  0  0
    1.5307   -1.7919    2.9891 C   0  0  0  0  0  0  0  0  0  0  0  0
    0.8879   -0.4147    2.7173 C   0  0  0  0  0  0  0  0  0  0  0  0
    1.7907    0.7806    2.9796 C   0  0  2  0  0  0  0  0  0  0  0  0
    3.2389    0.5772    3.3950 C   0  0  2  0  0  0  0  0  0  0  0  0
    3.8239   -0.8478    3.3771 C   0  0  1  0  0  0  0  0  0  0  0  0
    4.2593   -1.4367    4.7131 C   0  0  0  0  0  0  0  0  0  0  0  0
    2.2317    1.2298    4.3478 C   0  0  0  0  0  0  0  0  0  0  0  0
    2.3712    2.7226    4.5920 C   0  0  0  0  0  0  0  0  0  0  0  0
    1.6793    0.5812    5.6031 C   0  0  0  0  0  0  0  0  0  0  0  0
    6.9955   -3.6068    6.2687 H   0  0  0  0  0  0  0  0  0  0  0  0
    5.4501   -3.9992    6.9971 H   0  0  0  0  0  0  0  0  0  0  0  0
    5.8745   -2.3149    6.6638 H   0  0  0  0  0  0  0  0  0  0  0  0
    3.4009   -3.0133    6.7125 H   0  0  0  0  0  0  0  0  0  0  0  0
    2.1068   -2.9181    5.6620 H   0  0  0  0  0  0  0  0  0  0  0  0
    3.6636   -5.4316    6.4135 H   0  0  0  0  0  0  0  0  0  0  0  0
    2.0962   -4.9632    6.9558 H   0  0  0  0  0  0  0  0  0  0  0  0
    4.3794   -5.3813    4.3489 H   0  0  0  0  0  0  0  0  0  0  0  0
    6.1983   -5.3201    3.3923 H   0  0  0  0  0  0  0  0  0  0  0  0
    5.6267   -5.9214    1.8548 H   0  0  0  0  0  0  0  0  0  0  0  0
    5.8595   -3.1103    2.5436 H   0  0  0  0  0  0  0  0  0  0  0  0
    6.4089   -4.8900   -0.0202 H   0  0  0  0  0  0  0  0  0  0  0  0
    5.6237   -3.7135   -1.0595 H   0  0  0  0  0  0  0  0  0  0  0  0
    7.5914   -3.0616    1.2084 H   0  0  0  0  0  0  0  0  0  0  0  0
    6.0248   -1.1939   -0.7326 H   0  0  0  0  0  0  0  0  0  0  0  0
    7.2917   -0.6846    0.4963 H   0  0  0  0  0  0  0  0  0  0  0  0
    8.9906   -2.1644   -0.6191 H   0  0  0  0  0  0  0  0  0  0  0  0
    7.7368   -2.6841   -1.8605 H   0  0  0  0  0  0  0  0  0  0  0  0
    3.4181   -4.4594   -0.5689 H   0  0  0  0  0  0  0  0  0  0  0  0
    4.2358   -5.7362    0.2751 H   0  0  0  0  0  0  0  0  0  0  0  0
    1.8340   -4.1611    1.1099 H   0  0  0  0  0  0  0  0  0  0  0  0
    2.1957   -5.8474    1.2150 H   0  0  0  0  0  0  0  0  0  0  0  0
    1.1159   -4.1133    4.1355 H   0  0  0  0  0  0  0  0  0  0  0  0
   -0.5220   -6.3739    4.5397 H   0  0  0  0  0  0  0  0  0  0  0  0
   -1.0047   -6.7617    2.9152 H   0  0  0  0  0  0  0  0  0  0  0  0
   -0.1745  -10.1078    4.1830 H   0  0  0  0  0  0  0  0  0  0  0  0
   -1.4234   -9.1334    3.4352 H   0  0  0  0  0  0  0  0  0  0  0  0
   -0.9472   -8.8250    5.0974 H   0  0  0  0  0  0  0  0  0  0  0  0
    1.2654   -9.5980    2.2078 H   0  0  0  0  0  0  0  0  0  0  0  0
    1.7257   -7.9580    1.7903 H   0  0  0  0  0  0  0  0  0  0  0  0
    0.0729   -8.4993    1.5429 H   0  0  0  0  0  0  0  0  0  0  0  0
    2.3034   -9.1019    4.3987 H   0  0  0  0  0  0  0  0  0  0  0  0
    2.6864   -0.5732    0.8687 H   0  0  0  0  0  0  0  0  0  0  0  0
    2.6271   -2.2456    0.4407 H   0  0  0  0  0  0  0  0  0  0  0  0
    4.1592   -1.4237    0.7648 H   0  0  0  0  0  0  0  0  0  0  0  0
    0.9463   -2.5558    2.4820 H   0  0  0  0  0  0  0  0  0  0  0  0
    1.3883   -1.9876    4.0360 H   0  0  0  0  0  0  0  0  0  0  0  0
    0.5784   -0.3697    1.6717 H   0  0  0  0  0  0  0  0  0  0  0  0
   -0.0289   -0.2973    3.2952 H   0  0  0  0  0  0  0  0  0  0  0  0
    1.6113    1.5827    2.2674 H   0  0  0  0  0  0  0  0  0  0  0  0
    3.9303    1.2873    2.9575 H   0  0  0  0  0  0  0  0  0  0  0  0
    4.7653   -0.7450    2.8301 H   0  0  0  0  0  0  0  0  0  0  0  0
    3.7157   -1.0192    5.5530 H   0  0  0  0  0  0  0  0  0  0  0  0
    5.2961   -1.1405    4.8747 H   0  0  0  0  0  0  0  0  0  0  0  0
    3.0982    2.9099    5.3834 H   0  0  0  0  0  0  0  0  0  0  0  0
    1.4140    3.1598    4.8816 H   0  0  0  0  0  0  0  0  0  0  0  0
    2.7139    3.2303    3.6877 H   0  0  0  0  0  0  0  0  0  0  0  0
    2.3657    0.7490    6.4370 H   0  0  0  0  0  0  0  0  0  0  0  0
    1.5410   -0.4894    5.4807 H   0  0  0  0  0  0  0  0  0  0  0  0
    0.7105    1.0199    5.8565 H   0  0  0  0  0  0  0  0  0  0  0  0
    1.3360   -8.3475    5.6248 H   0  0  0  0  0  0  0  0  0  0  0  0
    3.6412   -7.6953    2.9678 H   0  0  0  0  0  0  0  0  0  0  0  0
  1  2  1  0
  1 39  1  0
  1 40  1  0
  1 41  1  0
  3  2  1  1
 27  3  1  1
  3 35  1  0
  3  4  1  0
  4  5  1  0
  4 42  1  0
  4 43  1  0
  5 44  1  0
  5 45  1  0
  5  6  1  0
  6 20  1  0
  6  7  2  0
  7 26  1  0
  7  8  1  0
  8  9  1  0
  8 90  1  0
  9 19  1  0
  9 10  1  0
  9 46  1  1
 10 11  1  0
 10 47  1  0
 10 48  1  0
 11 27  1  0
 11 12  1  0
 11 49  1  6
 12 13  1  0
 12 17  1  0
 13 14  1  0
 13 50  1  0
 13 51  1  0
 14 16  1  0
 14 15  1  0
 14 52  1  0
 15 16  1  0
 15 53  1  0
 15 54  1  0
 16 55  1  0
 16 56  1  0
 17 18  1  0
 17 57  1  0
 17 58  1  0
 19 18  1  6
 18 59  1  0
 18 60  1  0
 19 20  1  0
 19 27  1  0
 20 21  1  0
 20 61  1  1
 21 22  1  0
 22 23  1  0
 22 62  1  0
 22 63  1  0
 23 24  1  0
 23 25  1  0
 23 26  1  0
 24 64  1  0
 24 65  1  0
 24 66  1  0
 25 67  1  0
 25 68  1  0
 25 69  1  0
 26 70  1  0
 26 89  1  0
 27 28  1  0
 28 34  1  0
 28 29  1  6
 28 30  1  0
 29 71  1  0
 29 72  1  0
 29 73  1  0
 30 31  1  0
 30 74  1  0
 30 75  1  0
 31 32  1  0
 31 76  1  0
 31 77  1  0
 32 36  1  0
 32 33  1  0
 32 78  1  6
 33 34  1  0
 33 36  1  0
 33 79  1  6
 34 35  1  0
 34 80  1  6
 35 81  1  0
 35 82  1  0
 36 37  1  0
 36 38  1  0
 37 83  1  0
 37 84  1  0
 37 85  1  0
 38 86  1  0
 38 87  1  0
 38 88  1  0
M  END
>  <i_m_ct_stereo_status>  (283) 
1

>  <s_m_source_file>  (283) 
/var/tmp/pbs.5076255.sched01/tmpvuzdko10/1206lwnzxed.sdf

>  <i_m_source_file_index>  (283) 
12

>  <i_lp_mmshare_version>  (283) 
48012

>  <i_f3d_flags>  (283) 
0

>  <s_epik_input>  (283) 
W0NIM11DMShbQ0gzXSlbQ0BASF0yW0NASF0xW0NIMl1bQ0gyXVtDQEBdMyhbQ0gzXSlbQ0BASF0yW0NIMl1bQ0BAXShbQ0BAXTM0W0NAXTU2NykoT1tDSDNdKVtDSDJdW0NIMl1bQ0BASF04QyhbQ0gyXUMoW0NIM10pKFtDSDNdKVtDSDJdT1tDSF03OCk9TltDQEhdNVtDSDJdW0NASF00TihbQ0gyXVtDSDJdNilbQ0gyXVtDSF05W0NIMl1bQ0gyXTk=

>  <s_epik_cmdline>  (283) 
J2VwaWtfcHl0aG9uJywgJy1waHQnLCAnMi4wJywgJy1waCcsICc3LjAnLCAnLXRuJywgJzgnLCAnLW1hJywgJzIwMCcsICctaW1hZScsICc8aW5maWxlLm1hZT4nLCAnLW9tYWUnLCAnPG91dGZpbGUubWFlPic=

>  <r_lp_tautomer_probability>  (283) 
1

>  <r_epik_Ionization_Penalty>  (283) 
2.86937

>  <r_epik_Ionization_Penalty_Charging>  (283) 
5.50295e-05

>  <r_epik_Ionization_Penalty_Neutral>  (283) 
2.86931

>  <r_epik_State_Penalty>  (283) 
-0

>  <r_epik_Charging_Adjusted_Penalty>  (283) 
5.50295e-05

>  <i_epik_Tot_Q>  (283) 
0

>  <i_epik_Tot_abs_Q>  (283) 
0

>  <s_epik_Chemistry_Notes>  (283) 
This compound has an imine and may undergo hydrolysis.

>  <s_lp_Force_Field>  (283) 
OPLS3e

>  <r_lp_Energy>  (283) 
213.911

>  <b_lp_Chiralities_Consistent>  (283) 
1

>  <s_lp_Variant>  (283) 
97:0-1

>  <s_i_glide_gridfile>  (283) 
pfpi4k_grid

>  <i_i_glide_lignum>  (283) 
12

>  <i_i_glide_rotatable_bonds>  (283) 
3

>  <r_i_docking_score>  (283) 
-1.64002

>  <r_i_glide_ligand_efficiency>  (283) 
-0.0431585

>  <r_i_glide_ligand_efficiency_sa>  (283) 
-0.145098

>  <r_i_glide_ligand_efficiency_ln>  (283) 
-0.353637

>  <r_i_glide_gscore>  (283) 
-1.64002

>  <r_i_glide_lipo>  (283) 
-0.278203

>  <r_i_glide_hbond>  (283) 
-0.02677

>  <r_i_glide_metal>  (283) 
-0

>  <r_i_glide_rewards>  (283) 
0

>  <r_i_glide_evdw>  (283) 
-24.2071

>  <r_i_glide_ecoul>  (283) 
-1.84169

>  <r_i_glide_erotb>  (283) 
0.151562

>  <r_i_glide_esite>  (283) 
0

>  <r_i_glide_emodel>  (283) 
-27.9749

>  <r_i_glide_energy>  (283) 
-26.0488

>  <r_i_glide_einternal>  (283) 
1.08383

>  <r_i_glide_intrahb_reward>  (283) 
-0

>  <i_i_glide_confnum>  (283) 
2

>  <i_i_glide_posenum>  (283) 
1

>  <r_i_glide_eff_state_penalty>  (283) 
0

>  <ligand_id>  (283) 
97

>  <original_smiles>  (283) 
COC12CCC3C4=NC5CC6N(CC7CC7)CCC5(C3OCC(C)(C)C4)C61C1(C)CCC3C(C1C2)C3(C)C

>  <smiles>  (283) 
[H]N1C2=C3C([H])([H])C([H])([H])C4(OC([H])([H])[H])C([H])([H])C5([H])C6([H])C([H])(C([H])([H])C([H])([H])C5(C([H])([H])[H])C45C4([H])N(C([H])([H])C7([H])C([H])([H])C7([H])[H])C([H])([H])C([H])([H])C5(C3([H])OC([H])([H])C(C([H])([H])[H])(C([H])([H])[H])C2([H])[H])C1([H])C4([H])[H])C6(C([H])([H])[H])C([H])([H])[H]

$$$$
97:0:1
     RDKit          3D

 90 98  0  0  1  0  0  0  0  0999 V2000
    4.2215   -3.7818    6.3064 C   0  0  0  0  0  0  0  0  0  0  0  0
    4.4197   -4.8354    5.3654 O   0  0  0  0  0  0  0  0  0  0  0  0
    4.0350   -4.6572    3.9872 C   0  0  2  0  0  0  0  0  0  0  0  0
    2.5581   -4.0617    3.9032 C   0  0  0  0  0  0  0  0  0  0  0  0
    1.3110   -4.7977    4.4933 C   0  0  0  0  0  0  0  0  0  0  0  0
    0.8740   -6.1272    3.8805 C   0  0  0  0  0  0  0  0  0  0  0  0
    0.6954   -7.1962    4.6923 C   0  0  0  0  0  0  0  0  0  0  0  0
    1.8070   -7.9974    4.9565 N   0  0  0  0  0  0  0  0  0  0  0  0
    3.0688   -7.3876    4.5448 C   0  0  1  0  0  0  0  0  0  0  0  0
    4.4429   -7.7111    5.0642 C   0  0  0  0  0  0  0  0  0  0  0  0
    5.3122   -6.9928    3.9695 C   0  0  1  0  0  0  0  0  0  0  0  0
    5.8503   -8.0667    3.1133 N   0  0  0  0  0  0  0  0  0  0  0  0
    6.9536   -8.8552    3.6684 C   0  0  0  0  0  0  0  0  0  0  0  0
    8.2278   -8.0529    3.8545 C   0  0  0  0  0  0  0  0  0  0  0  0
    9.4391   -8.7345    4.4499 C   0  0  0  0  0  0  0  0  0  0  0  0
    8.7133   -7.6683    5.2319 C   0  0  0  0  0  0  0  0  0  0  0  0
    4.8133   -8.9631    2.5920 C   0  0  0  0  0  0  0  0  0  0  0  0
    3.5227   -8.2333    2.1876 C   0  0  0  0  0  0  0  0  0  0  0  0
    3.1274   -6.9943    3.0526 C   0  0  1  0  0  0  0  0  0  0  0  0
    1.6964   -6.4606    2.6373 C   0  0  1  0  0  0  0  0  0  0  0  0
    1.0547   -7.4528    1.8241 O   0  0  0  0  0  0  0  0  0  0  0  0
   -0.3502   -7.6311    1.9064 C   0  0  0  0  0  0  0  0  0  0  0  0
   -0.7730   -8.5720    3.0571 C   0  0  0  0  0  0  0  0  0  0  0  0
   -2.2696   -8.7962    2.8950 C   0  0  0  0  0  0  0  0  0  0  0  0
   -0.1241   -9.9655    2.9333 C   0  0  0  0  0  0  0  0  0  0  0  0
   -0.5756   -7.9971    4.4867 C   0  0  0  0  0  0  0  0  0  0  0  0
    4.3497   -5.9971    3.1275 C   0  0  1  0  0  0  0  0  0  0  0  0
    4.9581   -5.4135    1.7446 C   0  0  1  0  0  0  0  0  0  0  0  0
    5.9825   -6.2764    0.9530 C   0  0  0  0  0  0  0  0  0  0  0  0
    3.8944   -4.9628    0.7129 C   0  0  0  0  0  0  0  0  0  0  0  0
    4.4391   -4.2033   -0.5142 C   0  0  0  0  0  0  0  0  0  0  0  0
    5.5993   -3.2728   -0.2233 C   0  0  2  0  0  0  0  0  0  0  0  0
    6.2080   -3.1904    1.1795 C   0  0  2  0  0  0  0  0  0  0  0  0
    5.7322   -4.1846    2.2443 C   0  0  1  0  0  0  0  0  0  0  0  0
    5.0275   -3.5929    3.4549 C   0  0  0  0  0  0  0  0  0  0  0  0
    5.4869   -2.0033    0.5523 C   0  0  0  0  0  0  0  0  0  0  0  0
    6.3340   -0.8559    0.0891 C   0  0  0  0  0  0  0  0  0  0  0  0
    4.1607   -1.4353    0.9810 C   0  0  0  0  0  0  0  0  0  0  0  0
    4.7422   -4.0339    7.2317 H   0  0  0  0  0  0  0  0  0  0  0  0
    3.1689   -3.6572    6.5577 H   0  0  0  0  0  0  0  0  0  0  0  0
    4.6108   -2.8189    5.9740 H   0  0  0  0  0  0  0  0  0  0  0  0
    2.5791   -3.1055    4.4190 H   0  0  0  0  0  0  0  0  0  0  0  0
    2.3160   -3.7364    2.8979 H   0  0  0  0  0  0  0  0  0  0  0  0
    1.4473   -4.9478    5.5613 H   0  0  0  0  0  0  0  0  0  0  0  0
    0.4559   -4.1306    4.4104 H   0  0  0  0  0  0  0  0  0  0  0  0
    2.9329   -6.4894    5.1268 H   0  0  0  0  0  0  0  0  0  0  0  0
    4.5861   -7.2734    6.0476 H   0  0  0  0  0  0  0  0  0  0  0  0
    4.6109   -8.7752    5.1677 H   0  0  0  0  0  0  0  0  0  0  0  0
    6.1496   -6.4506    4.4163 H   0  0  0  0  0  0  0  0  0  0  0  0
    6.6628   -9.3434    4.6003 H   0  0  0  0  0  0  0  0  0  0  0  0
    7.1909   -9.6507    2.9593 H   0  0  0  0  0  0  0  0  0  0  0  0
    8.4632   -7.3951    3.0225 H   0  0  0  0  0  0  0  0  0  0  0  0
    9.3407   -9.7660    4.7815 H   0  0  0  0  0  0  0  0  0  0  0  0
   10.4114   -8.4648    4.0442 H   0  0  0  0  0  0  0  0  0  0  0  0
    9.1989   -6.7001    5.3252 H   0  0  0  0  0  0  0  0  0  0  0  0
    8.1122   -7.9770    6.0845 H   0  0  0  0  0  0  0  0  0  0  0  0
    5.1966   -9.4888    1.7210 H   0  0  0  0  0  0  0  0  0  0  0  0
    4.5836   -9.7359    3.3244 H   0  0  0  0  0  0  0  0  0  0  0  0
    3.5782   -7.9358    1.1454 H   0  0  0  0  0  0  0  0  0  0  0  0
    2.7489   -8.9914    2.2313 H   0  0  0  0  0  0  0  0  0  0  0  0
    1.7125   -5.5886    1.9974 H   0  0  0  0  0  0  0  0  0  0  0  0
   -0.8839   -6.6820    1.9388 H   0  0  0  0  0  0  0  0  0  0  0  0
   -0.6599   -8.1071    0.9791 H   0  0  0  0  0  0  0  0  0  0  0  0
   -2.5906   -9.4271    3.7137 H   0  0  0  0  0  0  0  0  0  0  0  0
   -2.5411   -9.3021    1.9654 H   0  0  0  0  0  0  0  0  0  0  0  0
   -2.8265   -7.8590    2.9623 H   0  0  0  0  0  0  0  0  0  0  0  0
   -0.5282  -10.6347    3.6903 H   0  0  0  0  0  0  0  0  0  0  0  0
    0.9516   -9.9434    3.0715 H   0  0  0  0  0  0  0  0  0  0  0  0
   -0.3407  -10.4384    1.9748 H   0  0  0  0  0  0  0  0  0  0  0  0
   -0.6394   -8.8034    5.2224 H   0  0  0  0  0  0  0  0  0  0  0  0
    6.3891   -5.7756    0.0807 H   0  0  0  0  0  0  0  0  0  0  0  0
    5.5478   -7.2011    0.5935 H   0  0  0  0  0  0  0  0  0  0  0  0
    6.8772   -6.5065    1.5323 H   0  0  0  0  0  0  0  0  0  0  0  0
    3.3240   -5.8163    0.3528 H   0  0  0  0  0  0  0  0  0  0  0  0
    3.1882   -4.2968    1.1727 H   0  0  0  0  0  0  0  0  0  0  0  0
    4.7793   -4.9276   -1.2597 H   0  0  0  0  0  0  0  0  0  0  0  0
    3.6584   -3.6211   -1.0003 H   0  0  0  0  0  0  0  0  0  0  0  0
    6.3054   -3.2301   -1.0529 H   0  0  0  0  0  0  0  0  0  0  0  0
    7.2932   -3.0847    1.1925 H   0  0  0  0  0  0  0  0  0  0  0  0
    6.6487   -4.6162    2.6540 H   0  0  0  0  0  0  0  0  0  0  0  0
    4.5156   -2.6665    3.2324 H   0  0  0  0  0  0  0  0  0  0  0  0
    5.7903   -3.3266    4.1823 H   0  0  0  0  0  0  0  0  0  0  0  0
    6.4917   -0.1728    0.9212 H   0  0  0  0  0  0  0  0  0  0  0  0
    5.8228   -0.3325   -0.7243 H   0  0  0  0  0  0  0  0  0  0  0  0
    7.3059   -1.2241   -0.2492 H   0  0  0  0  0  0  0  0  0  0  0  0
    4.3060   -0.7335    1.8092 H   0  0  0  0  0  0  0  0  0  0  0  0
    3.4817   -2.2236    1.2998 H   0  0  0  0  0  0  0  0  0  0  0  0
    3.6875   -0.8928    0.1536 H   0  0  0  0  0  0  0  0  0  0  0  0
   -1.4043   -7.3319    4.7347 H   0  0  0  0  0  0  0  0  0  0  0  0
    1.7431   -9.0024    4.9802 H   0  0  0  0  0  0  0  0  0  0  0  0
  1  2  1  0
  1 39  1  0
  1 40  1  0
  1 41  1  0
  3  2  1  1
 27  3  1  1
  3 35  1  0
  3  4  1  0
  4  5  1  0
  4 42  1  0
  4 43  1  0
  5 44  1  0
  5 45  1  0
  5  6  1  0
  6 20  1  0
  6  7  2  0
  7 26  1  0
  7  8  1  0
  8  9  1  0
  8 90  1  0
  9 19  1  0
  9 10  1  0
  9 46  1  1
 10 11  1  0
 10 47  1  0
 10 48  1  0
 11 27  1  0
 11 12  1  0
 11 49  1  1
 12 13  1  0
 12 17  1  0
 13 14  1  0
 13 50  1  0
 13 51  1  0
 14 16  1  0
 14 15  1  0
 14 52  1  0
 15 16  1  0
 15 53  1  0
 15 54  1  0
 16 55  1  0
 16 56  1  0
 17 18  1  0
 17 57  1  0
 17 58  1  0
 19 18  1  6
 18 59  1  0
 18 60  1  0
 19 20  1  0
 19 27  1  0
 20 21  1  0
 20 61  1  6
 21 22  1  0
 22 23  1  0
 22 62  1  0
 22 63  1  0
 23 24  1  0
 23 25  1  0
 23 26  1  0
 24 64  1  0
 24 65  1  0
 24 66  1  0
 25 67  1  0
 25 68  1  0
 25 69  1  0
 26 70  1  0
 26 89  1  0
 27 28  1  0
 28 34  1  0
 28 29  1  6
 28 30  1  0
 29 71  1  0
 29 72  1  0
 29 73  1  0
 30 31  1  0
 30 74  1  0
 30 75  1  0
 31 32  1  0
 31 76  1  0
 31 77  1  0
 32 36  1  0
 32 33  1  0
 32 78  1  6
 33 34  1  0
 33 36  1  0
 33 79  1  6
 34 35  1  0
 34 80  1  1
 35 81  1  0
 35 82  1  0
 36 37  1  0
 36 38  1  0
 37 83  1  0
 37 84  1  0
 37 85  1  0
 38 86  1  0
 38 87  1  0
 38 88  1  0
M  END
>  <i_m_ct_stereo_status>  (284) 
1

>  <s_m_source_file>  (284) 
/var/tmp/pbs.5076255.sched01/tmpvuzdko10/1206lwnzxed.sdf

>  <i_m_source_file_index>  (284) 
12

>  <i_lp_mmshare_version>  (284) 
48012

>  <i_f3d_flags>  (284) 
0

>  <s_epik_input>  (284) 
W0NIM11DMShbQ0gzXSlbQ0BASF0yW0NASF0xW0NIMl1bQ0gyXVtDQEBdMyhbQ0gzXSlbQ0BASF0yW0NIMl1bQ0BAXShbQ0BAXTM0W0NAXTU2NykoT1tDSDNdKVtDSDJdW0NIMl1bQ0BASF04QyhbQ0gyXUMoW0NIM10pKFtDSDNdKVtDSDJdT1tDSF03OCk9TltDQEhdNVtDSDJdW0NASF00TihbQ0gyXVtDSDJdNilbQ0gyXVtDSF05W0NIMl1bQ0gyXTk=

>  <s_epik_cmdline>  (284) 
J2VwaWtfcHl0aG9uJywgJy1waHQnLCAnMi4wJywgJy1waCcsICc3LjAnLCAnLXRuJywgJzgnLCAnLW1hJywgJzIwMCcsICctaW1hZScsICc8aW5maWxlLm1hZT4nLCAnLW9tYWUnLCAnPG91dGZpbGUubWFlPic=

>  <r_lp_tautomer_probability>  (284) 
1

>  <r_epik_Ionization_Penalty>  (284) 
2.86937

>  <r_epik_Ionization_Penalty_Charging>  (284) 
5.50295e-05

>  <r_epik_Ionization_Penalty_Neutral>  (284) 
2.86931

>  <r_epik_State_Penalty>  (284) 
-0

>  <r_epik_Charging_Adjusted_Penalty>  (284) 
5.50295e-05

>  <i_epik_Tot_Q>  (284) 
0

>  <i_epik_Tot_abs_Q>  (284) 
0

>  <s_epik_Chemistry_Notes>  (284) 
This compound has an imine and may undergo hydrolysis.

>  <s_lp_Force_Field>  (284) 
OPLS3e

>  <r_lp_Energy>  (284) 
213.911

>  <b_lp_Chiralities_Consistent>  (284) 
1

>  <s_lp_Variant>  (284) 
97:0-1

>  <s_i_glide_gridfile>  (284) 
pfpi4k_grid

>  <i_i_glide_lignum>  (284) 
12

>  <i_i_glide_rotatable_bonds>  (284) 
3

>  <r_i_docking_score>  (284) 
-1.62182

>  <r_i_glide_ligand_efficiency>  (284) 
-0.0426796

>  <r_i_glide_ligand_efficiency_sa>  (284) 
-0.143488

>  <r_i_glide_ligand_efficiency_ln>  (284) 
-0.349713

>  <r_i_glide_gscore>  (284) 
-1.62182

>  <r_i_glide_lipo>  (284) 
-0.405518

>  <r_i_glide_hbond>  (284) 
0

>  <r_i_glide_metal>  (284) 
-0

>  <r_i_glide_rewards>  (284) 
0

>  <r_i_glide_evdw>  (284) 
-25.6896

>  <r_i_glide_ecoul>  (284) 
-0.506531

>  <r_i_glide_erotb>  (284) 
0.151562

>  <r_i_glide_esite>  (284) 
-0.00740693

>  <r_i_glide_emodel>  (284) 
-28.353

>  <r_i_glide_energy>  (284) 
-26.1962

>  <r_i_glide_einternal>  (284) 
0.12853

>  <r_i_glide_intrahb_reward>  (284) 
-0

>  <i_i_glide_confnum>  (284) 
2

>  <i_i_glide_posenum>  (284) 
34

>  <r_i_glide_eff_state_penalty>  (284) 
0

>  <ligand_id>  (284) 
97

>  <original_smiles>  (284) 
COC12CCC3C4=NC5CC6N(CC7CC7)CCC5(C3OCC(C)(C)C4)C61C1(C)CCC3C(C1C2)C3(C)C

>  <smiles>  (284) 
[H]N1C2=C3C([H])([H])C([H])([H])C4(OC([H])([H])[H])C([H])([H])C5([H])C6([H])C([H])(C([H])([H])C([H])([H])C5(C([H])([H])[H])C45C4([H])N(C([H])([H])C7([H])C([H])([H])C7([H])[H])C([H])([H])C([H])([H])C5(C3([H])OC([H])([H])C(C([H])([H])[H])(C([H])([H])[H])C2([H])[H])C1([H])C4([H])[H])C6(C([H])([H])[H])C([H])([H])[H]

$$$$
97:0:2
     RDKit          3D

 90 98  0  0  1  0  0  0  0  0999 V2000
    1.7668   -3.5647    8.7593 C   0  0  0  0  0  0  0  0  0  0  0  0
    2.4836   -4.0049    7.6049 O   0  0  0  0  0  0  0  0  0  0  0  0
    2.1380   -3.5064    6.2962 C   0  0  2  0  0  0  0  0  0  0  0  0
    0.5620   -3.6012    6.0851 C   0  0  0  0  0  0  0  0  0  0  0  0
   -0.2147   -4.9601    6.1374 C   0  0  0  0  0  0  0  0  0  0  0  0
    0.0432   -6.0183    5.0521 C   0  0  0  0  0  0  0  0  0  0  0  0
    0.3415   -7.2858    5.4287 C   0  0  0  0  0  0  0  0  0  0  0  0
    1.6865   -7.5765    5.6924 N   0  0  0  0  0  0  0  0  0  0  0  0
    2.5268   -6.3892    5.7767 C   0  0  1  0  0  0  0  0  0  0  0  0
    3.8673   -6.2818    6.4661 C   0  0  0  0  0  0  0  0  0  0  0  0
    4.3484   -4.9186    5.8587 C   0  0  1  0  0  0  0  0  0  0  0  0
    5.3884   -5.2595    4.8647 N   0  0  0  0  0  0  0  0  0  0  0  0
    6.7051   -5.6547    5.3679 C   0  0  0  0  0  0  0  0  0  0  0  0
    7.2968   -4.6810    6.3692 C   0  0  0  0  0  0  0  0  0  0  0  0
    8.5634   -5.0570    7.1103 C   0  0  0  0  0  0  0  0  0  0  0  0
    7.2508   -4.9991    7.8466 C   0  0  0  0  0  0  0  0  0  0  0  0
    4.9324   -6.2288    3.8676 C   0  0  0  0  0  0  0  0  0  0  0  0
    3.4664   -6.0217    3.4311 C   0  0  0  0  0  0  0  0  0  0  0  0
    2.4806   -5.4822    4.5202 C   0  0  1  0  0  0  0  0  0  0  0  0
    0.9887   -5.4898    3.9771 C   0  0  1  0  0  0  0  0  0  0  0  0
    0.9279   -6.2963    2.7868 O   0  0  0  0  0  0  0  0  0  0  0  0
   -0.2164   -7.0986    2.4901 C   0  0  0  0  0  0  0  0  0  0  0  0
   -0.2403   -8.4903    3.1770 C   0  0  0  0  0  0  0  0  0  0  0  0
   -1.4650   -9.2492    2.6266 C   0  0  0  0  0  0  0  0  0  0  0  0
    1.0074   -9.3079    2.7834 C   0  0  0  0  0  0  0  0  0  0  0  0
   -0.3930   -8.4193    4.7252 C   0  0  0  0  0  0  0  0  0  0  0  0
    3.0876   -4.1759    5.1652 C   0  0  1  0  0  0  0  0  0  0  0  0
    3.4407   -2.9128    4.2039 C   0  0  1  0  0  0  0  0  0  0  0  0
    4.7954   -2.9167    3.4273 C   0  0  0  0  0  0  0  0  0  0  0  0
    2.3430   -2.5990    3.1477 C   0  0  0  0  0  0  0  0  0  0  0  0
    2.5334   -1.2881    2.3555 C   0  0  0  0  0  0  0  0  0  0  0  0
    3.1115   -0.1268    3.1546 C   0  0  2  0  0  0  0  0  0  0  0  0
    3.5312   -0.3160    4.6063 C   0  0  2  0  0  0  0  0  0  0  0  0
    3.5199   -1.7382    5.1983 C   0  0  1  0  0  0  0  0  0  0  0  0
    2.5489   -2.0071    6.3409 C   0  0  0  0  0  0  0  0  0  0  0  0
    2.3689    0.6138    4.2356 C   0  0  0  0  0  0  0  0  0  0  0  0
    2.6049    2.1100    4.3589 C   0  0  0  0  0  0  0  0  0  0  0  0
    0.9042    0.3299    4.5172 C   0  0  0  0  0  0  0  0  0  0  0  0
    2.2967   -3.9021    9.6518 H   0  0  0  0  0  0  0  0  0  0  0  0
    0.7667   -3.9950    8.8030 H   0  0  0  0  0  0  0  0  0  0  0  0
    1.6782   -2.4800    8.8303 H   0  0  0  0  0  0  0  0  0  0  0  0
    0.1014   -2.9853    6.8562 H   0  0  0  0  0  0  0  0  0  0  0  0
    0.2475   -3.0693    5.1954 H   0  0  0  0  0  0  0  0  0  0  0  0
   -0.0851   -5.4195    7.1178 H   0  0  0  0  0  0  0  0  0  0  0  0
   -1.2786   -4.7363    6.0853 H   0  0  0  0  0  0  0  0  0  0  0  0
    1.9634   -5.9210    6.5699 H   0  0  0  0  0  0  0  0  0  0  0  0
    3.7464   -6.2129    7.5486 H   0  0  0  0  0  0  0  0  0  0  0  0
    4.5147   -7.1360    6.2822 H   0  0  0  0  0  0  0  0  0  0  0  0
    4.7798   -4.2720    6.6228 H   0  0  0  0  0  0  0  0  0  0  0  0
    6.6818   -6.6574    5.7982 H   0  0  0  0  0  0  0  0  0  0  0  0
    7.3839   -5.6935    4.5125 H   0  0  0  0  0  0  0  0  0  0  0  0
    7.2178   -3.6326    6.0807 H   0  0  0  0  0  0  0  0  0  0  0  0
    8.9932   -6.0391    6.9155 H   0  0  0  0  0  0  0  0  0  0  0  0
    9.2821   -4.2700    7.3230 H   0  0  0  0  0  0  0  0  0  0  0  0
    7.0918   -4.1667    8.5279 H   0  0  0  0  0  0  0  0  0  0  0  0
    6.7881   -5.9376    8.1432 H   0  0  0  0  0  0  0  0  0  0  0  0
    5.5794   -6.1735    2.9914 H   0  0  0  0  0  0  0  0  0  0  0  0
    5.0481   -7.2454    4.2486 H   0  0  0  0  0  0  0  0  0  0  0  0
    3.4325   -5.3705    2.5633 H   0  0  0  0  0  0  0  0  0  0  0  0
    3.1407   -6.9930    3.0704 H   0  0  0  0  0  0  0  0  0  0  0  0
    0.6337   -4.5246    3.6466 H   0  0  0  0  0  0  0  0  0  0  0  0
   -1.1429   -6.5628    2.6816 H   0  0  0  0  0  0  0  0  0  0  0  0
   -0.1823   -7.2609    1.4115 H   0  0  0  0  0  0  0  0  0  0  0  0
   -1.5298  -10.2389    3.0716 H   0  0  0  0  0  0  0  0  0  0  0  0
   -1.4105   -9.3880    1.5491 H   0  0  0  0  0  0  0  0  0  0  0  0
   -2.3984   -8.7275    2.8418 H   0  0  0  0  0  0  0  0  0  0  0  0
    0.9442  -10.3281    3.1632 H   0  0  0  0  0  0  0  0  0  0  0  0
    1.9241   -8.8726    3.1711 H   0  0  0  0  0  0  0  0  0  0  0  0
    1.1082   -9.3789    1.6992 H   0  0  0  0  0  0  0  0  0  0  0  0
   -0.1204   -9.3751    5.1768 H   0  0  0  0  0  0  0  0  0  0  0  0
    4.9665   -2.0082    2.8553 H   0  0  0  0  0  0  0  0  0  0  0  0
    4.8733   -3.7307    2.7118 H   0  0  0  0  0  0  0  0  0  0  0  0
    5.6567   -2.9529    4.0943 H   0  0  0  0  0  0  0  0  0  0  0  0
    2.2560   -3.4199    2.4351 H   0  0  0  0  0  0  0  0  0  0  0  0
    1.3786   -2.5247    3.6183 H   0  0  0  0  0  0  0  0  0  0  0  0
    3.2028   -1.4820    1.5148 H   0  0  0  0  0  0  0  0  0  0  0  0
    1.5929   -0.9726    1.9015 H   0  0  0  0  0  0  0  0  0  0  0  0
    3.7672    0.4913    2.5470 H   0  0  0  0  0  0  0  0  0  0  0  0
    4.4355    0.2156    4.8932 H   0  0  0  0  0  0  0  0  0  0  0  0
    4.4993   -1.8373    5.6748 H   0  0  0  0  0  0  0  0  0  0  0  0
    1.6789   -1.3606    6.3154 H   0  0  0  0  0  0  0  0  0  0  0  0
    3.0632   -1.7485    7.2672 H   0  0  0  0  0  0  0  0  0  0  0  0
    2.4172    2.4396    5.3816 H   0  0  0  0  0  0  0  0  0  0  0  0
    1.9480    2.6641    3.6855 H   0  0  0  0  0  0  0  0  0  0  0  0
    3.6362    2.3608    4.1027 H   0  0  0  0  0  0  0  0  0  0  0  0
    0.6532    0.6522    5.5307 H   0  0  0  0  0  0  0  0  0  0  0  0
    0.6678   -0.7257    4.4215 H   0  0  0  0  0  0  0  0  0  0  0  0
    0.2731    0.8796    3.8134 H   0  0  0  0  0  0  0  0  0  0  0  0
   -1.4474   -8.2856    4.9708 H   0  0  0  0  0  0  0  0  0  0  0  0
    2.0982   -8.4495    5.3941 H   0  0  0  0  0  0  0  0  0  0  0  0
  1  2  1  0
  1 39  1  0
  1 40  1  0
  1 41  1  0
  3  2  1  1
 27  3  1  1
  3 35  1  0
  3  4  1  0
  4  5  1  0
  4 42  1  0
  4 43  1  0
  5 44  1  0
  5 45  1  0
  5  6  1  0
  6 20  1  0
  6  7  2  0
  7 26  1  0
  7  8  1  0
  8  9  1  0
  8 90  1  0
  9 19  1  0
  9 10  1  0
  9 46  1  1
 10 11  1  0
 10 47  1  0
 10 48  1  0
 11 27  1  0
 11 12  1  0
 11 49  1  1
 12 13  1  0
 12 17  1  0
 13 14  1  0
 13 50  1  0
 13 51  1  0
 14 16  1  0
 14 15  1  0
 14 52  1  0
 15 16  1  0
 15 53  1  0
 15 54  1  0
 16 55  1  0
 16 56  1  0
 17 18  1  0
 17 57  1  0
 17 58  1  0
 19 18  1  6
 18 59  1  0
 18 60  1  0
 19 20  1  0
 19 27  1  0
 20 21  1  0
 20 61  1  6
 21 22  1  0
 22 23  1  0
 22 62  1  0
 22 63  1  0
 23 24  1  0
 23 25  1  0
 23 26  1  0
 24 64  1  0
 24 65  1  0
 24 66  1  0
 25 67  1  0
 25 68  1  0
 25 69  1  0
 26 70  1  0
 26 89  1  0
 27 28  1  0
 28 34  1  0
 28 29  1  6
 28 30  1  0
 29 71  1  0
 29 72  1  0
 29 73  1  0
 30 31  1  0
 30 74  1  0
 30 75  1  0
 31 32  1  0
 31 76  1  0
 31 77  1  0
 32 36  1  0
 32 33  1  0
 32 78  1  6
 33 34  1  0
 33 36  1  0
 33 79  1  6
 34 35  1  0
 34 80  1  1
 35 81  1  0
 35 82  1  0
 36 37  1  0
 36 38  1  0
 37 83  1  0
 37 84  1  0
 37 85  1  0
 38 86  1  0
 38 87  1  0
 38 88  1  0
M  END
>  <i_m_ct_stereo_status>  (285) 
1

>  <s_m_source_file>  (285) 
/var/tmp/pbs.5076255.sched01/tmpvuzdko10/1206lwnzxed.sdf

>  <i_m_source_file_index>  (285) 
12

>  <i_lp_mmshare_version>  (285) 
48012

>  <i_f3d_flags>  (285) 
0

>  <s_epik_input>  (285) 
W0NIM11DMShbQ0gzXSlbQ0BASF0yW0NASF0xW0NIMl1bQ0gyXVtDQEBdMyhbQ0gzXSlbQ0BASF0yW0NIMl1bQ0BAXShbQ0BAXTM0W0NAXTU2NykoT1tDSDNdKVtDSDJdW0NIMl1bQ0BASF04QyhbQ0gyXUMoW0NIM10pKFtDSDNdKVtDSDJdT1tDSF03OCk9TltDQEhdNVtDSDJdW0NASF00TihbQ0gyXVtDSDJdNilbQ0gyXVtDSF05W0NIMl1bQ0gyXTk=

>  <s_epik_cmdline>  (285) 
J2VwaWtfcHl0aG9uJywgJy1waHQnLCAnMi4wJywgJy1waCcsICc3LjAnLCAnLXRuJywgJzgnLCAnLW1hJywgJzIwMCcsICctaW1hZScsICc8aW5maWxlLm1hZT4nLCAnLW9tYWUnLCAnPG91dGZpbGUubWFlPic=

>  <r_lp_tautomer_probability>  (285) 
1

>  <r_epik_Ionization_Penalty>  (285) 
2.86937

>  <r_epik_Ionization_Penalty_Charging>  (285) 
5.50295e-05

>  <r_epik_Ionization_Penalty_Neutral>  (285) 
2.86931

>  <r_epik_State_Penalty>  (285) 
-0

>  <r_epik_Charging_Adjusted_Penalty>  (285) 
5.50295e-05

>  <i_epik_Tot_Q>  (285) 
0

>  <i_epik_Tot_abs_Q>  (285) 
0

>  <s_epik_Chemistry_Notes>  (285) 
This compound has an imine and may undergo hydrolysis.

>  <s_lp_Force_Field>  (285) 
OPLS3e

>  <r_lp_Energy>  (285) 
213.911

>  <b_lp_Chiralities_Consistent>  (285) 
1

>  <s_lp_Variant>  (285) 
97:0-1

>  <s_i_glide_gridfile>  (285) 
pfpi4k_grid

>  <i_i_glide_lignum>  (285) 
12

>  <i_i_glide_rotatable_bonds>  (285) 
3

>  <r_i_docking_score>  (285) 
-1.21262

>  <r_i_glide_ligand_efficiency>  (285) 
-0.031911

>  <r_i_glide_ligand_efficiency_sa>  (285) 
-0.107284

>  <r_i_glide_ligand_efficiency_ln>  (285) 
-0.261476

>  <r_i_glide_gscore>  (285) 
-1.21262

>  <r_i_glide_lipo>  (285) 
-0.247104

>  <r_i_glide_hbond>  (285) 
0

>  <r_i_glide_metal>  (285) 
-0

>  <r_i_glide_rewards>  (285) 
0

>  <r_i_glide_evdw>  (285) 
-20.5499

>  <r_i_glide_ecoul>  (285) 
-0.560986

>  <r_i_glide_erotb>  (285) 
0.151562

>  <r_i_glide_esite>  (285) 
-0.00543498

>  <r_i_glide_emodel>  (285) 
-22.6872

>  <r_i_glide_energy>  (285) 
-21.1109

>  <r_i_glide_einternal>  (285) 
0.24828

>  <r_i_glide_intrahb_reward>  (285) 
-0

>  <i_i_glide_confnum>  (285) 
2

>  <i_i_glide_posenum>  (285) 
18

>  <r_i_glide_eff_state_penalty>  (285) 
0

>  <ligand_id>  (285) 
97

>  <original_smiles>  (285) 
COC12CCC3C4=NC5CC6N(CC7CC7)CCC5(C3OCC(C)(C)C4)C61C1(C)CCC3C(C1C2)C3(C)C

>  <smiles>  (285) 
[H]N1C2=C3C([H])([H])C([H])([H])C4(OC([H])([H])[H])C([H])([H])C5([H])C6([H])C([H])(C([H])([H])C([H])([H])C5(C([H])([H])[H])C45C4([H])N(C([H])([H])C7([H])C([H])([H])C7([H])[H])C([H])([H])C([H])([H])C5(C3([H])OC([H])([H])C(C([H])([H])[H])(C([H])([H])[H])C2([H])[H])C1([H])C4([H])[H])C6(C([H])([H])[H])C([H])([H])[H]

$$$$
98:0:0
     RDKit          3D

 50 54  0  0  1  0  0  0  0  0999 V2000
    0.4762   -6.8130    3.1694 C   0  0  0  0  0  0  0  0  0  0  0  0
    1.9373   -6.5257    2.8319 C   0  0  2  0  0  0  0  0  0  0  0  0
    2.4180   -5.1900    3.4076 C   0  0  0  0  0  0  0  0  0  0  0  0
    3.7796   -4.9685    3.0429 O   0  0  0  0  0  0  0  0  0  0  0  0
    4.0353   -4.8069    1.6739 C   0  0  1  0  0  0  0  0  0  0  0  0
    3.2345   -3.7750    1.1338 O   0  0  0  0  0  0  0  0  0  0  0  0
    3.5681   -3.2099   -0.1517 C   0  0  2  0  0  0  0  0  0  0  0  0
    4.7038   -3.9003   -0.9188 C   0  0  1  0  0  0  0  0  0  0  0  0
    5.7897   -4.6138   -0.0500 C   0  0  0  0  0  0  0  0  0  0  0  0
    5.5404   -4.3298    1.4833 C   0  0  2  0  0  0  0  0  0  0  0  0
    6.5153   -5.1575    2.3400 C   0  0  0  0  0  0  0  0  0  0  0  0
    5.7133   -2.8186    1.8743 C   0  0  0  0  0  0  0  0  0  0  0  0
    4.8175   -2.0924    2.6803 C   0  0  0  0  0  0  0  0  0  0  0  0
    4.0966   -2.3107    3.6673 O   0  0  0  0  0  0  0  0  0  0  0  0
    4.4987   -0.9287    2.0087 O   0  0  0  0  0  0  0  0  0  0  0  0
    4.9781   -1.0038    0.6600 C   0  0  1  0  0  0  0  0  0  0  0  0
    6.1664   -1.8854    0.8771 C   0  0  0  0  0  0  0  0  0  0  0  0
    7.2416   -1.8120    0.2720 O   0  0  0  0  0  0  0  0  0  0  0  0
    3.8810   -1.6615   -0.3076 C   0  0  1  0  0  0  0  0  0  0  0  0
    4.2304   -1.6339   -1.8434 C   0  0  1  0  0  0  0  0  0  0  0  0
    3.0191   -1.3482   -2.7436 C   0  0  0  0  0  0  0  0  0  0  0  0
    5.1894   -0.6470   -2.1308 O   0  0  0  0  0  0  0  0  0  0  0  0
    4.8148   -3.0331   -2.1460 C   0  0  0  0  0  0  0  0  0  0  0  0
    5.2800   -3.3942   -3.2268 O   0  0  0  0  0  0  0  0  0  0  0  0
    3.5937   -6.1673    0.9911 C   0  0  1  0  0  0  0  0  0  0  0  0
    4.3865   -7.2814    1.3457 O   0  0  0  0  0  0  0  0  0  0  0  0
    2.1499   -6.5103    1.3236 C   0  0  0  0  0  0  0  0  0  0  0  0
   -0.1645   -6.0477    2.7367 H   0  0  0  0  0  0  0  0  0  0  0  0
    0.3271   -6.8146    4.2493 H   0  0  0  0  0  0  0  0  0  0  0  0
    0.1694   -7.7834    2.7721 H   0  0  0  0  0  0  0  0  0  0  0  0
    2.5521   -7.3175    3.2609 H   0  0  0  0  0  0  0  0  0  0  0  0
    1.7813   -4.3672    3.0823 H   0  0  0  0  0  0  0  0  0  0  0  0
    2.3560   -5.2139    4.4940 H   0  0  0  0  0  0  0  0  0  0  0  0
    2.6523   -3.3961   -0.7182 H   0  0  0  0  0  0  0  0  0  0  0  0
    5.5052   -3.2025   -0.8651 H   0  0  0  0  0  0  0  0  0  0  0  0
    5.7637   -5.6773   -0.2743 H   0  0  0  0  0  0  0  0  0  0  0  0
    6.8216   -4.3713   -0.3230 H   0  0  0  0  0  0  0  0  0  0  0  0
    6.5169   -6.2247    2.1228 H   0  0  0  0  0  0  0  0  0  0  0  0
    6.3116   -5.0346    3.4078 H   0  0  0  0  0  0  0  0  0  0  0  0
    7.5361   -4.8217    2.1546 H   0  0  0  0  0  0  0  0  0  0  0  0
    5.2889   -0.0128    0.3297 H   0  0  0  0  0  0  0  0  0  0  0  0
    2.9657   -1.0992   -0.1259 H   0  0  0  0  0  0  0  0  0  0  0  0
    2.2174   -2.0714   -2.5793 H   0  0  0  0  0  0  0  0  0  0  0  0
    3.2799   -1.3679   -3.8020 H   0  0  0  0  0  0  0  0  0  0  0  0
    2.6057   -0.3624   -2.5299 H   0  0  0  0  0  0  0  0  0  0  0  0
    4.8355    0.2015   -1.9191 H   0  0  0  0  0  0  0  0  0  0  0  0
    3.6008   -6.0779   -0.0904 H   0  0  0  0  0  0  0  0  0  0  0  0
    4.4309   -7.2757    2.2891 H   0  0  0  0  0  0  0  0  0  0  0  0
    1.9286   -7.4862    0.8920 H   0  0  0  0  0  0  0  0  0  0  0  0
    1.4895   -5.7988    0.8343 H   0  0  0  0  0  0  0  0  0  0  0  0
  1  2  1  0
  1 28  1  0
  1 29  1  0
  1 30  1  0
  2 27  1  0
  2  3  1  0
  2 31  1  1
  3  4  1  0
  3 32  1  0
  3 33  1  0
  5  4  1  1
  5 10  1  0
  5  6  1  0
  5 25  1  0
  6  7  1  0
  7 19  1  0
  7  8  1  0
  7 34  1  6
  8 23  1  0
  8  9  1  0
  8 35  1  6
  9 10  1  0
  9 36  1  0
  9 37  1  0
 10 11  1  1
 10 12  1  0
 11 38  1  0
 11 39  1  0
 11 40  1  0
 12 13  2  0
 12 17  1  0
 13 14  1  0
 13 15  1  0
 15 16  1  0
 16 19  1  0
 16 41  1  6
 16 17  1  0
 17 18  2  0
 19 20  1  0
 19 42  1  6
 20 21  1  0
 20 22  1  1
 20 23  1  0
 21 43  1  0
 21 44  1  0
 21 45  1  0
 22 46  1  0
 23 24  2  0
 25 26  1  0
 25 27  1  0
 25 47  1  6
 26 48  1  0
 27 49  1  0
 27 50  1  0
M  CHG  1  14  -1
M  END
>  <i_m_ct_stereo_status>  (286) 
1

>  <s_m_source_file>  (286) 
/var/tmp/pbs.5076255.sched01/tmpvuzdko10/1206lwnzxed.sdf

>  <i_m_source_file_index>  (286) 
13

>  <i_lp_mmshare_version>  (286) 
48012

>  <i_f3d_flags>  (286) 
0

>  <s_epik_input>  (286) 
W09IXVtDQEhdMVtDSDJdW0NASF0oW0NIM10pW0NIMl1PW0NAQF0xMltDQF0zKFtDSDNdKVtDQEBIXTRDKD1PKU9bQ0BASF0oQzQ9TylbQ0BASF01W0NASF0oTzIpW0NIXShbQ0gyXTMpQyg9TylbQ0BdNShbQ0gzXSlbT0hd

>  <s_epik_cmdline>  (286) 
J2VwaWtfcHl0aG9uJywgJy1waHQnLCAnMi4wJywgJy1waCcsICc3LjAnLCAnLXRuJywgJzgnLCAnLW1hJywgJzIwMCcsICctaW1hZScsICc8aW5maWxlLm1hZT4nLCAnLW9tYWUnLCAnPG91dGZpbGUubWFlPic=

>  <r_lp_tautomer_probability>  (286) 
0.99995

>  <r_epik_Ionization_Penalty>  (286) 
0.000548352

>  <r_epik_Ionization_Penalty_Charging>  (286) 
9.80299e-05

>  <r_epik_Ionization_Penalty_Neutral>  (286) 
0.000450322

>  <r_epik_State_Penalty>  (286) 
0.000189905

>  <r_epik_Charging_Adjusted_Penalty>  (286) 
0.000287935

>  <i_epik_Tot_Q>  (286) 
-1

>  <i_epik_Tot_abs_Q>  (286) 
1

>  <s_epik_Chemistry_Notes>  (286) 
This compound has an ester and may undergo hydrolysis at high or low pH.

>  <s_lp_Force_Field>  (286) 
OPLS3e

>  <r_lp_Energy>  (286) 
118.689

>  <b_lp_Chiralities_Consistent>  (286) 
1

>  <s_lp_Variant>  (286) 
98:0-1

>  <s_i_glide_gridfile>  (286) 
pfpi4k_grid

>  <i_i_glide_lignum>  (286) 
13

>  <i_i_glide_rotatable_bonds>  (286) 
2

>  <r_i_docking_score>  (286) 
-3.56493

>  <r_i_glide_ligand_efficiency>  (286) 
-0.132035

>  <r_i_glide_ligand_efficiency_sa>  (286) 
-0.396104

>  <r_i_glide_ligand_efficiency_ln>  (286) 
-0.829858

>  <r_i_glide_gscore>  (286) 
-3.56493

>  <r_i_glide_lipo>  (286) 
-0.391186

>  <r_i_glide_hbond>  (286) 
-0.0265235

>  <r_i_glide_metal>  (286) 
-0

>  <r_i_glide_rewards>  (286) 
-1.09549

>  <r_i_glide_evdw>  (286) 
-29.3565

>  <r_i_glide_ecoul>  (286) 
-3.89273

>  <r_i_glide_erotb>  (286) 
0

>  <r_i_glide_esite>  (286) 
0

>  <r_i_glide_emodel>  (286) 
-41.81

>  <r_i_glide_energy>  (286) 
-33.2493

>  <r_i_glide_einternal>  (286) 
0.0265615

>  <r_i_glide_intrahb_reward>  (286) 
-0

>  <i_i_glide_confnum>  (286) 
2

>  <i_i_glide_posenum>  (286) 
33

>  <r_i_glide_eff_state_penalty>  (286) 
0

>  <ligand_id>  (286) 
98

>  <original_smiles>  (286) 
CC1COC2(OC3C4CC2(C)C2C(=O)OC(C2=O)C3C(C)(O)C4=O)C(O)C1

>  <smiles>  (286) 
[H]OC1([H])C([H])([H])C([H])(C([H])([H])[H])C([H])([H])OC12OC1([H])C3([H])C(=O)C(O[H])(C([H])([H])[H])C1([H])C1([H])OC([O-])=C(C1=O)C2(C([H])([H])[H])C3([H])[H]

$$$$
98:0:1
     RDKit          3D

 50 54  0  0  1  0  0  0  0  0999 V2000
    0.5455   -6.8819    3.1500 C   0  0  0  0  0  0  0  0  0  0  0  0
    2.0053   -6.5612    2.8211 C   0  0  2  0  0  0  0  0  0  0  0  0
    2.4453   -5.2015    3.3788 C   0  0  0  0  0  0  0  0  0  0  0  0
    3.8027   -4.9369    3.0260 O   0  0  0  0  0  0  0  0  0  0  0  0
    4.0534   -4.8079    1.6494 C   0  0  1  0  0  0  0  0  0  0  0  0
    3.2384   -3.7965    1.0860 O   0  0  0  0  0  0  0  0  0  0  0  0
    3.5697   -3.2423   -0.2066 C   0  0  2  0  0  0  0  0  0  0  0  0
    4.7291   -3.9150   -0.9534 C   0  0  1  0  0  0  0  0  0  0  0  0
    5.8258   -4.5829   -0.0651 C   0  0  0  0  0  0  0  0  0  0  0  0
    5.5515   -4.3029    1.4646 C   0  0  2  0  0  0  0  0  0  0  0  0
    6.5524   -5.0832    2.3404 C   0  0  0  0  0  0  0  0  0  0  0  0
    5.6706   -2.7773    1.8302 C   0  0  0  0  0  0  0  0  0  0  0  0
    4.7843   -2.0397    2.6186 C   0  0  0  0  0  0  0  0  0  0  0  0
    4.0489   -2.2811    3.5990 O   0  0  0  0  0  0  0  0  0  0  0  0
    4.4086   -0.9148    1.9362 O   0  0  0  0  0  0  0  0  0  0  0  0
    4.9085   -0.9892    0.5973 C   0  0  1  0  0  0  0  0  0  0  0  0
    6.1343   -1.8281    0.8374 C   0  0  0  0  0  0  0  0  0  0  0  0
    7.2002   -1.7448    0.2260 O   0  0  0  0  0  0  0  0  0  0  0  0
    3.8436   -1.6908   -0.3688 C   0  0  1  0  0  0  0  0  0  0  0  0
    4.2170   -1.6625   -1.9013 C   0  0  1  0  0  0  0  0  0  0  0  0
    3.0153   -1.4316   -2.8263 C   0  0  0  0  0  0  0  0  0  0  0  0
    5.1261   -0.6369   -2.2179 O   0  0  0  0  0  0  0  0  0  0  0  0
    4.8338   -3.0568   -2.1955 C   0  0  0  0  0  0  0  0  0  0  0  0
    5.3091   -3.4269   -3.2649 O   0  0  0  0  0  0  0  0  0  0  0  0
    3.6595   -6.1881    0.9829 C   0  0  1  0  0  0  0  0  0  0  0  0
    4.5421   -7.2433    1.2729 O   0  0  0  0  0  0  0  0  0  0  0  0
    2.2272   -6.5672    1.3150 C   0  0  0  0  0  0  0  0  0  0  0  0
   -0.1165   -6.1419    2.7020 H   0  0  0  0  0  0  0  0  0  0  0  0
    0.3842   -6.8735    4.2286 H   0  0  0  0  0  0  0  0  0  0  0  0
    0.2639   -7.8655    2.7650 H   0  0  0  0  0  0  0  0  0  0  0  0
    2.6418   -7.3288    3.2586 H   0  0  0  0  0  0  0  0  0  0  0  0
    1.7842   -4.4032    3.0362 H   0  0  0  0  0  0  0  0  0  0  0  0
    2.3762   -5.2154    4.4632 H   0  0  0  0  0  0  0  0  0  0  0  0
    2.6657   -3.4601   -0.7761 H   0  0  0  0  0  0  0  0  0  0  0  0
    5.5119   -3.1956   -0.9054 H   0  0  0  0  0  0  0  0  0  0  0  0
    5.8283   -5.6438   -0.2815 H   0  0  0  0  0  0  0  0  0  0  0  0
    6.8506   -4.3091   -0.3370 H   0  0  0  0  0  0  0  0  0  0  0  0
    6.5876   -6.1491    2.1454 H   0  0  0  0  0  0  0  0  0  0  0  0
    6.3249   -4.9433    3.4005 H   0  0  0  0  0  0  0  0  0  0  0  0
    7.5610   -4.7112    2.1504 H   0  0  0  0  0  0  0  0  0  0  0  0
    5.2048   -0.0028    0.2454 H   0  0  0  0  0  0  0  0  0  0  0  0
    2.9178   -1.1496   -0.2097 H   0  0  0  0  0  0  0  0  0  0  0  0
    2.2324   -2.1713   -2.6541 H   0  0  0  0  0  0  0  0  0  0  0  0
    3.2757   -1.4622   -3.8886 H   0  0  0  0  0  0  0  0  0  0  0  0
    2.5689   -0.4579   -2.6260 H   0  0  0  0  0  0  0  0  0  0  0  0
    4.7296    0.1995   -2.0024 H   0  0  0  0  0  0  0  0  0  0  0  0
    3.6585   -6.0912   -0.0941 H   0  0  0  0  0  0  0  0  0  0  0  0
    5.4147   -6.8853    1.2466 H   0  0  0  0  0  0  0  0  0  0  0  0
    2.0332   -7.5523    0.8964 H   0  0  0  0  0  0  0  0  0  0  0  0
    1.5547   -5.8748    0.8134 H   0  0  0  0  0  0  0  0  0  0  0  0
  1  2  1  0
  1 28  1  0
  1 29  1  0
  1 30  1  0
  2 27  1  0
  2  3  1  0
  2 31  1  1
  3  4  1  0
  3 32  1  0
  3 33  1  0
  5  4  1  1
  5 10  1  0
  5  6  1  0
  5 25  1  0
  6  7  1  0
  7 19  1  0
  7  8  1  0
  7 34  1  6
  8 23  1  0
  8  9  1  0
  8 35  1  6
  9 10  1  0
  9 36  1  0
  9 37  1  0
 10 11  1  1
 10 12  1  0
 11 38  1  0
 11 39  1  0
 11 40  1  0
 12 13  2  0
 12 17  1  0
 13 14  1  0
 13 15  1  0
 15 16  1  0
 16 19  1  0
 16 41  1  6
 16 17  1  0
 17 18  2  0
 19 20  1  0
 19 42  1  6
 20 21  1  0
 20 22  1  1
 20 23  1  0
 21 43  1  0
 21 44  1  0
 21 45  1  0
 22 46  1  0
 23 24  2  0
 25 26  1  0
 25 27  1  0
 25 47  1  6
 26 48  1  0
 27 49  1  0
 27 50  1  0
M  CHG  1  14  -1
M  END
>  <i_m_ct_stereo_status>  (287) 
1

>  <s_m_source_file>  (287) 
/var/tmp/pbs.5076255.sched01/tmpvuzdko10/1206lwnzxed.sdf

>  <i_m_source_file_index>  (287) 
13

>  <i_lp_mmshare_version>  (287) 
48012

>  <i_f3d_flags>  (287) 
0

>  <s_epik_input>  (287) 
W09IXVtDQEhdMVtDSDJdW0NASF0oW0NIM10pW0NIMl1PW0NAQF0xMltDQF0zKFtDSDNdKVtDQEBIXTRDKD1PKU9bQ0BASF0oQzQ9TylbQ0BASF01W0NASF0oTzIpW0NIXShbQ0gyXTMpQyg9TylbQ0BdNShbQ0gzXSlbT0hd

>  <s_epik_cmdline>  (287) 
J2VwaWtfcHl0aG9uJywgJy1waHQnLCAnMi4wJywgJy1waCcsICc3LjAnLCAnLXRuJywgJzgnLCAnLW1hJywgJzIwMCcsICctaW1hZScsICc8aW5maWxlLm1hZT4nLCAnLW9tYWUnLCAnPG91dGZpbGUubWFlPic=

>  <r_lp_tautomer_probability>  (287) 
0.99995

>  <r_epik_Ionization_Penalty>  (287) 
0.000548352

>  <r_epik_Ionization_Penalty_Charging>  (287) 
9.80299e-05

>  <r_epik_Ionization_Penalty_Neutral>  (287) 
0.000450322

>  <r_epik_State_Penalty>  (287) 
0.000189905

>  <r_epik_Charging_Adjusted_Penalty>  (287) 
0.000287935

>  <i_epik_Tot_Q>  (287) 
-1

>  <i_epik_Tot_abs_Q>  (287) 
1

>  <s_epik_Chemistry_Notes>  (287) 
This compound has an ester and may undergo hydrolysis at high or low pH.

>  <s_lp_Force_Field>  (287) 
OPLS3e

>  <r_lp_Energy>  (287) 
118.689

>  <b_lp_Chiralities_Consistent>  (287) 
1

>  <s_lp_Variant>  (287) 
98:0-1

>  <s_i_glide_gridfile>  (287) 
pfpi4k_grid

>  <i_i_glide_lignum>  (287) 
13

>  <i_i_glide_rotatable_bonds>  (287) 
2

>  <r_i_docking_score>  (287) 
-3.56114

>  <r_i_glide_ligand_efficiency>  (287) 
-0.131894

>  <r_i_glide_ligand_efficiency_sa>  (287) 
-0.395682

>  <r_i_glide_ligand_efficiency_ln>  (287) 
-0.828975

>  <r_i_glide_gscore>  (287) 
-3.56114

>  <r_i_glide_lipo>  (287) 
-0.400294

>  <r_i_glide_hbond>  (287) 
-0.0440189

>  <r_i_glide_metal>  (287) 
-0

>  <r_i_glide_rewards>  (287) 
-1.1168

>  <r_i_glide_evdw>  (287) 
-29.4659

>  <r_i_glide_ecoul>  (287) 
-3.51156

>  <r_i_glide_erotb>  (287) 
0

>  <r_i_glide_esite>  (287) 
0

>  <r_i_glide_emodel>  (287) 
-41.3396

>  <r_i_glide_energy>  (287) 
-32.9774

>  <r_i_glide_einternal>  (287) 
0.337746

>  <r_i_glide_intrahb_reward>  (287) 
-0

>  <i_i_glide_confnum>  (287) 
2

>  <i_i_glide_posenum>  (287) 
27

>  <r_i_glide_eff_state_penalty>  (287) 
0

>  <ligand_id>  (287) 
98

>  <original_smiles>  (287) 
CC1COC2(OC3C4CC2(C)C2C(=O)OC(C2=O)C3C(C)(O)C4=O)C(O)C1

>  <smiles>  (287) 
[H]OC1([H])C([H])([H])C([H])(C([H])([H])[H])C([H])([H])OC12OC1([H])C3([H])C(=O)C(O[H])(C([H])([H])[H])C1([H])C1([H])OC([O-])=C(C1=O)C2(C([H])([H])[H])C3([H])[H]

$$$$
98:0:2
     RDKit          3D

 50 54  0  0  1  0  0  0  0  0999 V2000
    0.4393   -6.8309    3.1592 C   0  0  0  0  0  0  0  0  0  0  0  0
    1.9058   -6.5362    2.8349 C   0  0  2  0  0  0  0  0  0  0  0  0
    2.3728   -5.1928    3.4120 C   0  0  0  0  0  0  0  0  0  0  0  0
    3.7337   -4.9476    3.0671 O   0  0  0  0  0  0  0  0  0  0  0  0
    3.9994   -4.8125    1.6975 C   0  0  1  0  0  0  0  0  0  0  0  0
    3.2028   -3.7774    1.1391 O   0  0  0  0  0  0  0  0  0  0  0  0
    3.5520   -3.2175   -0.1405 C   0  0  2  0  0  0  0  0  0  0  0  0
    4.6950   -3.9100   -0.8949 C   0  0  1  0  0  0  0  0  0  0  0  0
    5.7803   -4.6064   -0.0125 C   0  0  0  0  0  0  0  0  0  0  0  0
    5.5056   -4.3358    1.5195 C   0  0  2  0  0  0  0  0  0  0  0  0
    6.4860   -5.1477    2.3909 C   0  0  0  0  0  0  0  0  0  0  0  0
    5.6584   -2.8160    1.9024 C   0  0  0  0  0  0  0  0  0  0  0  0
    4.7869   -2.0798    2.7024 C   0  0  0  0  0  0  0  0  0  0  0  0
    4.0373   -2.3106    3.6789 O   0  0  0  0  0  0  0  0  0  0  0  0
    4.4333   -0.9299    2.0297 O   0  0  0  0  0  0  0  0  0  0  0  0
    4.9384   -1.0039    0.6926 C   0  0  1  0  0  0  0  0  0  0  0  0
    6.1406   -1.8674    0.9217 C   0  0  0  0  0  0  0  0  0  0  0  0
    7.2154   -1.7908    0.3157 O   0  0  0  0  0  0  0  0  0  0  0  0
    3.8557   -1.6692   -0.2837 C   0  0  1  0  0  0  0  0  0  0  0  0
    4.2303   -1.6408   -1.8166 C   0  0  1  0  0  0  0  0  0  0  0  0
    3.0265   -1.3582   -2.7394 C   0  0  0  0  0  0  0  0  0  0  0  0
    5.1903   -0.6482   -2.0990 O   0  0  0  0  0  0  0  0  0  0  0  0
    4.8066   -3.0391   -2.1209 C   0  0  0  0  0  0  0  0  0  0  0  0
    5.2947   -3.4000   -3.2003 O   0  0  0  0  0  0  0  0  0  0  0  0
    3.5894   -6.1861    1.0265 C   0  0  1  0  0  0  0  0  0  0  0  0
    4.4328   -7.2742    1.3784 O   0  0  0  0  0  0  0  0  0  0  0  0
    2.1379   -6.5245    1.3309 C   0  0  0  0  0  0  0  0  0  0  0  0
   -0.1954   -6.0675    2.7166 H   0  0  0  0  0  0  0  0  0  0  0  0
    0.2761   -6.8299    4.2382 H   0  0  0  0  0  0  0  0  0  0  0  0
    0.1348   -7.8029    2.7615 H   0  0  0  0  0  0  0  0  0  0  0  0
    2.5230   -7.3234    3.2681 H   0  0  0  0  0  0  0  0  0  0  0  0
    1.7300   -4.3766    3.0786 H   0  0  0  0  0  0  0  0  0  0  0  0
    2.3006   -5.2204    4.4964 H   0  0  0  0  0  0  0  0  0  0  0  0
    2.6451   -3.4034   -0.7168 H   0  0  0  0  0  0  0  0  0  0  0  0
    5.4913   -3.2039   -0.8403 H   0  0  0  0  0  0  0  0  0  0  0  0
    5.7603   -5.6669   -0.2318 H   0  0  0  0  0  0  0  0  0  0  0  0
    6.8107   -4.3572   -0.2991 H   0  0  0  0  0  0  0  0  0  0  0  0
    6.4903   -6.2114    2.1721 H   0  0  0  0  0  0  0  0  0  0  0  0
    6.2583   -5.0216    3.4521 H   0  0  0  0  0  0  0  0  0  0  0  0
    7.5074   -4.8052    2.2127 H   0  0  0  0  0  0  0  0  0  0  0  0
    5.2569   -0.0176    0.3539 H   0  0  0  0  0  0  0  0  0  0  0  0
    2.9385   -1.1064   -0.1209 H   0  0  0  0  0  0  0  0  0  0  0  0
    2.2253   -2.0800   -2.5823 H   0  0  0  0  0  0  0  0  0  0  0  0
    3.2939   -1.3814   -3.7976 H   0  0  0  0  0  0  0  0  0  0  0  0
    2.6085   -0.3768   -2.5318 H   0  0  0  0  0  0  0  0  0  0  0  0
    4.8169    0.1912   -1.8959 H   0  0  0  0  0  0  0  0  0  0  0  0
    3.5923   -6.0862   -0.0545 H   0  0  0  0  0  0  0  0  0  0  0  0
    4.1581   -8.0478    0.9094 H   0  0  0  0  0  0  0  0  0  0  0  0
    1.9129   -7.4958    0.8982 H   0  0  0  0  0  0  0  0  0  0  0  0
    1.4784   -5.8123    0.8349 H   0  0  0  0  0  0  0  0  0  0  0  0
  1  2  1  0
  1 28  1  0
  1 29  1  0
  1 30  1  0
  2 27  1  0
  2  3  1  0
  2 31  1  1
  3  4  1  0
  3 32  1  0
  3 33  1  0
  5  4  1  1
  5 10  1  0
  5  6  1  0
  5 25  1  0
  6  7  1  0
  7 19  1  0
  7  8  1  0
  7 34  1  6
  8 23  1  0
  8  9  1  0
  8 35  1  6
  9 10  1  0
  9 36  1  0
  9 37  1  0
 10 11  1  1
 10 12  1  0
 11 38  1  0
 11 39  1  0
 11 40  1  0
 12 13  2  0
 12 17  1  0
 13 14  1  0
 13 15  1  0
 15 16  1  0
 16 19  1  0
 16 41  1  6
 16 17  1  0
 17 18  2  0
 19 20  1  0
 19 42  1  6
 20 21  1  0
 20 22  1  1
 20 23  1  0
 21 43  1  0
 21 44  1  0
 21 45  1  0
 22 46  1  0
 23 24  2  0
 25 26  1  0
 25 27  1  0
 25 47  1  6
 26 48  1  0
 27 49  1  0
 27 50  1  0
M  CHG  1  14  -1
M  END
>  <i_m_ct_stereo_status>  (288) 
1

>  <s_m_source_file>  (288) 
/var/tmp/pbs.5076255.sched01/tmpvuzdko10/1206lwnzxed.sdf

>  <i_m_source_file_index>  (288) 
13

>  <i_lp_mmshare_version>  (288) 
48012

>  <i_f3d_flags>  (288) 
0

>  <s_epik_input>  (288) 
W09IXVtDQEhdMVtDSDJdW0NASF0oW0NIM10pW0NIMl1PW0NAQF0xMltDQF0zKFtDSDNdKVtDQEBIXTRDKD1PKU9bQ0BASF0oQzQ9TylbQ0BASF01W0NASF0oTzIpW0NIXShbQ0gyXTMpQyg9TylbQ0BdNShbQ0gzXSlbT0hd

>  <s_epik_cmdline>  (288) 
J2VwaWtfcHl0aG9uJywgJy1waHQnLCAnMi4wJywgJy1waCcsICc3LjAnLCAnLXRuJywgJzgnLCAnLW1hJywgJzIwMCcsICctaW1hZScsICc8aW5maWxlLm1hZT4nLCAnLW9tYWUnLCAnPG91dGZpbGUubWFlPic=

>  <r_lp_tautomer_probability>  (288) 
0.99995

>  <r_epik_Ionization_Penalty>  (288) 
0.000548352

>  <r_epik_Ionization_Penalty_Charging>  (288) 
9.80299e-05

>  <r_epik_Ionization_Penalty_Neutral>  (288) 
0.000450322

>  <r_epik_State_Penalty>  (288) 
0.000189905

>  <r_epik_Charging_Adjusted_Penalty>  (288) 
0.000287935

>  <i_epik_Tot_Q>  (288) 
-1

>  <i_epik_Tot_abs_Q>  (288) 
1

>  <s_epik_Chemistry_Notes>  (288) 
This compound has an ester and may undergo hydrolysis at high or low pH.

>  <s_lp_Force_Field>  (288) 
OPLS3e

>  <r_lp_Energy>  (288) 
118.689

>  <b_lp_Chiralities_Consistent>  (288) 
1

>  <s_lp_Variant>  (288) 
98:0-1

>  <s_i_glide_gridfile>  (288) 
pfpi4k_grid

>  <i_i_glide_lignum>  (288) 
13

>  <i_i_glide_rotatable_bonds>  (288) 
2

>  <r_i_docking_score>  (288) 
-3.47834

>  <r_i_glide_ligand_efficiency>  (288) 
-0.128827

>  <r_i_glide_ligand_efficiency_sa>  (288) 
-0.386482

>  <r_i_glide_ligand_efficiency_ln>  (288) 
-0.809701

>  <r_i_glide_gscore>  (288) 
-3.47834

>  <r_i_glide_lipo>  (288) 
-0.383102

>  <r_i_glide_hbond>  (288) 
-0.0169068

>  <r_i_glide_metal>  (288) 
-0

>  <r_i_glide_rewards>  (288) 
-1.1002

>  <r_i_glide_evdw>  (288) 
-29.3466

>  <r_i_glide_ecoul>  (288) 
-3.40533

>  <r_i_glide_erotb>  (288) 
0

>  <r_i_glide_esite>  (288) 
0

>  <r_i_glide_emodel>  (288) 
-40.9998

>  <r_i_glide_energy>  (288) 
-32.752

>  <r_i_glide_einternal>  (288) 
0.356394

>  <r_i_glide_intrahb_reward>  (288) 
-0

>  <i_i_glide_confnum>  (288) 
1

>  <i_i_glide_posenum>  (288) 
12

>  <r_i_glide_eff_state_penalty>  (288) 
0

>  <ligand_id>  (288) 
98

>  <original_smiles>  (288) 
CC1COC2(OC3C4CC2(C)C2C(=O)OC(C2=O)C3C(C)(O)C4=O)C(O)C1

>  <smiles>  (288) 
[H]OC1([H])C([H])([H])C([H])(C([H])([H])[H])C([H])([H])OC12OC1([H])C3([H])C(=O)C(O[H])(C([H])([H])[H])C1([H])C1([H])OC([O-])=C(C1=O)C2(C([H])([H])[H])C3([H])[H]

$$$$
98:1:0
     RDKit          3D

 50 54  0  0  1  0  0  0  0  0999 V2000
    0.6954   -6.6098    3.4350 C   0  0  0  0  0  0  0  0  0  0  0  0
    2.1249   -6.3357    2.9744 C   0  0  2  0  0  0  0  0  0  0  0  0
    2.6427   -4.9783    3.4629 C   0  0  0  0  0  0  0  0  0  0  0  0
    3.9713   -4.7700    2.9861 O   0  0  0  0  0  0  0  0  0  0  0  0
    4.1187   -4.6564    1.5968 C   0  0  1  0  0  0  0  0  0  0  0  0
    3.2747   -3.6317    1.0839 O   0  0  0  0  0  0  0  0  0  0  0  0
    3.5328   -3.0609   -0.2199 C   0  0  2  0  0  0  0  0  0  0  0  0
    4.5350   -3.8498   -1.0850 C   0  0  2  0  0  0  0  0  0  0  0  0
    5.7202   -4.4548   -0.2686 C   0  0  0  0  0  0  0  0  0  0  0  0
    5.6030   -4.1971    1.2761 C   0  0  2  0  0  0  0  0  0  0  0  0
    6.6513   -5.0240    2.0455 C   0  0  0  0  0  0  0  0  0  0  0  0
    5.8213   -2.6999    1.6416 C   0  0  0  0  0  0  0  0  0  0  0  0
    5.0425   -1.9480    2.5009 C   0  0  0  0  0  0  0  0  0  0  0  0
    4.3954   -2.1412    3.5780 O   0  0  0  0  0  0  0  0  0  0  0  0
    4.6863   -0.7805    1.8656 O   0  0  0  0  0  0  0  0  0  0  0  0
    5.0472   -0.8839    0.4838 C   0  0  1  0  0  0  0  0  0  0  0  0
    6.2138   -1.8063    0.5788 C   0  0  0  0  0  0  0  0  0  0  0  0
    7.2251   -1.7827   -0.1189 O   0  0  0  0  0  0  0  0  0  0  0  0
    3.8824   -1.5199   -0.3912 C   0  0  1  0  0  0  0  0  0  0  0  0
    4.2137   -1.5023   -1.9166 C   0  0  1  0  0  0  0  0  0  0  0  0
    2.9785   -1.4109   -2.8156 C   0  0  0  0  0  0  0  0  0  0  0  0
    5.0161   -0.4111   -2.3218 O   0  0  0  0  0  0  0  0  0  0  0  0
    4.9260   -2.8358   -2.1365 C   0  0  0  0  0  0  0  0  0  0  0  0
    5.7233   -3.0700   -3.0469 O   0  0  0  0  0  0  0  0  0  0  0  0
    3.6338   -6.0416    1.0042 C   0  0  1  0  0  0  0  0  0  0  0  0
    4.4571   -7.1411    1.3325 O   0  0  0  0  0  0  0  0  0  0  0  0
    2.2230   -6.3734    1.4541 C   0  0  0  0  0  0  0  0  0  0  0  0
    0.0199   -5.8609    3.0245 H   0  0  0  0  0  0  0  0  0  0  0  0
    0.6326   -6.5691    4.5224 H   0  0  0  0  0  0  0  0  0  0  0  0
    0.3625   -7.5945    3.1007 H   0  0  0  0  0  0  0  0  0  0  0  0
    2.7749   -7.1114    3.3835 H   0  0  0  0  0  0  0  0  0  0  0  0
    1.9806   -4.1668    3.1571 H   0  0  0  0  0  0  0  0  0  0  0  0
    2.6641   -4.9625    4.5511 H   0  0  0  0  0  0  0  0  0  0  0  0
    2.5591   -3.1910   -0.6947 H   0  0  0  0  0  0  0  0  0  0  0  0
    4.0168   -4.6400   -1.6192 H   0  0  0  0  0  0  0  0  0  0  0  0
    5.7306   -5.5245   -0.4585 H   0  0  0  0  0  0  0  0  0  0  0  0
    6.6908   -4.1650   -0.6735 H   0  0  0  0  0  0  0  0  0  0  0  0
    6.6487   -6.0881    1.8182 H   0  0  0  0  0  0  0  0  0  0  0  0
    6.5302   -4.9092    3.1241 H   0  0  0  0  0  0  0  0  0  0  0  0
    7.6503   -4.6715    1.7874 H   0  0  0  0  0  0  0  0  0  0  0  0
    5.3547    0.0974    0.1228 H   0  0  0  0  0  0  0  0  0  0  0  0
    2.9917   -0.9298   -0.1762 H   0  0  0  0  0  0  0  0  0  0  0  0
    2.2832   -2.2326   -2.6535 H   0  0  0  0  0  0  0  0  0  0  0  0
    3.2367   -1.4015   -3.8746 H   0  0  0  0  0  0  0  0  0  0  0  0
    2.4263   -0.4954   -2.6062 H   0  0  0  0  0  0  0  0  0  0  0  0
    4.6047    0.3913   -2.0323 H   0  0  0  0  0  0  0  0  0  0  0  0
    3.5772   -6.0125   -0.0754 H   0  0  0  0  0  0  0  0  0  0  0  0
    4.5601   -7.1074    2.2785 H   0  0  0  0  0  0  0  0  0  0  0  0
    1.9722   -7.3629    1.0743 H   0  0  0  0  0  0  0  0  0  0  0  0
    1.5241   -5.6781    0.9936 H   0  0  0  0  0  0  0  0  0  0  0  0
  1  2  1  0
  1 28  1  0
  1 29  1  0
  1 30  1  0
  2 27  1  0
  2  3  1  0
  2 31  1  1
  3  4  1  0
  3 32  1  0
  3 33  1  0
  5  4  1  1
  5 10  1  0
  5  6  1  0
  5 25  1  0
  6  7  1  0
  7 19  1  0
  7  8  1  0
  7 34  1  6
  8 23  1  0
  8  9  1  0
  8 35  1  6
  9 10  1  0
  9 36  1  0
  9 37  1  0
 10 11  1  1
 10 12  1  0
 11 38  1  0
 11 39  1  0
 11 40  1  0
 12 13  2  0
 12 17  1  0
 13 14  1  0
 13 15  1  0
 15 16  1  0
 16 19  1  0
 16 41  1  6
 16 17  1  0
 17 18  2  0
 19 20  1  0
 19 42  1  6
 20 21  1  0
 20 22  1  1
 20 23  1  0
 21 43  1  0
 21 44  1  0
 21 45  1  0
 22 46  1  0
 23 24  2  0
 25 26  1  0
 25 27  1  0
 25 47  1  6
 26 48  1  0
 27 49  1  0
 27 50  1  0
M  CHG  1  14  -1
M  END
>  <i_m_ct_stereo_status>  (289) 
1

>  <s_m_source_file>  (289) 
/var/tmp/pbs.5076255.sched01/tmpvuzdko10/1206lwnzxed.sdf

>  <i_m_source_file_index>  (289) 
14

>  <i_lp_mmshare_version>  (289) 
48012

>  <i_f3d_flags>  (289) 
0

>  <s_epik_input>  (289) 
W09IXVtDQEhdMVtDSDJdW0NASF0oW0NIM10pW0NIMl1PW0NAQF0xMltDQF0zKFtDSDNdKVtDQEBIXTRDKD1PKU9bQ0BASF0oQzQ9TylbQ0BASF01W0NASF0oTzIpW0NIXShbQ0gyXTMpQyg9TylbQ0BdNShbQ0gzXSlbT0hd

>  <s_epik_cmdline>  (289) 
J2VwaWtfcHl0aG9uJywgJy1waHQnLCAnMi4wJywgJy1waCcsICc3LjAnLCAnLXRuJywgJzgnLCAnLW1hJywgJzIwMCcsICctaW1hZScsICc8aW5maWxlLm1hZT4nLCAnLW9tYWUnLCAnPG91dGZpbGUubWFlPic=

>  <r_lp_tautomer_probability>  (289) 
0.99995

>  <r_epik_Ionization_Penalty>  (289) 
0.000548352

>  <r_epik_Ionization_Penalty_Charging>  (289) 
9.80299e-05

>  <r_epik_Ionization_Penalty_Neutral>  (289) 
0.000450322

>  <r_epik_State_Penalty>  (289) 
0.000189905

>  <r_epik_Charging_Adjusted_Penalty>  (289) 
0.000287935

>  <i_epik_Tot_Q>  (289) 
-1

>  <i_epik_Tot_abs_Q>  (289) 
1

>  <s_epik_Chemistry_Notes>  (289) 
This compound has an ester and may undergo hydrolysis at high or low pH.

>  <s_lp_Force_Field>  (289) 
OPLS3e

>  <r_lp_Energy>  (289) 
70.0169

>  <b_lp_Chiralities_Consistent>  (289) 
1

>  <s_lp_Variant>  (289) 
98:0-2

>  <s_i_glide_gridfile>  (289) 
pfpi4k_grid

>  <i_i_glide_lignum>  (289) 
14

>  <i_i_glide_rotatable_bonds>  (289) 
2

>  <r_i_docking_score>  (289) 
-3.77905

>  <r_i_glide_ligand_efficiency>  (289) 
-0.139965

>  <r_i_glide_ligand_efficiency_sa>  (289) 
-0.419894

>  <r_i_glide_ligand_efficiency_ln>  (289) 
-0.8797

>  <r_i_glide_gscore>  (289) 
-3.77905

>  <r_i_glide_lipo>  (289) 
-0.454788

>  <r_i_glide_hbond>  (289) 
-0.13422

>  <r_i_glide_metal>  (289) 
-0

>  <r_i_glide_rewards>  (289) 
-1.07186

>  <r_i_glide_evdw>  (289) 
-27.684

>  <r_i_glide_ecoul>  (289) 
-4.89322

>  <r_i_glide_erotb>  (289) 
0

>  <r_i_glide_esite>  (289) 
0

>  <r_i_glide_emodel>  (289) 
-41.9451

>  <r_i_glide_energy>  (289) 
-32.5772

>  <r_i_glide_einternal>  (289) 
0.111387

>  <r_i_glide_intrahb_reward>  (289) 
-0

>  <i_i_glide_confnum>  (289) 
1

>  <i_i_glide_posenum>  (289) 
9

>  <r_i_glide_eff_state_penalty>  (289) 
0

>  <ligand_id>  (289) 
98

>  <original_smiles>  (289) 
CC1COC2(OC3C4CC2(C)C2C(=O)OC(C2=O)C3C(C)(O)C4=O)C(O)C1

>  <smiles>  (289) 
[H]OC1([H])C([H])([H])C([H])(C([H])([H])[H])C([H])([H])OC12OC1([H])C3([H])C(=O)C(O[H])(C([H])([H])[H])C1([H])C1([H])OC([O-])=C(C1=O)C2(C([H])([H])[H])C3([H])[H]

$$$$
98:1:1
     RDKit          3D

 50 54  0  0  1  0  0  0  0  0999 V2000
    0.5909   -6.6363    3.3211 C   0  0  0  0  0  0  0  0  0  0  0  0
    2.0340   -6.3543    2.8950 C   0  0  2  0  0  0  0  0  0  0  0  0
    2.5350   -4.9922    3.3948 C   0  0  0  0  0  0  0  0  0  0  0  0
    3.8716   -4.7678    2.9550 O   0  0  0  0  0  0  0  0  0  0  0  0
    4.0440   -4.6704    1.5688 C   0  0  1  0  0  0  0  0  0  0  0  0
    3.2159   -3.6419    1.0349 O   0  0  0  0  0  0  0  0  0  0  0  0
    3.5008   -3.0672   -0.2605 C   0  0  2  0  0  0  0  0  0  0  0  0
    4.5294   -3.8491   -1.1030 C   0  0  2  0  0  0  0  0  0  0  0  0
    5.7000   -4.4443   -0.2610 C   0  0  0  0  0  0  0  0  0  0  0  0
    5.5349   -4.2102    1.2823 C   0  0  2  0  0  0  0  0  0  0  0  0
    6.5832   -5.0199    2.0774 C   0  0  0  0  0  0  0  0  0  0  0  0
    5.7351   -2.7023    1.6421 C   0  0  0  0  0  0  0  0  0  0  0  0
    4.9513   -1.9467    2.5069 C   0  0  0  0  0  0  0  0  0  0  0  0
    4.2840   -2.1503    3.5392 O   0  0  0  0  0  0  0  0  0  0  0  0
    4.5792   -0.7870    1.8539 O   0  0  0  0  0  0  0  0  0  0  0  0
    4.9857   -0.8819    0.4887 C   0  0  1  0  0  0  0  0  0  0  0  0
    6.1657   -1.7902    0.6139 C   0  0  0  0  0  0  0  0  0  0  0  0
    7.1828   -1.7644   -0.0777 O   0  0  0  0  0  0  0  0  0  0  0  0
    3.8446   -1.5253   -0.4135 C   0  0  1  0  0  0  0  0  0  0  0  0
    4.2009   -1.5033   -1.9346 C   0  0  1  0  0  0  0  0  0  0  0  0
    2.9945   -1.4125   -2.8702 C   0  0  0  0  0  0  0  0  0  0  0  0
    4.9923   -0.4042   -2.3153 O   0  0  0  0  0  0  0  0  0  0  0  0
    4.9311   -2.8331   -2.1473 C   0  0  0  0  0  0  0  0  0  0  0  0
    5.7506   -3.0719   -3.0404 O   0  0  0  0  0  0  0  0  0  0  0  0
    3.5790   -6.0558    0.9588 C   0  0  1  0  0  0  0  0  0  0  0  0
    4.4574   -7.1308    1.2099 O   0  0  0  0  0  0  0  0  0  0  0  0
    2.1638   -6.3953    1.3800 C   0  0  0  0  0  0  0  0  0  0  0  0
   -0.0782   -5.8868    2.8999 H   0  0  0  0  0  0  0  0  0  0  0  0
    0.4986   -6.6011    4.4072 H   0  0  0  0  0  0  0  0  0  0  0  0
    0.2649   -7.6214    2.9754 H   0  0  0  0  0  0  0  0  0  0  0  0
    2.6824   -7.1274    3.3097 H   0  0  0  0  0  0  0  0  0  0  0  0
    1.8706   -4.1869    3.0761 H   0  0  0  0  0  0  0  0  0  0  0  0
    2.5305   -4.9832    4.4816 H   0  0  0  0  0  0  0  0  0  0  0  0
    2.5422   -3.1941   -0.7648 H   0  0  0  0  0  0  0  0  0  0  0  0
    4.0302   -4.6405   -1.6512 H   0  0  0  0  0  0  0  0  0  0  0  0
    5.7185   -5.5086   -0.4615 H   0  0  0  0  0  0  0  0  0  0  0  0
    6.6765   -4.1417   -0.6463 H   0  0  0  0  0  0  0  0  0  0  0  0
    6.5964   -6.0826    1.8513 H   0  0  0  0  0  0  0  0  0  0  0  0
    6.4220   -4.9019    3.1512 H   0  0  0  0  0  0  0  0  0  0  0  0
    7.5850   -4.6508    1.8415 H   0  0  0  0  0  0  0  0  0  0  0  0
    5.3053    0.0920    0.1251 H   0  0  0  0  0  0  0  0  0  0  0  0
    2.9527   -0.9285   -0.2255 H   0  0  0  0  0  0  0  0  0  0  0  0
    2.3022   -2.2377   -2.7228 H   0  0  0  0  0  0  0  0  0  0  0  0
    3.2835   -1.3999   -3.9234 H   0  0  0  0  0  0  0  0  0  0  0  0
    2.4413   -0.4961   -2.6686 H   0  0  0  0  0  0  0  0  0  0  0  0
    4.5791    0.4019   -2.0332 H   0  0  0  0  0  0  0  0  0  0  0  0
    3.5265   -6.0015   -0.1179 H   0  0  0  0  0  0  0  0  0  0  0  0
    5.3312   -6.7981    1.0842 H   0  0  0  0  0  0  0  0  0  0  0  0
    1.9250   -7.3818    0.9912 H   0  0  0  0  0  0  0  0  0  0  0  0
    1.4794   -5.6953    0.9047 H   0  0  0  0  0  0  0  0  0  0  0  0
  1  2  1  0
  1 28  1  0
  1 29  1  0
  1 30  1  0
  2 27  1  0
  2  3  1  0
  2 31  1  1
  3  4  1  0
  3 32  1  0
  3 33  1  0
  5  4  1  1
  5 10  1  0
  5  6  1  0
  5 25  1  0
  6  7  1  0
  7 19  1  0
  7  8  1  0
  7 34  1  6
  8 23  1  0
  8  9  1  0
  8 35  1  6
  9 10  1  0
  9 36  1  0
  9 37  1  0
 10 11  1  1
 10 12  1  0
 11 38  1  0
 11 39  1  0
 11 40  1  0
 12 13  2  0
 12 17  1  0
 13 14  1  0
 13 15  1  0
 15 16  1  0
 16 19  1  0
 16 41  1  6
 16 17  1  0
 17 18  2  0
 19 20  1  0
 19 42  1  6
 20 21  1  0
 20 22  1  1
 20 23  1  0
 21 43  1  0
 21 44  1  0
 21 45  1  0
 22 46  1  0
 23 24  2  0
 25 26  1  0
 25 27  1  0
 25 47  1  6
 26 48  1  0
 27 49  1  0
 27 50  1  0
M  CHG  1  14  -1
M  END
>  <i_m_ct_stereo_status>  (290) 
1

>  <s_m_source_file>  (290) 
/var/tmp/pbs.5076255.sched01/tmpvuzdko10/1206lwnzxed.sdf

>  <i_m_source_file_index>  (290) 
14

>  <i_lp_mmshare_version>  (290) 
48012

>  <i_f3d_flags>  (290) 
0

>  <s_epik_input>  (290) 
W09IXVtDQEhdMVtDSDJdW0NASF0oW0NIM10pW0NIMl1PW0NAQF0xMltDQF0zKFtDSDNdKVtDQEBIXTRDKD1PKU9bQ0BASF0oQzQ9TylbQ0BASF01W0NASF0oTzIpW0NIXShbQ0gyXTMpQyg9TylbQ0BdNShbQ0gzXSlbT0hd

>  <s_epik_cmdline>  (290) 
J2VwaWtfcHl0aG9uJywgJy1waHQnLCAnMi4wJywgJy1waCcsICc3LjAnLCAnLXRuJywgJzgnLCAnLW1hJywgJzIwMCcsICctaW1hZScsICc8aW5maWxlLm1hZT4nLCAnLW9tYWUnLCAnPG91dGZpbGUubWFlPic=

>  <r_lp_tautomer_probability>  (290) 
0.99995

>  <r_epik_Ionization_Penalty>  (290) 
0.000548352

>  <r_epik_Ionization_Penalty_Charging>  (290) 
9.80299e-05

>  <r_epik_Ionization_Penalty_Neutral>  (290) 
0.000450322

>  <r_epik_State_Penalty>  (290) 
0.000189905

>  <r_epik_Charging_Adjusted_Penalty>  (290) 
0.000287935

>  <i_epik_Tot_Q>  (290) 
-1

>  <i_epik_Tot_abs_Q>  (290) 
1

>  <s_epik_Chemistry_Notes>  (290) 
This compound has an ester and may undergo hydrolysis at high or low pH.

>  <s_lp_Force_Field>  (290) 
OPLS3e

>  <r_lp_Energy>  (290) 
70.0169

>  <b_lp_Chiralities_Consistent>  (290) 
1

>  <s_lp_Variant>  (290) 
98:0-2

>  <s_i_glide_gridfile>  (290) 
pfpi4k_grid

>  <i_i_glide_lignum>  (290) 
14

>  <i_i_glide_rotatable_bonds>  (290) 
2

>  <r_i_docking_score>  (290) 
-3.70902

>  <r_i_glide_ligand_efficiency>  (290) 
-0.137371

>  <r_i_glide_ligand_efficiency_sa>  (290) 
-0.412114

>  <r_i_glide_ligand_efficiency_ln>  (290) 
-0.8634

>  <r_i_glide_gscore>  (290) 
-3.70902

>  <r_i_glide_lipo>  (290) 
-0.428931

>  <r_i_glide_hbond>  (290) 
-0.124617

>  <r_i_glide_metal>  (290) 
-0

>  <r_i_glide_rewards>  (290) 
-1.08832

>  <r_i_glide_evdw>  (290) 
-28.2031

>  <r_i_glide_ecoul>  (290) 
-4.37999

>  <r_i_glide_erotb>  (290) 
0

>  <r_i_glide_esite>  (290) 
0

>  <r_i_glide_emodel>  (290) 
-41.5871

>  <r_i_glide_energy>  (290) 
-32.5831

>  <r_i_glide_einternal>  (290) 
0.411511

>  <r_i_glide_intrahb_reward>  (290) 
-0

>  <i_i_glide_confnum>  (290) 
1

>  <i_i_glide_posenum>  (290) 
17

>  <r_i_glide_eff_state_penalty>  (290) 
0

>  <ligand_id>  (290) 
98

>  <original_smiles>  (290) 
CC1COC2(OC3C4CC2(C)C2C(=O)OC(C2=O)C3C(C)(O)C4=O)C(O)C1

>  <smiles>  (290) 
[H]OC1([H])C([H])([H])C([H])(C([H])([H])[H])C([H])([H])OC12OC1([H])C3([H])C(=O)C(O[H])(C([H])([H])[H])C1([H])C1([H])OC([O-])=C(C1=O)C2(C([H])([H])[H])C3([H])[H]

$$$$
98:1:2
     RDKit          3D

 50 54  0  0  1  0  0  0  0  0999 V2000
    0.4101   -7.0974    3.1090 C   0  0  0  0  0  0  0  0  0  0  0  0
    1.8811   -6.7862    2.8279 C   0  0  2  0  0  0  0  0  0  0  0  0
    2.3077   -5.4355    3.4140 C   0  0  0  0  0  0  0  0  0  0  0  0
    3.6724   -5.1723    3.1034 O   0  0  0  0  0  0  0  0  0  0  0  0
    3.9763   -5.0311    1.7428 C   0  0  1  0  0  0  0  0  0  0  0  0
    3.1765   -4.0076    1.1611 O   0  0  0  0  0  0  0  0  0  0  0  0
    3.5757   -3.3972   -0.0877 C   0  0  2  0  0  0  0  0  0  0  0  0
    4.6872   -4.1370   -0.8589 C   0  0  2  0  0  0  0  0  0  0  0  0
    5.7855   -4.7500    0.0763 C   0  0  0  0  0  0  0  0  0  0  0  0
    5.4802   -4.5404    1.6038 C   0  0  2  0  0  0  0  0  0  0  0  0
    6.4583   -5.3672    2.4721 C   0  0  0  0  0  0  0  0  0  0  0  0
    5.6268   -3.0508    2.0217 C   0  0  0  0  0  0  0  0  0  0  0  0
    4.7434   -2.3334    2.8266 C   0  0  0  0  0  0  0  0  0  0  0  0
    3.9894   -2.5734    3.7977 O   0  0  0  0  0  0  0  0  0  0  0  0
    4.4269   -1.1573    2.1890 O   0  0  0  0  0  0  0  0  0  0  0  0
    4.9472   -1.2087    0.8589 C   0  0  1  0  0  0  0  0  0  0  0  0
    6.1221   -2.1076    1.0548 C   0  0  0  0  0  0  0  0  0  0  0  0
    7.2015   -2.0392    0.4720 O   0  0  0  0  0  0  0  0  0  0  0  0
    3.9075   -1.8400   -0.1674 C   0  0  1  0  0  0  0  0  0  0  0  0
    4.4056   -1.7583   -1.6420 C   0  0  1  0  0  0  0  0  0  0  0  0
    3.2639   -1.6598   -2.6728 C   0  0  0  0  0  0  0  0  0  0  0  0
    5.2442   -0.6582   -1.8921 O   0  0  0  0  0  0  0  0  0  0  0  0
    5.1731   -3.0674   -1.8302 C   0  0  0  0  0  0  0  0  0  0  0  0
    6.0799   -3.2369   -2.6322 O   0  0  0  0  0  0  0  0  0  0  0  0
    3.6120   -6.4131    1.0680 C   0  0  1  0  0  0  0  0  0  0  0  0
    4.4621   -7.4791    1.4545 O   0  0  0  0  0  0  0  0  0  0  0  0
    2.1568   -6.7766    1.3318 C   0  0  0  0  0  0  0  0  0  0  0  0
   -0.2285   -6.3475    2.6451 H   0  0  0  0  0  0  0  0  0  0  0  0
    0.2189   -7.0971    4.1828 H   0  0  0  0  0  0  0  0  0  0  0  0
    0.1356   -8.0765    2.7102 H   0  0  0  0  0  0  0  0  0  0  0  0
    2.4956   -7.5653    3.2838 H   0  0  0  0  0  0  0  0  0  0  0  0
    1.6657   -4.6299    3.0567 H   0  0  0  0  0  0  0  0  0  0  0  0
    2.2041   -5.4585    4.4974 H   0  0  0  0  0  0  0  0  0  0  0  0
    2.6655   -3.5267   -0.6751 H   0  0  0  0  0  0  0  0  0  0  0  0
    4.2503   -4.9132   -1.4827 H   0  0  0  0  0  0  0  0  0  0  0  0
    5.8407   -5.8136   -0.1422 H   0  0  0  0  0  0  0  0  0  0  0  0
    6.7906   -4.4267   -0.1999 H   0  0  0  0  0  0  0  0  0  0  0  0
    6.5018   -6.4258    2.2182 H   0  0  0  0  0  0  0  0  0  0  0  0
    6.2126   -5.2828    3.5355 H   0  0  0  0  0  0  0  0  0  0  0  0
    7.4791   -5.0015    2.3343 H   0  0  0  0  0  0  0  0  0  0  0  0
    5.2818   -0.2198    0.5572 H   0  0  0  0  0  0  0  0  0  0  0  0
    2.9786   -1.2750   -0.0438 H   0  0  0  0  0  0  0  0  0  0  0  0
    2.5772   -2.5106   -2.6251 H   0  0  0  0  0  0  0  0  0  0  0  0
    3.6501   -1.6166   -3.6922 H   0  0  0  0  0  0  0  0  0  0  0  0
    2.6641   -0.7631   -2.5029 H   0  0  0  0  0  0  0  0  0  0  0  0
    4.7635    0.1348   -1.7019 H   0  0  0  0  0  0  0  0  0  0  0  0
    3.6705   -6.3359   -0.0117 H   0  0  0  0  0  0  0  0  0  0  0  0
    4.2060   -8.2640    0.9983 H   0  0  0  0  0  0  0  0  0  0  0  0
    1.9588   -7.7578    0.8988 H   0  0  0  0  0  0  0  0  0  0  0  0
    1.4964   -6.0798    0.8136 H   0  0  0  0  0  0  0  0  0  0  0  0
  1  2  1  0
  1 28  1  0
  1 29  1  0
  1 30  1  0
  2 27  1  0
  2  3  1  0
  2 31  1  1
  3  4  1  0
  3 32  1  0
  3 33  1  0
  5  4  1  1
  5 10  1  0
  5  6  1  0
  5 25  1  0
  6  7  1  0
  7 19  1  0
  7  8  1  0
  7 34  1  6
  8 23  1  0
  8  9  1  0
  8 35  1  6
  9 10  1  0
  9 36  1  0
  9 37  1  0
 10 11  1  1
 10 12  1  0
 11 38  1  0
 11 39  1  0
 11 40  1  0
 12 13  2  0
 12 17  1  0
 13 14  1  0
 13 15  1  0
 15 16  1  0
 16 19  1  0
 16 41  1  6
 16 17  1  0
 17 18  2  0
 19 20  1  0
 19 42  1  6
 20 21  1  0
 20 22  1  1
 20 23  1  0
 21 43  1  0
 21 44  1  0
 21 45  1  0
 22 46  1  0
 23 24  2  0
 25 26  1  0
 25 27  1  0
 25 47  1  6
 26 48  1  0
 27 49  1  0
 27 50  1  0
M  CHG  1  14  -1
M  END
>  <i_m_ct_stereo_status>  (291) 
1

>  <s_m_source_file>  (291) 
/var/tmp/pbs.5076255.sched01/tmpvuzdko10/1206lwnzxed.sdf

>  <i_m_source_file_index>  (291) 
14

>  <i_lp_mmshare_version>  (291) 
48012

>  <i_f3d_flags>  (291) 
0

>  <s_epik_input>  (291) 
W09IXVtDQEhdMVtDSDJdW0NASF0oW0NIM10pW0NIMl1PW0NAQF0xMltDQF0zKFtDSDNdKVtDQEBIXTRDKD1PKU9bQ0BASF0oQzQ9TylbQ0BASF01W0NASF0oTzIpW0NIXShbQ0gyXTMpQyg9TylbQ0BdNShbQ0gzXSlbT0hd

>  <s_epik_cmdline>  (291) 
J2VwaWtfcHl0aG9uJywgJy1waHQnLCAnMi4wJywgJy1waCcsICc3LjAnLCAnLXRuJywgJzgnLCAnLW1hJywgJzIwMCcsICctaW1hZScsICc8aW5maWxlLm1hZT4nLCAnLW9tYWUnLCAnPG91dGZpbGUubWFlPic=

>  <r_lp_tautomer_probability>  (291) 
0.99995

>  <r_epik_Ionization_Penalty>  (291) 
0.000548352

>  <r_epik_Ionization_Penalty_Charging>  (291) 
9.80299e-05

>  <r_epik_Ionization_Penalty_Neutral>  (291) 
0.000450322

>  <r_epik_State_Penalty>  (291) 
0.000189905

>  <r_epik_Charging_Adjusted_Penalty>  (291) 
0.000287935

>  <i_epik_Tot_Q>  (291) 
-1

>  <i_epik_Tot_abs_Q>  (291) 
1

>  <s_epik_Chemistry_Notes>  (291) 
This compound has an ester and may undergo hydrolysis at high or low pH.

>  <s_lp_Force_Field>  (291) 
OPLS3e

>  <r_lp_Energy>  (291) 
70.0169

>  <b_lp_Chiralities_Consistent>  (291) 
1

>  <s_lp_Variant>  (291) 
98:0-2

>  <s_i_glide_gridfile>  (291) 
pfpi4k_grid

>  <i_i_glide_lignum>  (291) 
14

>  <i_i_glide_rotatable_bonds>  (291) 
2

>  <r_i_docking_score>  (291) 
-3.43937

>  <r_i_glide_ligand_efficiency>  (291) 
-0.127384

>  <r_i_glide_ligand_efficiency_sa>  (291) 
-0.382153

>  <r_i_glide_ligand_efficiency_ln>  (291) 
-0.800629

>  <r_i_glide_gscore>  (291) 
-3.43937

>  <r_i_glide_lipo>  (291) 
-0.383259

>  <r_i_glide_hbond>  (291) 
0

>  <r_i_glide_metal>  (291) 
-0

>  <r_i_glide_rewards>  (291) 
-1.11674

>  <r_i_glide_evdw>  (291) 
-29.072

>  <r_i_glide_ecoul>  (291) 
-3.23847

>  <r_i_glide_erotb>  (291) 
0

>  <r_i_glide_esite>  (291) 
0

>  <r_i_glide_emodel>  (291) 
-40.7813

>  <r_i_glide_energy>  (291) 
-32.3104

>  <r_i_glide_einternal>  (291) 
0.376522

>  <r_i_glide_intrahb_reward>  (291) 
-0

>  <i_i_glide_confnum>  (291) 
1

>  <i_i_glide_posenum>  (291) 
4

>  <r_i_glide_eff_state_penalty>  (291) 
0

>  <ligand_id>  (291) 
98

>  <original_smiles>  (291) 
CC1COC2(OC3C4CC2(C)C2C(=O)OC(C2=O)C3C(C)(O)C4=O)C(O)C1

>  <smiles>  (291) 
[H]OC1([H])C([H])([H])C([H])(C([H])([H])[H])C([H])([H])OC12OC1([H])C3([H])C(=O)C(O[H])(C([H])([H])[H])C1([H])C1([H])OC([O-])=C(C1=O)C2(C([H])([H])[H])C3([H])[H]

$$$$
98:2:0
     RDKit          3D

 50 54  0  0  1  0  0  0  0  0999 V2000
    0.5156   -6.5438    3.6212 C   0  0  0  0  0  0  0  0  0  0  0  0
    1.9497   -6.2969    3.1579 C   0  0  2  0  0  0  0  0  0  0  0  0
    2.4231   -4.8737    3.4850 C   0  0  0  0  0  0  0  0  0  0  0  0
    3.7553   -4.6800    3.0142 O   0  0  0  0  0  0  0  0  0  0  0  0
    3.9436   -4.7837    1.6262 C   0  0  1  0  0  0  0  0  0  0  0  0
    3.0699   -3.8882    0.9542 O   0  0  0  0  0  0  0  0  0  0  0  0
    3.4188   -3.3196   -0.3238 C   0  0  2  0  0  0  0  0  0  0  0  0
    4.6230   -3.9256   -1.0318 C   0  0  1  0  0  0  0  0  0  0  0  0
    5.6230   -4.7646   -0.2030 C   0  0  0  0  0  0  0  0  0  0  0  0
    5.4614   -4.3838    1.3123 C   0  0  2  0  0  0  0  0  0  0  0  0
    6.4556   -5.1718    2.1980 C   0  0  0  0  0  0  0  0  0  0  0  0
    5.7796   -2.8612    1.5238 C   0  0  0  0  0  0  0  0  0  0  0  0
    6.6760   -2.1487    0.7445 C   0  0  0  0  0  0  0  0  0  0  0  0
    7.7172   -2.4319    0.1069 O   0  0  0  0  0  0  0  0  0  0  0  0
    6.0446   -1.0176    0.2712 O   0  0  0  0  0  0  0  0  0  0  0  0
    4.6477   -1.0668    0.6216 C   0  0  2  0  0  0  0  0  0  0  0  0
    4.7265   -1.9194    1.8565 C   0  0  0  0  0  0  0  0  0  0  0  0
    4.0311   -1.8118    2.8619 O   0  0  0  0  0  0  0  0  0  0  0  0
    3.6849   -1.7604   -0.4574 C   0  0  1  0  0  0  0  0  0  0  0  0
    4.1291   -1.6955   -1.9788 C   0  0  1  0  0  0  0  0  0  0  0  0
    2.9432   -1.5086   -2.9346 C   0  0  0  0  0  0  0  0  0  0  0  0
    5.0130   -0.6467   -2.3070 O   0  0  0  0  0  0  0  0  0  0  0  0
    4.8123   -3.0551   -2.2472 C   0  0  0  0  0  0  0  0  0  0  0  0
    5.3931   -3.3878   -3.2831 O   0  0  0  0  0  0  0  0  0  0  0  0
    3.4857   -6.2238    1.1831 C   0  0  1  0  0  0  0  0  0  0  0  0
    4.3107   -7.2635    1.6708 O   0  0  0  0  0  0  0  0  0  0  0  0
    2.0745   -6.5302    1.6538 C   0  0  0  0  0  0  0  0  0  0  0  0
   -0.1667   -5.8666    3.1110 H   0  0  0  0  0  0  0  0  0  0  0  0
    0.4232   -6.3746    4.6938 H   0  0  0  0  0  0  0  0  0  0  0  0
    0.2069   -7.5687    3.4046 H   0  0  0  0  0  0  0  0  0  0  0  0
    2.5986   -7.0016    3.6816 H   0  0  0  0  0  0  0  0  0  0  0  0
    1.7469   -4.1298    3.0622 H   0  0  0  0  0  0  0  0  0  0  0  0
    2.4123   -4.7230    4.5635 H   0  0  0  0  0  0  0  0  0  0  0  0
    2.5328   -3.5436   -0.9220 H   0  0  0  0  0  0  0  0  0  0  0  0
    5.3600   -3.1901   -0.7950 H   0  0  0  0  0  0  0  0  0  0  0  0
    5.4710   -5.8222   -0.3890 H   0  0  0  0  0  0  0  0  0  0  0  0
    6.6471   -4.6210   -0.5363 H   0  0  0  0  0  0  0  0  0  0  0  0
    6.4424   -6.2495    2.0446 H   0  0  0  0  0  0  0  0  0  0  0  0
    6.2773   -4.9769    3.2586 H   0  0  0  0  0  0  0  0  0  0  0  0
    7.4801   -4.8689    1.9722 H   0  0  0  0  0  0  0  0  0  0  0  0
    4.3000   -0.0656    0.8745 H   0  0  0  0  0  0  0  0  0  0  0  0
    2.7282   -1.2560   -0.3325 H   0  0  0  0  0  0  0  0  0  0  0  0
    2.1858   -2.2834   -2.8027 H   0  0  0  0  0  0  0  0  0  0  0  0
    3.2347   -1.5134   -3.9867 H   0  0  0  0  0  0  0  0  0  0  0  0
    2.4449   -0.5582   -2.7351 H   0  0  0  0  0  0  0  0  0  0  0  0
    4.6135    0.1778   -2.0511 H   0  0  0  0  0  0  0  0  0  0  0  0
    3.4657   -6.2737    0.0972 H   0  0  0  0  0  0  0  0  0  0  0  0
    4.4016   -7.1030    2.6017 H   0  0  0  0  0  0  0  0  0  0  0  0
    1.8543   -7.5690    1.4054 H   0  0  0  0  0  0  0  0  0  0  0  0
    1.3662   -5.9191    1.0988 H   0  0  0  0  0  0  0  0  0  0  0  0
  1  2  1  0
  1 28  1  0
  1 29  1  0
  1 30  1  0
  2 27  1  0
  2  3  1  0
  2 31  1  1
  3  4  1  0
  3 32  1  0
  3 33  1  0
  5  4  1  1
  5 10  1  0
  5  6  1  0
  5 25  1  0
  6  7  1  0
  7 19  1  0
  7  8  1  0
  7 34  1  6
  8 23  1  0
  8  9  1  0
  8 35  1  6
  9 10  1  0
  9 36  1  0
  9 37  1  0
 10 11  1  1
 10 12  1  0
 11 38  1  0
 11 39  1  0
 11 40  1  0
 12 13  2  0
 12 17  1  0
 13 14  1  0
 13 15  1  0
 15 16  1  0
 16 19  1  0
 16 41  1  1
 16 17  1  0
 17 18  2  0
 19 20  1  0
 19 42  1  6
 20 21  1  0
 20 22  1  1
 20 23  1  0
 21 43  1  0
 21 44  1  0
 21 45  1  0
 22 46  1  0
 23 24  2  0
 25 26  1  0
 25 27  1  0
 25 47  1  6
 26 48  1  0
 27 49  1  0
 27 50  1  0
M  CHG  1  14  -1
M  END
>  <i_m_ct_stereo_status>  (292) 
1

>  <s_m_source_file>  (292) 
/var/tmp/pbs.5076255.sched01/tmpvuzdko10/1206lwnzxed.sdf

>  <i_m_source_file_index>  (292) 
15

>  <i_lp_mmshare_version>  (292) 
48012

>  <i_f3d_flags>  (292) 
0

>  <s_epik_input>  (292) 
W09IXVtDQEhdMVtDSDJdW0NASF0oW0NIM10pW0NIMl1PW0NAQF0xMltDQF0zKFtDSDNdKVtDQEBIXTRDKD1PKU9bQ0BASF0oQzQ9TylbQ0BASF01W0NASF0oTzIpW0NIXShbQ0gyXTMpQyg9TylbQ0BdNShbQ0gzXSlbT0hd

>  <s_epik_cmdline>  (292) 
J2VwaWtfcHl0aG9uJywgJy1waHQnLCAnMi4wJywgJy1waCcsICc3LjAnLCAnLXRuJywgJzgnLCAnLW1hJywgJzIwMCcsICctaW1hZScsICc8aW5maWxlLm1hZT4nLCAnLW9tYWUnLCAnPG91dGZpbGUubWFlPic=

>  <r_lp_tautomer_probability>  (292) 
0.99995

>  <r_epik_Ionization_Penalty>  (292) 
0.000548352

>  <r_epik_Ionization_Penalty_Charging>  (292) 
9.80299e-05

>  <r_epik_Ionization_Penalty_Neutral>  (292) 
0.000450322

>  <r_epik_State_Penalty>  (292) 
0.000189905

>  <r_epik_Charging_Adjusted_Penalty>  (292) 
0.000287935

>  <i_epik_Tot_Q>  (292) 
-1

>  <i_epik_Tot_abs_Q>  (292) 
1

>  <s_epik_Chemistry_Notes>  (292) 
This compound has an ester and may undergo hydrolysis at high or low pH.

>  <s_lp_Force_Field>  (292) 
OPLS3e

>  <r_lp_Energy>  (292) 
116.407

>  <b_lp_Chiralities_Consistent>  (292) 
1

>  <s_lp_Variant>  (292) 
98:0-3

>  <s_i_glide_gridfile>  (292) 
pfpi4k_grid

>  <i_i_glide_lignum>  (292) 
15

>  <i_i_glide_rotatable_bonds>  (292) 
2

>  <r_i_docking_score>  (292) 
-3.13106

>  <r_i_glide_ligand_efficiency>  (292) 
-0.115965

>  <r_i_glide_ligand_efficiency_sa>  (292) 
-0.347896

>  <r_i_glide_ligand_efficiency_ln>  (292) 
-0.72886

>  <r_i_glide_gscore>  (292) 
-3.13106

>  <r_i_glide_lipo>  (292) 
-0.40558

>  <r_i_glide_hbond>  (292) 
0

>  <r_i_glide_metal>  (292) 
-0

>  <r_i_glide_rewards>  (292) 
-1.00644

>  <r_i_glide_evdw>  (292) 
-28.7336

>  <r_i_glide_ecoul>  (292) 
-1.88243

>  <r_i_glide_erotb>  (292) 
0

>  <r_i_glide_esite>  (292) 
0

>  <r_i_glide_emodel>  (292) 
-37.7507

>  <r_i_glide_energy>  (292) 
-30.6161

>  <r_i_glide_einternal>  (292) 
0.0352464

>  <r_i_glide_intrahb_reward>  (292) 
-0

>  <i_i_glide_confnum>  (292) 
2

>  <i_i_glide_posenum>  (292) 
15

>  <r_i_glide_eff_state_penalty>  (292) 
0

>  <ligand_id>  (292) 
98

>  <original_smiles>  (292) 
CC1COC2(OC3C4CC2(C)C2C(=O)OC(C2=O)C3C(C)(O)C4=O)C(O)C1

>  <smiles>  (292) 
[H]OC1([H])C([H])([H])C([H])(C([H])([H])[H])C([H])([H])OC12OC1([H])C3([H])C(=O)C(O[H])(C([H])([H])[H])C1([H])C1([H])OC([O-])=C(C1=O)C2(C([H])([H])[H])C3([H])[H]

$$$$
98:2:1
     RDKit          3D

 50 54  0  0  1  0  0  0  0  0999 V2000
    0.5245   -6.5445    3.6368 C   0  0  0  0  0  0  0  0  0  0  0  0
    1.9593   -6.2949    3.1703 C   0  0  2  0  0  0  0  0  0  0  0  0
    2.4313   -4.8698    3.4916 C   0  0  0  0  0  0  0  0  0  0  0  0
    3.7604   -4.6583    3.0193 O   0  0  0  0  0  0  0  0  0  0  0  0
    3.9572   -4.7812    1.6332 C   0  0  1  0  0  0  0  0  0  0  0  0
    3.0726   -3.9017    0.9495 O   0  0  0  0  0  0  0  0  0  0  0  0
    3.4250   -3.3216   -0.3220 C   0  0  2  0  0  0  0  0  0  0  0  0
    4.6302   -3.9272   -1.0261 C   0  0  1  0  0  0  0  0  0  0  0  0
    5.6346   -4.7562   -0.1972 C   0  0  0  0  0  0  0  0  0  0  0  0
    5.4762   -4.3732    1.3180 C   0  0  2  0  0  0  0  0  0  0  0  0
    6.4774   -5.1530    2.2039 C   0  0  0  0  0  0  0  0  0  0  0  0
    5.7946   -2.8536    1.5258 C   0  0  0  0  0  0  0  0  0  0  0  0
    6.6869   -2.1492    0.7390 C   0  0  0  0  0  0  0  0  0  0  0  0
    7.7371   -2.4309    0.0997 O   0  0  0  0  0  0  0  0  0  0  0  0
    6.0497   -1.0214    0.2655 O   0  0  0  0  0  0  0  0  0  0  0  0
    4.6515   -1.0684    0.6187 C   0  0  2  0  0  0  0  0  0  0  0  0
    4.7283   -1.9165    1.8525 C   0  0  0  0  0  0  0  0  0  0  0  0
    4.0418   -1.7907    2.8611 O   0  0  0  0  0  0  0  0  0  0  0  0
    3.6874   -1.7630   -0.4554 C   0  0  1  0  0  0  0  0  0  0  0  0
    4.1317   -1.7009   -1.9782 C   0  0  1  0  0  0  0  0  0  0  0  0
    2.9471   -1.5171   -2.9340 C   0  0  0  0  0  0  0  0  0  0  0  0
    5.0172   -0.6468   -2.3113 O   0  0  0  0  0  0  0  0  0  0  0  0
    4.8177   -3.0581   -2.2367 C   0  0  0  0  0  0  0  0  0  0  0  0
    5.3935   -3.3964   -3.2745 O   0  0  0  0  0  0  0  0  0  0  0  0
    3.5141   -6.2347    1.2165 C   0  0  1  0  0  0  0  0  0  0  0  0
    4.3634   -7.2677    1.7042 O   0  0  0  0  0  0  0  0  0  0  0  0
    2.0915   -6.5322    1.6696 C   0  0  0  0  0  0  0  0  0  0  0  0
   -0.1574   -5.8666    3.1266 H   0  0  0  0  0  0  0  0  0  0  0  0
    0.4333   -6.3721    4.7096 H   0  0  0  0  0  0  0  0  0  0  0  0
    0.2161   -7.5702    3.4206 H   0  0  0  0  0  0  0  0  0  0  0  0
    2.6173   -6.9939    3.6893 H   0  0  0  0  0  0  0  0  0  0  0  0
    1.7522   -4.1279    3.0721 H   0  0  0  0  0  0  0  0  0  0  0  0
    2.4276   -4.7182    4.5696 H   0  0  0  0  0  0  0  0  0  0  0  0
    2.5420   -3.5445   -0.9245 H   0  0  0  0  0  0  0  0  0  0  0  0
    5.3611   -3.1872   -0.7896 H   0  0  0  0  0  0  0  0  0  0  0  0
    5.4890   -5.8159   -0.3798 H   0  0  0  0  0  0  0  0  0  0  0  0
    6.6553   -4.6027   -0.5355 H   0  0  0  0  0  0  0  0  0  0  0  0
    6.4941   -6.2313    2.0543 H   0  0  0  0  0  0  0  0  0  0  0  0
    6.2874   -4.9678    3.2645 H   0  0  0  0  0  0  0  0  0  0  0  0
    7.4997   -4.8484    1.9785 H   0  0  0  0  0  0  0  0  0  0  0  0
    4.3017   -0.0680    0.8770 H   0  0  0  0  0  0  0  0  0  0  0  0
    2.7334   -1.2582   -0.3310 H   0  0  0  0  0  0  0  0  0  0  0  0
    2.1923   -2.2900   -2.7972 H   0  0  0  0  0  0  0  0  0  0  0  0
    3.2395   -1.5219   -3.9861 H   0  0  0  0  0  0  0  0  0  0  0  0
    2.4528   -0.5666   -2.7312 H   0  0  0  0  0  0  0  0  0  0  0  0
    4.6125    0.1718   -2.0543 H   0  0  0  0  0  0  0  0  0  0  0  0
    3.4646   -6.2782    0.1286 H   0  0  0  0  0  0  0  0  0  0  0  0
    4.0991   -8.0953    1.3303 H   0  0  0  0  0  0  0  0  0  0  0  0
    1.8643   -7.5678    1.4210 H   0  0  0  0  0  0  0  0  0  0  0  0
    1.3812   -5.9206    1.1129 H   0  0  0  0  0  0  0  0  0  0  0  0
  1  2  1  0
  1 28  1  0
  1 29  1  0
  1 30  1  0
  2 27  1  0
  2  3  1  0
  2 31  1  1
  3  4  1  0
  3 32  1  0
  3 33  1  0
  5  4  1  1
  5 10  1  0
  5  6  1  0
  5 25  1  0
  6  7  1  0
  7 19  1  0
  7  8  1  0
  7 34  1  6
  8 23  1  0
  8  9  1  0
  8 35  1  6
  9 10  1  0
  9 36  1  0
  9 37  1  0
 10 11  1  1
 10 12  1  0
 11 38  1  0
 11 39  1  0
 11 40  1  0
 12 13  2  0
 12 17  1  0
 13 14  1  0
 13 15  1  0
 15 16  1  0
 16 19  1  0
 16 41  1  1
 16 17  1  0
 17 18  2  0
 19 20  1  0
 19 42  1  6
 20 21  1  0
 20 22  1  1
 20 23  1  0
 21 43  1  0
 21 44  1  0
 21 45  1  0
 22 46  1  0
 23 24  2  0
 25 26  1  0
 25 27  1  0
 25 47  1  6
 26 48  1  0
 27 49  1  0
 27 50  1  0
M  CHG  1  14  -1
M  END
>  <i_m_ct_stereo_status>  (293) 
1

>  <s_m_source_file>  (293) 
/var/tmp/pbs.5076255.sched01/tmpvuzdko10/1206lwnzxed.sdf

>  <i_m_source_file_index>  (293) 
15

>  <i_lp_mmshare_version>  (293) 
48012

>  <i_f3d_flags>  (293) 
0

>  <s_epik_input>  (293) 
W09IXVtDQEhdMVtDSDJdW0NASF0oW0NIM10pW0NIMl1PW0NAQF0xMltDQF0zKFtDSDNdKVtDQEBIXTRDKD1PKU9bQ0BASF0oQzQ9TylbQ0BASF01W0NASF0oTzIpW0NIXShbQ0gyXTMpQyg9TylbQ0BdNShbQ0gzXSlbT0hd

>  <s_epik_cmdline>  (293) 
J2VwaWtfcHl0aG9uJywgJy1waHQnLCAnMi4wJywgJy1waCcsICc3LjAnLCAnLXRuJywgJzgnLCAnLW1hJywgJzIwMCcsICctaW1hZScsICc8aW5maWxlLm1hZT4nLCAnLW9tYWUnLCAnPG91dGZpbGUubWFlPic=

>  <r_lp_tautomer_probability>  (293) 
0.99995

>  <r_epik_Ionization_Penalty>  (293) 
0.000548352

>  <r_epik_Ionization_Penalty_Charging>  (293) 
9.80299e-05

>  <r_epik_Ionization_Penalty_Neutral>  (293) 
0.000450322

>  <r_epik_State_Penalty>  (293) 
0.000189905

>  <r_epik_Charging_Adjusted_Penalty>  (293) 
0.000287935

>  <i_epik_Tot_Q>  (293) 
-1

>  <i_epik_Tot_abs_Q>  (293) 
1

>  <s_epik_Chemistry_Notes>  (293) 
This compound has an ester and may undergo hydrolysis at high or low pH.

>  <s_lp_Force_Field>  (293) 
OPLS3e

>  <r_lp_Energy>  (293) 
116.407

>  <b_lp_Chiralities_Consistent>  (293) 
1

>  <s_lp_Variant>  (293) 
98:0-3

>  <s_i_glide_gridfile>  (293) 
pfpi4k_grid

>  <i_i_glide_lignum>  (293) 
15

>  <i_i_glide_rotatable_bonds>  (293) 
2

>  <r_i_docking_score>  (293) 
-3.11216

>  <r_i_glide_ligand_efficiency>  (293) 
-0.115265

>  <r_i_glide_ligand_efficiency_sa>  (293) 
-0.345796

>  <r_i_glide_ligand_efficiency_ln>  (293) 
-0.724459

>  <r_i_glide_gscore>  (293) 
-3.11216

>  <r_i_glide_lipo>  (293) 
-0.410291

>  <r_i_glide_hbond>  (293) 
0

>  <r_i_glide_metal>  (293) 
-0

>  <r_i_glide_rewards>  (293) 
-1.00663

>  <r_i_glide_evdw>  (293) 
-28.707

>  <r_i_glide_ecoul>  (293) 
-1.73257

>  <r_i_glide_erotb>  (293) 
0

>  <r_i_glide_esite>  (293) 
0

>  <r_i_glide_emodel>  (293) 
-37.4394

>  <r_i_glide_energy>  (293) 
-30.4396

>  <r_i_glide_einternal>  (293) 
0.341055

>  <r_i_glide_intrahb_reward>  (293) 
-0

>  <i_i_glide_confnum>  (293) 
2

>  <i_i_glide_posenum>  (293) 
9

>  <r_i_glide_eff_state_penalty>  (293) 
0

>  <ligand_id>  (293) 
98

>  <original_smiles>  (293) 
CC1COC2(OC3C4CC2(C)C2C(=O)OC(C2=O)C3C(C)(O)C4=O)C(O)C1

>  <smiles>  (293) 
[H]OC1([H])C([H])([H])C([H])(C([H])([H])[H])C([H])([H])OC12OC1([H])C3([H])C(=O)C(O[H])(C([H])([H])[H])C1([H])C1([H])OC([O-])=C(C1=O)C2(C([H])([H])[H])C3([H])[H]

$$$$
98:2:2
     RDKit          3D

 50 54  0  0  1  0  0  0  0  0999 V2000
    0.5479   -6.5362    3.6588 C   0  0  0  0  0  0  0  0  0  0  0  0
    1.9831   -6.2915    3.1908 C   0  0  2  0  0  0  0  0  0  0  0  0
    2.4524   -4.8643    3.5094 C   0  0  0  0  0  0  0  0  0  0  0  0
    3.7809   -4.6590    3.0358 O   0  0  0  0  0  0  0  0  0  0  0  0
    3.9683   -4.7747    1.6486 C   0  0  1  0  0  0  0  0  0  0  0  0
    3.0899   -3.8881    0.9712 O   0  0  0  0  0  0  0  0  0  0  0  0
    3.4351   -3.3192   -0.3070 C   0  0  2  0  0  0  0  0  0  0  0  0
    4.6389   -3.9261   -1.0158 C   0  0  1  0  0  0  0  0  0  0  0  0
    5.6436   -4.7583   -0.1872 C   0  0  0  0  0  0  0  0  0  0  0  0
    5.4862   -4.3748    1.3292 C   0  0  2  0  0  0  0  0  0  0  0  0
    6.4881   -5.1542    2.2173 C   0  0  0  0  0  0  0  0  0  0  0  0
    5.8040   -2.8520    1.5329 C   0  0  0  0  0  0  0  0  0  0  0  0
    6.6926   -2.1429    0.7491 C   0  0  0  0  0  0  0  0  0  0  0  0
    7.7400   -2.4280    0.1062 O   0  0  0  0  0  0  0  0  0  0  0  0
    6.0585   -1.0159    0.2724 O   0  0  0  0  0  0  0  0  0  0  0  0
    4.6614   -1.0639    0.6275 C   0  0  2  0  0  0  0  0  0  0  0  0
    4.7449   -1.9115    1.8632 C   0  0  0  0  0  0  0  0  0  0  0  0
    4.0550   -1.7947    2.8728 O   0  0  0  0  0  0  0  0  0  0  0  0
    3.6946   -1.7612   -0.4447 C   0  0  1  0  0  0  0  0  0  0  0  0
    4.1346   -1.7017   -1.9695 C   0  0  1  0  0  0  0  0  0  0  0  0
    2.9469   -1.5185   -2.9225 C   0  0  0  0  0  0  0  0  0  0  0  0
    5.0195   -0.6492   -2.3068 O   0  0  0  0  0  0  0  0  0  0  0  0
    4.8206   -3.0587   -2.2302 C   0  0  0  0  0  0  0  0  0  0  0  0
    5.3978   -3.3967   -3.2696 O   0  0  0  0  0  0  0  0  0  0  0  0
    3.5112   -6.2166    1.2105 C   0  0  1  0  0  0  0  0  0  0  0  0
    4.3822   -7.2555    1.5938 O   0  0  0  0  0  0  0  0  0  0  0  0
    2.1053   -6.5336    1.6899 C   0  0  0  0  0  0  0  0  0  0  0  0
   -0.1379   -5.8619    3.1477 H   0  0  0  0  0  0  0  0  0  0  0  0
    0.4579   -6.3619    4.7309 H   0  0  0  0  0  0  0  0  0  0  0  0
    0.2386   -7.5622    3.4487 H   0  0  0  0  0  0  0  0  0  0  0  0
    2.6414   -6.9920    3.7086 H   0  0  0  0  0  0  0  0  0  0  0  0
    1.7720   -4.1237    3.0870 H   0  0  0  0  0  0  0  0  0  0  0  0
    2.4452   -4.7096    4.5874 H   0  0  0  0  0  0  0  0  0  0  0  0
    2.5493   -3.5469   -0.9028 H   0  0  0  0  0  0  0  0  0  0  0  0
    5.3717   -3.1875   -0.7826 H   0  0  0  0  0  0  0  0  0  0  0  0
    5.4954   -5.8156   -0.3769 H   0  0  0  0  0  0  0  0  0  0  0  0
    6.6661   -4.6166   -0.5231 H   0  0  0  0  0  0  0  0  0  0  0  0
    6.5040   -6.2331    2.0809 H   0  0  0  0  0  0  0  0  0  0  0  0
    6.3033   -4.9578    3.2765 H   0  0  0  0  0  0  0  0  0  0  0  0
    7.5092   -4.8438    1.9890 H   0  0  0  0  0  0  0  0  0  0  0  0
    4.3148   -0.0614    0.8801 H   0  0  0  0  0  0  0  0  0  0  0  0
    2.7402   -1.2574   -0.3188 H   0  0  0  0  0  0  0  0  0  0  0  0
    2.1918   -2.2912   -2.7848 H   0  0  0  0  0  0  0  0  0  0  0  0
    3.2379   -1.5280   -3.9744 H   0  0  0  0  0  0  0  0  0  0  0  0
    2.4531   -0.5665   -2.7254 H   0  0  0  0  0  0  0  0  0  0  0  0
    4.6110    0.1727   -2.0656 H   0  0  0  0  0  0  0  0  0  0  0  0
    3.4673   -6.2512    0.1259 H   0  0  0  0  0  0  0  0  0  0  0  0
    5.2565   -6.9333    1.4361 H   0  0  0  0  0  0  0  0  0  0  0  0
    1.8871   -7.5719    1.4420 H   0  0  0  0  0  0  0  0  0  0  0  0
    1.3960   -5.9226    1.1350 H   0  0  0  0  0  0  0  0  0  0  0  0
  1  2  1  0
  1 28  1  0
  1 29  1  0
  1 30  1  0
  2 27  1  0
  2  3  1  0
  2 31  1  1
  3  4  1  0
  3 32  1  0
  3 33  1  0
  5  4  1  1
  5 10  1  0
  5  6  1  0
  5 25  1  0
  6  7  1  0
  7 19  1  0
  7  8  1  0
  7 34  1  6
  8 23  1  0
  8  9  1  0
  8 35  1  6
  9 10  1  0
  9 36  1  0
  9 37  1  0
 10 11  1  1
 10 12  1  0
 11 38  1  0
 11 39  1  0
 11 40  1  0
 12 13  2  0
 12 17  1  0
 13 14  1  0
 13 15  1  0
 15 16  1  0
 16 19  1  0
 16 41  1  1
 16 17  1  0
 17 18  2  0
 19 20  1  0
 19 42  1  6
 20 21  1  0
 20 22  1  1
 20 23  1  0
 21 43  1  0
 21 44  1  0
 21 45  1  0
 22 46  1  0
 23 24  2  0
 25 26  1  0
 25 27  1  0
 25 47  1  6
 26 48  1  0
 27 49  1  0
 27 50  1  0
M  CHG  1  14  -1
M  END
>  <i_m_ct_stereo_status>  (294) 
1

>  <s_m_source_file>  (294) 
/var/tmp/pbs.5076255.sched01/tmpvuzdko10/1206lwnzxed.sdf

>  <i_m_source_file_index>  (294) 
15

>  <i_lp_mmshare_version>  (294) 
48012

>  <i_f3d_flags>  (294) 
0

>  <s_epik_input>  (294) 
W09IXVtDQEhdMVtDSDJdW0NASF0oW0NIM10pW0NIMl1PW0NAQF0xMltDQF0zKFtDSDNdKVtDQEBIXTRDKD1PKU9bQ0BASF0oQzQ9TylbQ0BASF01W0NASF0oTzIpW0NIXShbQ0gyXTMpQyg9TylbQ0BdNShbQ0gzXSlbT0hd

>  <s_epik_cmdline>  (294) 
J2VwaWtfcHl0aG9uJywgJy1waHQnLCAnMi4wJywgJy1waCcsICc3LjAnLCAnLXRuJywgJzgnLCAnLW1hJywgJzIwMCcsICctaW1hZScsICc8aW5maWxlLm1hZT4nLCAnLW9tYWUnLCAnPG91dGZpbGUubWFlPic=

>  <r_lp_tautomer_probability>  (294) 
0.99995

>  <r_epik_Ionization_Penalty>  (294) 
0.000548352

>  <r_epik_Ionization_Penalty_Charging>  (294) 
9.80299e-05

>  <r_epik_Ionization_Penalty_Neutral>  (294) 
0.000450322

>  <r_epik_State_Penalty>  (294) 
0.000189905

>  <r_epik_Charging_Adjusted_Penalty>  (294) 
0.000287935

>  <i_epik_Tot_Q>  (294) 
-1

>  <i_epik_Tot_abs_Q>  (294) 
1

>  <s_epik_Chemistry_Notes>  (294) 
This compound has an ester and may undergo hydrolysis at high or low pH.

>  <s_lp_Force_Field>  (294) 
OPLS3e

>  <r_lp_Energy>  (294) 
116.407

>  <b_lp_Chiralities_Consistent>  (294) 
1

>  <s_lp_Variant>  (294) 
98:0-3

>  <s_i_glide_gridfile>  (294) 
pfpi4k_grid

>  <i_i_glide_lignum>  (294) 
15

>  <i_i_glide_rotatable_bonds>  (294) 
2

>  <r_i_docking_score>  (294) 
-3.10315

>  <r_i_glide_ligand_efficiency>  (294) 
-0.114931

>  <r_i_glide_ligand_efficiency_sa>  (294) 
-0.344794

>  <r_i_glide_ligand_efficiency_ln>  (294) 
-0.722362

>  <r_i_glide_gscore>  (294) 
-3.10315

>  <r_i_glide_lipo>  (294) 
-0.408816

>  <r_i_glide_hbond>  (294) 
0

>  <r_i_glide_metal>  (294) 
-0

>  <r_i_glide_rewards>  (294) 
-1.00833

>  <r_i_glide_evdw>  (294) 
-28.6895

>  <r_i_glide_ecoul>  (294) 
-1.67683

>  <r_i_glide_erotb>  (294) 
0

>  <r_i_glide_esite>  (294) 
0

>  <r_i_glide_emodel>  (294) 
-37.2719

>  <r_i_glide_energy>  (294) 
-30.3664

>  <r_i_glide_einternal>  (294) 
0.326681

>  <r_i_glide_intrahb_reward>  (294) 
-0

>  <i_i_glide_confnum>  (294) 
1

>  <i_i_glide_posenum>  (294) 
18

>  <r_i_glide_eff_state_penalty>  (294) 
0

>  <ligand_id>  (294) 
98

>  <original_smiles>  (294) 
CC1COC2(OC3C4CC2(C)C2C(=O)OC(C2=O)C3C(C)(O)C4=O)C(O)C1

>  <smiles>  (294) 
[H]OC1([H])C([H])([H])C([H])(C([H])([H])[H])C([H])([H])OC12OC1([H])C3([H])C(=O)C(O[H])(C([H])([H])[H])C1([H])C1([H])OC([O-])=C(C1=O)C2(C([H])([H])[H])C3([H])[H]

$$$$
98:3:0
     RDKit          3D

 50 54  0  0  1  0  0  0  0  0999 V2000
    0.8463   -5.9403    4.2540 C   0  0  0  0  0  0  0  0  0  0  0  0
    2.2275   -5.7983    3.6174 C   0  0  2  0  0  0  0  0  0  0  0  0
    2.8111   -4.3918    3.8051 C   0  0  0  0  0  0  0  0  0  0  0  0
    4.0878   -4.3046    3.1737 O   0  0  0  0  0  0  0  0  0  0  0  0
    4.1040   -4.4832    1.7812 C   0  0  1  0  0  0  0  0  0  0  0  0
    3.2063   -3.5765    1.1670 O   0  0  0  0  0  0  0  0  0  0  0  0
    3.4652   -3.0424   -0.1481 C   0  0  2  0  0  0  0  0  0  0  0  0
    4.4242   -3.8820   -1.0139 C   0  0  2  0  0  0  0  0  0  0  0  0
    5.5419   -4.6166   -0.2285 C   0  0  0  0  0  0  0  0  0  0  0  0
    5.5901   -4.1877    1.2671 C   0  0  2  0  0  0  0  0  0  0  0  0
    6.6455   -5.0021    2.0516 C   0  0  0  0  0  0  0  0  0  0  0  0
    6.0164   -2.7014    1.3593 C   0  0  0  0  0  0  0  0  0  0  0  0
    6.8501   -2.0773    0.4353 C   0  0  0  0  0  0  0  0  0  0  0  0
    7.7789   -2.4339   -0.3137 O   0  0  0  0  0  0  0  0  0  0  0  0
    6.2739   -0.8829    0.0832 O   0  0  0  0  0  0  0  0  0  0  0  0
    4.9321   -0.8389    0.6036 C   0  0  2  0  0  0  0  0  0  0  0  0
    5.1021   -1.6859    1.8216 C   0  0  0  0  0  0  0  0  0  0  0  0
    4.5748   -1.5061    2.9158 O   0  0  0  0  0  0  0  0  0  0  0  0
    3.8422   -1.5098   -0.3439 C   0  0  1  0  0  0  0  0  0  0  0  0
    4.2056   -1.5244   -1.8663 C   0  0  1  0  0  0  0  0  0  0  0  0
    2.9797   -1.4594   -2.7907 C   0  0  0  0  0  0  0  0  0  0  0  0
    5.0053   -0.4552   -2.3209 O   0  0  0  0  0  0  0  0  0  0  0  0
    4.9104   -2.8712   -2.0415 C   0  0  0  0  0  0  0  0  0  0  0  0
    5.7405   -3.1180   -2.9123 O   0  0  0  0  0  0  0  0  0  0  0  0
    3.5235   -5.9192    1.4790 C   0  0  1  0  0  0  0  0  0  0  0  0
    4.3376   -6.9805    1.9355 O   0  0  0  0  0  0  0  0  0  0  0  0
    2.1585   -6.1111    2.1249 C   0  0  0  0  0  0  0  0  0  0  0  0
    0.1452   -5.2542    3.7812 H   0  0  0  0  0  0  0  0  0  0  0  0
    0.8854   -5.7070    5.3177 H   0  0  0  0  0  0  0  0  0  0  0  0
    0.4658   -6.9577    4.1376 H   0  0  0  0  0  0  0  0  0  0  0  0
    2.8975   -6.5117    4.1011 H   0  0  0  0  0  0  0  0  0  0  0  0
    2.1295   -3.6323    3.4224 H   0  0  0  0  0  0  0  0  0  0  0  0
    2.9353   -4.1869    4.8678 H   0  0  0  0  0  0  0  0  0  0  0  0
    2.4782   -3.1411   -0.6068 H   0  0  0  0  0  0  0  0  0  0  0  0
    3.8333   -4.6285   -1.5288 H   0  0  0  0  0  0  0  0  0  0  0  0
    5.3810   -5.6889   -0.3132 H   0  0  0  0  0  0  0  0  0  0  0  0
    6.5027   -4.5091   -0.7187 H   0  0  0  0  0  0  0  0  0  0  0  0
    6.5629   -6.0827    1.9417 H   0  0  0  0  0  0  0  0  0  0  0  0
    6.6037   -4.7610    3.1176 H   0  0  0  0  0  0  0  0  0  0  0  0
    7.6497   -4.7506    1.6953 H   0  0  0  0  0  0  0  0  0  0  0  0
    4.6599    0.1774    0.8769 H   0  0  0  0  0  0  0  0  0  0  0  0
    2.9406   -0.9169   -0.1940 H   0  0  0  0  0  0  0  0  0  0  0  0
    2.2731   -2.2669   -2.6089 H   0  0  0  0  0  0  0  0  0  0  0  0
    3.2449   -1.4952   -3.8490 H   0  0  0  0  0  0  0  0  0  0  0  0
    2.4311   -0.5315   -2.6264 H   0  0  0  0  0  0  0  0  0  0  0  0
    4.6179    0.3596   -2.0440 H   0  0  0  0  0  0  0  0  0  0  0  0
    3.3692   -6.0263    0.4069 H   0  0  0  0  0  0  0  0  0  0  0  0
    4.5713   -6.7608    2.8209 H   0  0  0  0  0  0  0  0  0  0  0  0
    1.8598   -7.1471    1.9605 H   0  0  0  0  0  0  0  0  0  0  0  0
    1.4256   -5.4852    1.6221 H   0  0  0  0  0  0  0  0  0  0  0  0
  1  2  1  0
  1 28  1  0
  1 29  1  0
  1 30  1  0
  2 27  1  0
  2  3  1  0
  2 31  1  1
  3  4  1  0
  3 32  1  0
  3 33  1  0
  5  4  1  1
  5 10  1  0
  5  6  1  0
  5 25  1  0
  6  7  1  0
  7 19  1  0
  7  8  1  0
  7 34  1  6
  8 23  1  0
  8  9  1  0
  8 35  1  6
  9 10  1  0
  9 36  1  0
  9 37  1  0
 10 11  1  1
 10 12  1  0
 11 38  1  0
 11 39  1  0
 11 40  1  0
 12 13  2  0
 12 17  1  0
 13 14  1  0
 13 15  1  0
 15 16  1  0
 16 19  1  0
 16 41  1  1
 16 17  1  0
 17 18  2  0
 19 20  1  0
 19 42  1  6
 20 21  1  0
 20 22  1  1
 20 23  1  0
 21 43  1  0
 21 44  1  0
 21 45  1  0
 22 46  1  0
 23 24  2  0
 25 26  1  0
 25 27  1  0
 25 47  1  6
 26 48  1  0
 27 49  1  0
 27 50  1  0
M  CHG  1  14  -1
M  END
>  <i_m_ct_stereo_status>  (295) 
1

>  <s_m_source_file>  (295) 
/var/tmp/pbs.5076255.sched01/tmpvuzdko10/1206lwnzxed.sdf

>  <i_m_source_file_index>  (295) 
16

>  <i_lp_mmshare_version>  (295) 
48012

>  <i_f3d_flags>  (295) 
0

>  <s_epik_input>  (295) 
W09IXVtDQEhdMVtDSDJdW0NASF0oW0NIM10pW0NIMl1PW0NAQF0xMltDQF0zKFtDSDNdKVtDQEBIXTRDKD1PKU9bQ0BASF0oQzQ9TylbQ0BASF01W0NASF0oTzIpW0NIXShbQ0gyXTMpQyg9TylbQ0BdNShbQ0gzXSlbT0hd

>  <s_epik_cmdline>  (295) 
J2VwaWtfcHl0aG9uJywgJy1waHQnLCAnMi4wJywgJy1waCcsICc3LjAnLCAnLXRuJywgJzgnLCAnLW1hJywgJzIwMCcsICctaW1hZScsICc8aW5maWxlLm1hZT4nLCAnLW9tYWUnLCAnPG91dGZpbGUubWFlPic=

>  <r_lp_tautomer_probability>  (295) 
0.99995

>  <r_epik_Ionization_Penalty>  (295) 
0.000548352

>  <r_epik_Ionization_Penalty_Charging>  (295) 
9.80299e-05

>  <r_epik_Ionization_Penalty_Neutral>  (295) 
0.000450322

>  <r_epik_State_Penalty>  (295) 
0.000189905

>  <r_epik_Charging_Adjusted_Penalty>  (295) 
0.000287935

>  <i_epik_Tot_Q>  (295) 
-1

>  <i_epik_Tot_abs_Q>  (295) 
1

>  <s_epik_Chemistry_Notes>  (295) 
This compound has an ester and may undergo hydrolysis at high or low pH.

>  <s_lp_Force_Field>  (295) 
OPLS3e

>  <r_lp_Energy>  (295) 
70.8442

>  <b_lp_Chiralities_Consistent>  (295) 
1

>  <s_lp_Variant>  (295) 
98:0-4

>  <s_i_glide_gridfile>  (295) 
pfpi4k_grid

>  <i_i_glide_lignum>  (295) 
16

>  <i_i_glide_rotatable_bonds>  (295) 
2

>  <r_i_docking_score>  (295) 
-3.30417

>  <r_i_glide_ligand_efficiency>  (295) 
-0.122377

>  <r_i_glide_ligand_efficiency_sa>  (295) 
-0.36713

>  <r_i_glide_ligand_efficiency_ln>  (295) 
-0.769157

>  <r_i_glide_gscore>  (295) 
-3.30417

>  <r_i_glide_lipo>  (295) 
-0.456467

>  <r_i_glide_hbond>  (295) 
-0.0988502

>  <r_i_glide_metal>  (295) 
-0

>  <r_i_glide_rewards>  (295) 
-1.02908

>  <r_i_glide_evdw>  (295) 
-26.7585

>  <r_i_glide_ecoul>  (295) 
-2.54568

>  <r_i_glide_erotb>  (295) 
0

>  <r_i_glide_esite>  (295) 
0

>  <r_i_glide_emodel>  (295) 
-36.8196

>  <r_i_glide_energy>  (295) 
-29.3042

>  <r_i_glide_einternal>  (295) 
0.0859413

>  <r_i_glide_intrahb_reward>  (295) 
-0

>  <i_i_glide_confnum>  (295) 
2

>  <i_i_glide_posenum>  (295) 
28

>  <r_i_glide_eff_state_penalty>  (295) 
0

>  <ligand_id>  (295) 
98

>  <original_smiles>  (295) 
CC1COC2(OC3C4CC2(C)C2C(=O)OC(C2=O)C3C(C)(O)C4=O)C(O)C1

>  <smiles>  (295) 
[H]OC1([H])C([H])([H])C([H])(C([H])([H])[H])C([H])([H])OC12OC1([H])C3([H])C(=O)C(O[H])(C([H])([H])[H])C1([H])C1([H])OC([O-])=C(C1=O)C2(C([H])([H])[H])C3([H])[H]

$$$$
98:3:1
     RDKit          3D

 50 54  0  0  1  0  0  0  0  0999 V2000
    0.8363   -5.9603    4.2420 C   0  0  0  0  0  0  0  0  0  0  0  0
    2.2200   -5.8175    3.6046 C   0  0  2  0  0  0  0  0  0  0  0  0
    2.8052   -4.4107    3.7919 C   0  0  0  0  0  0  0  0  0  0  0  0
    4.0820   -4.3029    3.1611 O   0  0  0  0  0  0  0  0  0  0  0  0
    4.1094   -4.5006    1.7718 C   0  0  1  0  0  0  0  0  0  0  0  0
    3.1998   -3.6055    1.1453 O   0  0  0  0  0  0  0  0  0  0  0  0
    3.4686   -3.0450   -0.1555 C   0  0  2  0  0  0  0  0  0  0  0  0
    4.4299   -3.8796   -1.0152 C   0  0  2  0  0  0  0  0  0  0  0  0
    5.5479   -4.6159   -0.2351 C   0  0  0  0  0  0  0  0  0  0  0  0
    5.6000   -4.1949    1.2587 C   0  0  2  0  0  0  0  0  0  0  0  0
    6.6606   -5.0057    2.0393 C   0  0  0  0  0  0  0  0  0  0  0  0
    6.0251   -2.7110    1.3574 C   0  0  0  0  0  0  0  0  0  0  0  0
    6.8675   -2.0948    0.4199 C   0  0  0  0  0  0  0  0  0  0  0  0
    7.7950   -2.4474   -0.3163 O   0  0  0  0  0  0  0  0  0  0  0  0
    6.2720   -0.9050    0.0755 O   0  0  0  0  0  0  0  0  0  0  0  0
    4.9295   -0.8516    0.6007 C   0  0  2  0  0  0  0  0  0  0  0  0
    5.0979   -1.7007    1.8131 C   0  0  0  0  0  0  0  0  0  0  0  0
    4.5817   -1.4962    2.9123 O   0  0  0  0  0  0  0  0  0  0  0  0
    3.8394   -1.5116   -0.3460 C   0  0  1  0  0  0  0  0  0  0  0  0
    4.2140   -1.5202   -1.8697 C   0  0  1  0  0  0  0  0  0  0  0  0
    2.9878   -1.4564   -2.7942 C   0  0  0  0  0  0  0  0  0  0  0  0
    5.0072   -0.4522   -2.3237 O   0  0  0  0  0  0  0  0  0  0  0  0
    4.9124   -2.8703   -2.0421 C   0  0  0  0  0  0  0  0  0  0  0  0
    5.7275   -3.1243   -2.9214 O   0  0  0  0  0  0  0  0  0  0  0  0
    3.5407   -5.9489    1.4907 C   0  0  1  0  0  0  0  0  0  0  0  0
    4.3614   -7.0212    1.9321 O   0  0  0  0  0  0  0  0  0  0  0  0
    2.1609   -6.1243    2.1129 C   0  0  0  0  0  0  0  0  0  0  0  0
    0.1380   -5.2695    3.7704 H   0  0  0  0  0  0  0  0  0  0  0  0
    0.8781   -5.7289    5.3068 H   0  0  0  0  0  0  0  0  0  0  0  0
    0.4537   -6.9772    4.1219 H   0  0  0  0  0  0  0  0  0  0  0  0
    2.8994   -6.5289    4.0769 H   0  0  0  0  0  0  0  0  0  0  0  0
    2.1235   -3.6482    3.4157 H   0  0  0  0  0  0  0  0  0  0  0  0
    2.9372   -4.2110    4.8536 H   0  0  0  0  0  0  0  0  0  0  0  0
    2.4875   -3.1387   -0.6237 H   0  0  0  0  0  0  0  0  0  0  0  0
    3.8360   -4.6235   -1.5257 H   0  0  0  0  0  0  0  0  0  0  0  0
    5.4017   -5.6888   -0.3385 H   0  0  0  0  0  0  0  0  0  0  0  0
    6.5105   -4.4975   -0.7183 H   0  0  0  0  0  0  0  0  0  0  0  0
    6.6122   -6.0848    1.9211 H   0  0  0  0  0  0  0  0  0  0  0  0
    6.5979   -4.7794    3.1068 H   0  0  0  0  0  0  0  0  0  0  0  0
    7.6632   -4.7467    1.6896 H   0  0  0  0  0  0  0  0  0  0  0  0
    4.6616    0.1637    0.8901 H   0  0  0  0  0  0  0  0  0  0  0  0
    2.9406   -0.9154   -0.1953 H   0  0  0  0  0  0  0  0  0  0  0  0
    2.2783   -2.2601   -2.6113 H   0  0  0  0  0  0  0  0  0  0  0  0
    3.2538   -1.4898   -3.8512 H   0  0  0  0  0  0  0  0  0  0  0  0
    2.4486   -0.5264   -2.6256 H   0  0  0  0  0  0  0  0  0  0  0  0
    4.6194    0.3529   -2.0389 H   0  0  0  0  0  0  0  0  0  0  0  0
    3.3505   -6.0379    0.4221 H   0  0  0  0  0  0  0  0  0  0  0  0
    4.0268   -7.8376    1.5862 H   0  0  0  0  0  0  0  0  0  0  0  0
    1.8511   -7.1538    1.9417 H   0  0  0  0  0  0  0  0  0  0  0  0
    1.4296   -5.4926    1.6086 H   0  0  0  0  0  0  0  0  0  0  0  0
  1  2  1  0
  1 28  1  0
  1 29  1  0
  1 30  1  0
  2 27  1  0
  2  3  1  0
  2 31  1  1
  3  4  1  0
  3 32  1  0
  3 33  1  0
  5  4  1  1
  5 10  1  0
  5  6  1  0
  5 25  1  0
  6  7  1  0
  7 19  1  0
  7  8  1  0
  7 34  1  6
  8 23  1  0
  8  9  1  0
  8 35  1  6
  9 10  1  0
  9 36  1  0
  9 37  1  0
 10 11  1  1
 10 12  1  0
 11 38  1  0
 11 39  1  0
 11 40  1  0
 12 13  2  0
 12 17  1  0
 13 14  1  0
 13 15  1  0
 15 16  1  0
 16 19  1  0
 16 41  1  1
 16 17  1  0
 17 18  2  0
 19 20  1  0
 19 42  1  6
 20 21  1  0
 20 22  1  1
 20 23  1  0
 21 43  1  0
 21 44  1  0
 21 45  1  0
 22 46  1  0
 23 24  2  0
 25 26  1  0
 25 27  1  0
 25 47  1  6
 26 48  1  0
 27 49  1  0
 27 50  1  0
M  CHG  1  14  -1
M  END
>  <i_m_ct_stereo_status>  (296) 
1

>  <s_m_source_file>  (296) 
/var/tmp/pbs.5076255.sched01/tmpvuzdko10/1206lwnzxed.sdf

>  <i_m_source_file_index>  (296) 
16

>  <i_lp_mmshare_version>  (296) 
48012

>  <i_f3d_flags>  (296) 
0

>  <s_epik_input>  (296) 
W09IXVtDQEhdMVtDSDJdW0NASF0oW0NIM10pW0NIMl1PW0NAQF0xMltDQF0zKFtDSDNdKVtDQEBIXTRDKD1PKU9bQ0BASF0oQzQ9TylbQ0BASF01W0NASF0oTzIpW0NIXShbQ0gyXTMpQyg9TylbQ0BdNShbQ0gzXSlbT0hd

>  <s_epik_cmdline>  (296) 
J2VwaWtfcHl0aG9uJywgJy1waHQnLCAnMi4wJywgJy1waCcsICc3LjAnLCAnLXRuJywgJzgnLCAnLW1hJywgJzIwMCcsICctaW1hZScsICc8aW5maWxlLm1hZT4nLCAnLW9tYWUnLCAnPG91dGZpbGUubWFlPic=

>  <r_lp_tautomer_probability>  (296) 
0.99995

>  <r_epik_Ionization_Penalty>  (296) 
0.000548352

>  <r_epik_Ionization_Penalty_Charging>  (296) 
9.80299e-05

>  <r_epik_Ionization_Penalty_Neutral>  (296) 
0.000450322

>  <r_epik_State_Penalty>  (296) 
0.000189905

>  <r_epik_Charging_Adjusted_Penalty>  (296) 
0.000287935

>  <i_epik_Tot_Q>  (296) 
-1

>  <i_epik_Tot_abs_Q>  (296) 
1

>  <s_epik_Chemistry_Notes>  (296) 
This compound has an ester and may undergo hydrolysis at high or low pH.

>  <s_lp_Force_Field>  (296) 
OPLS3e

>  <r_lp_Energy>  (296) 
70.8442

>  <b_lp_Chiralities_Consistent>  (296) 
1

>  <s_lp_Variant>  (296) 
98:0-4

>  <s_i_glide_gridfile>  (296) 
pfpi4k_grid

>  <i_i_glide_lignum>  (296) 
16

>  <i_i_glide_rotatable_bonds>  (296) 
2

>  <r_i_docking_score>  (296) 
-3.30162

>  <r_i_glide_ligand_efficiency>  (296) 
-0.122282

>  <r_i_glide_ligand_efficiency_sa>  (296) 
-0.366847

>  <r_i_glide_ligand_efficiency_ln>  (296) 
-0.768564

>  <r_i_glide_gscore>  (296) 
-3.30162

>  <r_i_glide_lipo>  (296) 
-0.460357

>  <r_i_glide_hbond>  (296) 
-0.0950002

>  <r_i_glide_metal>  (296) 
-0

>  <r_i_glide_rewards>  (296) 
-1.02838

>  <r_i_glide_evdw>  (296) 
-26.8827

>  <r_i_glide_ecoul>  (296) 
-2.49169

>  <r_i_glide_erotb>  (296) 
0

>  <r_i_glide_esite>  (296) 
0

>  <r_i_glide_emodel>  (296) 
-36.7897

>  <r_i_glide_energy>  (296) 
-29.3743

>  <r_i_glide_einternal>  (296) 
0.398585

>  <r_i_glide_intrahb_reward>  (296) 
-0

>  <i_i_glide_confnum>  (296) 
1

>  <i_i_glide_posenum>  (296) 
29

>  <r_i_glide_eff_state_penalty>  (296) 
0

>  <ligand_id>  (296) 
98

>  <original_smiles>  (296) 
CC1COC2(OC3C4CC2(C)C2C(=O)OC(C2=O)C3C(C)(O)C4=O)C(O)C1

>  <smiles>  (296) 
[H]OC1([H])C([H])([H])C([H])(C([H])([H])[H])C([H])([H])OC12OC1([H])C3([H])C(=O)C(O[H])(C([H])([H])[H])C1([H])C1([H])OC([O-])=C(C1=O)C2(C([H])([H])[H])C3([H])[H]

$$$$
98:3:2
     RDKit          3D

 50 54  0  0  1  0  0  0  0  0999 V2000
    0.8431   -5.8881    4.3036 C   0  0  0  0  0  0  0  0  0  0  0  0
    2.2231   -5.7674    3.6560 C   0  0  2  0  0  0  0  0  0  0  0  0
    2.8225   -4.3652    3.8334 C   0  0  0  0  0  0  0  0  0  0  0  0
    4.0936   -4.2846    3.1912 O   0  0  0  0  0  0  0  0  0  0  0  0
    4.0973   -4.4749    1.8015 C   0  0  1  0  0  0  0  0  0  0  0  0
    3.2039   -3.5611    1.1882 O   0  0  0  0  0  0  0  0  0  0  0  0
    3.4597   -3.0341   -0.1283 C   0  0  2  0  0  0  0  0  0  0  0  0
    4.4049   -3.8871   -0.9982 C   0  0  2  0  0  0  0  0  0  0  0  0
    5.5185   -4.6339   -0.2220 C   0  0  0  0  0  0  0  0  0  0  0  0
    5.5845   -4.2034    1.2727 C   0  0  2  0  0  0  0  0  0  0  0  0
    6.6436   -5.0242    2.0518 C   0  0  0  0  0  0  0  0  0  0  0  0
    6.0289   -2.7211    1.3560 C   0  0  0  0  0  0  0  0  0  0  0  0
    6.8636   -2.1139    0.4213 C   0  0  0  0  0  0  0  0  0  0  0  0
    7.7805   -2.4838   -0.3323 O   0  0  0  0  0  0  0  0  0  0  0  0
    6.2966   -0.9125    0.0706 O   0  0  0  0  0  0  0  0  0  0  0  0
    4.9606   -0.8487    0.6037 C   0  0  2  0  0  0  0  0  0  0  0  0
    5.1312   -1.6940    1.8199 C   0  0  0  0  0  0  0  0  0  0  0  0
    4.6158   -1.5001    2.9227 O   0  0  0  0  0  0  0  0  0  0  0  0
    3.8499   -1.5071   -0.3298 C   0  0  1  0  0  0  0  0  0  0  0  0
    4.2006   -1.5295   -1.8593 C   0  0  1  0  0  0  0  0  0  0  0  0
    2.9659   -1.4563   -2.7720 C   0  0  0  0  0  0  0  0  0  0  0  0
    5.0005   -0.4636   -2.3188 O   0  0  0  0  0  0  0  0  0  0  0  0
    4.8895   -2.8855   -2.0326 C   0  0  0  0  0  0  0  0  0  0  0  0
    5.7076   -3.1443   -2.9132 O   0  0  0  0  0  0  0  0  0  0  0  0
    3.4945   -5.9018    1.5034 C   0  0  1  0  0  0  0  0  0  0  0  0
    4.3300   -6.9865    1.8351 O   0  0  0  0  0  0  0  0  0  0  0  0
    2.1395   -6.0886    2.1678 C   0  0  0  0  0  0  0  0  0  0  0  0
    0.1463   -5.1934    3.8361 H   0  0  0  0  0  0  0  0  0  0  0  0
    0.8927   -5.6521    5.3661 H   0  0  0  0  0  0  0  0  0  0  0  0
    0.4463   -6.8999    4.1933 H   0  0  0  0  0  0  0  0  0  0  0  0
    2.8940   -6.4876    4.1277 H   0  0  0  0  0  0  0  0  0  0  0  0
    2.1446   -3.5993    3.4562 H   0  0  0  0  0  0  0  0  0  0  0  0
    2.9585   -4.1598    4.8944 H   0  0  0  0  0  0  0  0  0  0  0  0
    2.4685   -3.1218   -0.5802 H   0  0  0  0  0  0  0  0  0  0  0  0
    3.8115   -4.6320   -1.5144 H   0  0  0  0  0  0  0  0  0  0  0  0
    5.3409   -5.7025   -0.3136 H   0  0  0  0  0  0  0  0  0  0  0  0
    6.4750   -4.5391   -0.7153 H   0  0  0  0  0  0  0  0  0  0  0  0
    6.5742   -6.1057    1.9548 H   0  0  0  0  0  0  0  0  0  0  0  0
    6.6072   -4.7802    3.1171 H   0  0  0  0  0  0  0  0  0  0  0  0
    7.6457   -4.7798    1.6855 H   0  0  0  0  0  0  0  0  0  0  0  0
    4.7046    0.1721    0.8785 H   0  0  0  0  0  0  0  0  0  0  0  0
    2.9585   -0.9009   -0.1750 H   0  0  0  0  0  0  0  0  0  0  0  0
    2.2529   -2.2543   -2.5813 H   0  0  0  0  0  0  0  0  0  0  0  0
    3.2272   -1.4952   -3.8309 H   0  0  0  0  0  0  0  0  0  0  0  0
    2.4354   -0.5192   -2.6048 H   0  0  0  0  0  0  0  0  0  0  0  0
    4.6095    0.3471   -2.0507 H   0  0  0  0  0  0  0  0  0  0  0  0
    3.3101   -5.9844    0.4344 H   0  0  0  0  0  0  0  0  0  0  0  0
    5.1986   -6.7405    1.5617 H   0  0  0  0  0  0  0  0  0  0  0  0
    1.8258   -7.1203    2.0060 H   0  0  0  0  0  0  0  0  0  0  0  0
    1.4128   -5.4508    1.6706 H   0  0  0  0  0  0  0  0  0  0  0  0
  1  2  1  0
  1 28  1  0
  1 29  1  0
  1 30  1  0
  2 27  1  0
  2  3  1  0
  2 31  1  1
  3  4  1  0
  3 32  1  0
  3 33  1  0
  5  4  1  1
  5 10  1  0
  5  6  1  0
  5 25  1  0
  6  7  1  0
  7 19  1  0
  7  8  1  0
  7 34  1  6
  8 23  1  0
  8  9  1  0
  8 35  1  6
  9 10  1  0
  9 36  1  0
  9 37  1  0
 10 11  1  1
 10 12  1  0
 11 38  1  0
 11 39  1  0
 11 40  1  0
 12 13  2  0
 12 17  1  0
 13 14  1  0
 13 15  1  0
 15 16  1  0
 16 19  1  0
 16 41  1  1
 16 17  1  0
 17 18  2  0
 19 20  1  0
 19 42  1  6
 20 21  1  0
 20 22  1  6
 20 23  1  0
 21 43  1  0
 21 44  1  0
 21 45  1  0
 22 46  1  0
 23 24  2  0
 25 26  1  0
 25 27  1  0
 25 47  1  6
 26 48  1  0
 27 49  1  0
 27 50  1  0
M  CHG  1  14  -1
M  END
>  <i_m_ct_stereo_status>  (297) 
1

>  <s_m_source_file>  (297) 
/var/tmp/pbs.5076255.sched01/tmpvuzdko10/1206lwnzxed.sdf

>  <i_m_source_file_index>  (297) 
16

>  <i_lp_mmshare_version>  (297) 
48012

>  <i_f3d_flags>  (297) 
0

>  <s_epik_input>  (297) 
W09IXVtDQEhdMVtDSDJdW0NASF0oW0NIM10pW0NIMl1PW0NAQF0xMltDQF0zKFtDSDNdKVtDQEBIXTRDKD1PKU9bQ0BASF0oQzQ9TylbQ0BASF01W0NASF0oTzIpW0NIXShbQ0gyXTMpQyg9TylbQ0BdNShbQ0gzXSlbT0hd

>  <s_epik_cmdline>  (297) 
J2VwaWtfcHl0aG9uJywgJy1waHQnLCAnMi4wJywgJy1waCcsICc3LjAnLCAnLXRuJywgJzgnLCAnLW1hJywgJzIwMCcsICctaW1hZScsICc8aW5maWxlLm1hZT4nLCAnLW9tYWUnLCAnPG91dGZpbGUubWFlPic=

>  <r_lp_tautomer_probability>  (297) 
0.99995

>  <r_epik_Ionization_Penalty>  (297) 
0.000548352

>  <r_epik_Ionization_Penalty_Charging>  (297) 
9.80299e-05

>  <r_epik_Ionization_Penalty_Neutral>  (297) 
0.000450322

>  <r_epik_State_Penalty>  (297) 
0.000189905

>  <r_epik_Charging_Adjusted_Penalty>  (297) 
0.000287935

>  <i_epik_Tot_Q>  (297) 
-1

>  <i_epik_Tot_abs_Q>  (297) 
1

>  <s_epik_Chemistry_Notes>  (297) 
This compound has an ester and may undergo hydrolysis at high or low pH.

>  <s_lp_Force_Field>  (297) 
OPLS3e

>  <r_lp_Energy>  (297) 
70.8442

>  <b_lp_Chiralities_Consistent>  (297) 
1

>  <s_lp_Variant>  (297) 
98:0-4

>  <s_i_glide_gridfile>  (297) 
pfpi4k_grid

>  <i_i_glide_lignum>  (297) 
16

>  <i_i_glide_rotatable_bonds>  (297) 
2

>  <r_i_docking_score>  (297) 
-3.29222

>  <r_i_glide_ligand_efficiency>  (297) 
-0.121934

>  <r_i_glide_ligand_efficiency_sa>  (297) 
-0.365802

>  <r_i_glide_ligand_efficiency_ln>  (297) 
-0.766374

>  <r_i_glide_gscore>  (297) 
-3.29222

>  <r_i_glide_lipo>  (297) 
-0.46276

>  <r_i_glide_hbond>  (297) 
-0.0878388

>  <r_i_glide_metal>  (297) 
-0

>  <r_i_glide_rewards>  (297) 
-1.02638

>  <r_i_glide_evdw>  (297) 
-26.8117

>  <r_i_glide_ecoul>  (297) 
-2.49772

>  <r_i_glide_erotb>  (297) 
0

>  <r_i_glide_esite>  (297) 
0

>  <r_i_glide_emodel>  (297) 
-36.6617

>  <r_i_glide_energy>  (297) 
-29.3094

>  <r_i_glide_einternal>  (297) 
0.376121

>  <r_i_glide_intrahb_reward>  (297) 
-0

>  <i_i_glide_confnum>  (297) 
2

>  <i_i_glide_posenum>  (297) 
19

>  <r_i_glide_eff_state_penalty>  (297) 
0

>  <ligand_id>  (297) 
98

>  <original_smiles>  (297) 
CC1COC2(OC3C4CC2(C)C2C(=O)OC(C2=O)C3C(C)(O)C4=O)C(O)C1

>  <smiles>  (297) 
[H]OC1([H])C([H])([H])C([H])(C([H])([H])[H])C([H])([H])OC12OC1([H])C3([H])C(=O)C(O[H])(C([H])([H])[H])C1([H])C1([H])OC([O-])=C(C1=O)C2(C([H])([H])[H])C3([H])[H]

$$$$
99:0:0
     RDKit          3D

 63 69  0  0  1  0  0  0  0  0999 V2000
    4.4026   -3.7957   -3.7341 C   0  0  0  0  0  0  0  0  0  0  0  0
    4.1157   -2.7345   -2.6496 C   0  0  0  0  0  0  0  0  0  0  0  0
    3.9043   -1.4468   -3.4781 C   0  0  0  0  0  0  0  0  0  0  0  0
    2.6989   -3.0569   -1.9243 C   0  0  0  0  0  0  0  0  0  0  0  0
    2.5728   -3.3753   -0.3565 C   0  0  0  0  0  0  0  0  0  0  0  0
    3.9654   -3.2975    0.2481 C   0  0  2  0  0  0  0  0  0  0  0  0
    3.9912   -1.8821   -0.1233 O   0  0  0  0  0  0  0  0  0  0  0  0
    5.1831   -1.4787   -0.9029 O   0  0  0  0  0  0  0  0  0  0  0  0
    5.4413   -2.5407   -1.7588 C   0  0  1  0  0  0  0  0  0  0  0  0
    5.9011   -3.6366   -0.7231 C   0  0  2  0  0  0  0  0  0  0  0  0
    4.7039   -4.4504   -0.4906 C   0  0  1  0  0  0  0  0  0  0  0  0
    4.9746   -5.8340    0.1524 C   0  0  0  0  0  0  0  0  0  0  0  0
    3.8562   -6.4296    1.0025 C   0  0  1  0  0  0  0  0  0  0  0  0
    4.2334   -7.7114    1.7637 C   0  0  0  0  0  0  0  0  0  0  0  0
    3.2737   -7.7728    2.9627 C   0  0  0  0  0  0  0  0  0  0  0  0
    2.8090   -6.3174    3.2366 C   0  0  1  0  0  0  0  0  0  0  0  0
    1.2669   -6.3001    3.3480 C   0  0  0  0  0  0  0  0  0  0  0  0
    3.4299   -5.5410    4.4206 C   0  0  1  0  0  0  0  0  0  0  0  0
    4.9257   -5.8203    4.5891 C   0  0  0  0  0  0  0  0  0  0  0  0
    5.5401   -5.0838    3.3879 C   0  0  0  0  0  0  0  0  0  0  0  0
    4.3484   -4.4347    2.6229 C   0  0  2  0  0  0  0  0  0  0  0  0
    3.4901   -4.1036    3.8725 C   0  0  0  0  0  0  0  0  0  0  0  0
    3.3405   -5.4784    2.0610 C   0  0  1  0  0  0  0  0  0  0  0  0
    4.7164   -3.2368    1.6111 C   0  0  2  0  0  0  0  0  0  0  0  0
    4.6258   -1.9140    2.4238 C   0  0  0  0  0  0  0  0  0  0  0  0
    6.1205   -3.1938    0.7922 C   0  0  1  0  0  0  0  0  0  0  0  0
    7.2256   -3.9094    1.2816 O   0  0  0  0  0  0  0  0  0  0  0  0
    3.5581   -3.8956   -4.4166 H   0  0  0  0  0  0  0  0  0  0  0  0
    4.6190   -4.7942   -3.3747 H   0  0  0  0  0  0  0  0  0  0  0  0
    5.2830   -3.5232   -4.3152 H   0  0  0  0  0  0  0  0  0  0  0  0
    3.6257   -0.5970   -2.8565 H   0  0  0  0  0  0  0  0  0  0  0  0
    3.1109   -1.5757   -4.2163 H   0  0  0  0  0  0  0  0  0  0  0  0
    4.7987   -1.1681   -4.0360 H   0  0  0  0  0  0  0  0  0  0  0  0
    2.0132   -2.2508   -2.1567 H   0  0  0  0  0  0  0  0  0  0  0  0
    2.2316   -3.8694   -2.4602 H   0  0  0  0  0  0  0  0  0  0  0  0
    1.9021   -2.6805    0.1427 H   0  0  0  0  0  0  0  0  0  0  0  0
    2.1244   -4.3649   -0.2737 H   0  0  0  0  0  0  0  0  0  0  0  0
    6.2856   -2.2815   -2.3866 H   0  0  0  0  0  0  0  0  0  0  0  0
    6.7124   -4.2231   -1.1224 H   0  0  0  0  0  0  0  0  0  0  0  0
    4.2284   -4.7849   -1.3886 H   0  0  0  0  0  0  0  0  0  0  0  0
    5.1213   -6.5274   -0.6660 H   0  0  0  0  0  0  0  0  0  0  0  0
    5.9147   -5.8689    0.6887 H   0  0  0  0  0  0  0  0  0  0  0  0
    3.0096   -6.6477    0.3543 H   0  0  0  0  0  0  0  0  0  0  0  0
    4.1690   -8.6048    1.1389 H   0  0  0  0  0  0  0  0  0  0  0  0
    5.2571   -7.6716    2.1344 H   0  0  0  0  0  0  0  0  0  0  0  0
    2.4178   -8.3896    2.6789 H   0  0  0  0  0  0  0  0  0  0  0  0
    3.7065   -8.2678    3.8334 H   0  0  0  0  0  0  0  0  0  0  0  0
    0.8753   -5.2943    3.4978 H   0  0  0  0  0  0  0  0  0  0  0  0
    0.9381   -6.9068    4.1939 H   0  0  0  0  0  0  0  0  0  0  0  0
    0.7992   -6.7080    2.4508 H   0  0  0  0  0  0  0  0  0  0  0  0
    2.8763   -5.6628    5.3550 H   0  0  0  0  0  0  0  0  0  0  0  0
    5.2871   -5.3768    5.5177 H   0  0  0  0  0  0  0  0  0  0  0  0
    5.1880   -6.8761    4.6184 H   0  0  0  0  0  0  0  0  0  0  0  0
    6.2016   -4.3094    3.7659 H   0  0  0  0  0  0  0  0  0  0  0  0
    6.1480   -5.7636    2.8012 H   0  0  0  0  0  0  0  0  0  0  0  0
    2.5063   -3.6956    3.6412 H   0  0  0  0  0  0  0  0  0  0  0  0
    3.9705   -3.4357    4.5873 H   0  0  0  0  0  0  0  0  0  0  0  0
    2.4772   -4.9485    1.6794 H   0  0  0  0  0  0  0  0  0  0  0  0
    5.2388   -1.9955    3.3206 H   0  0  0  0  0  0  0  0  0  0  0  0
    3.6085   -1.6768    2.7364 H   0  0  0  0  0  0  0  0  0  0  0  0
    5.0050   -1.0406    1.8955 H   0  0  0  0  0  0  0  0  0  0  0  0
    6.5254   -2.1833    0.8124 H   0  0  0  0  0  0  0  0  0  0  0  0
    6.9517   -4.7878    1.4618 H   0  0  0  0  0  0  0  0  0  0  0  0
  1  2  1  0
  1 28  1  0
  1 29  1  0
  1 30  1  0
  2  9  1  0
  2  3  1  0
  2  4  1  0
  3 31  1  0
  3 32  1  0
  3 33  1  0
  4  5  1  0
  4 34  1  0
  4 35  1  0
  5  6  1  0
  5 36  1  0
  5 37  1  0
  6 11  1  0
  6 24  1  0
  6  7  1  6
  7  8  1  0
  8  9  1  0
  9 10  1  0
  9 38  1  6
 10 26  1  0
 10 11  1  0
 10 39  1  6
 11 12  1  0
 11 40  1  6
 12 13  1  0
 12 41  1  0
 12 42  1  0
 13 23  1  0
 13 14  1  0
 13 43  1  6
 14 15  1  0
 14 44  1  0
 14 45  1  0
 15 16  1  0
 15 46  1  0
 15 47  1  0
 16 23  1  0
 16 17  1  1
 16 18  1  0
 17 48  1  0
 17 49  1  0
 17 50  1  0
 18 22  1  0
 18 19  1  0
 18 51  1  1
 19 20  1  0
 19 52  1  0
 19 53  1  0
 21 20  1  1
 20 54  1  0
 20 55  1  0
 21 22  1  0
 21 23  1  0
 21 24  1  0
 22 56  1  0
 22 57  1  0
 23 58  1  6
 24 25  1  1
 24 26  1  0
 25 59  1  0
 25 60  1  0
 25 61  1  0
 26 27  1  0
 26 62  1  6
 27 63  1  0
M  END
>  <i_m_ct_stereo_status>  (298) 
1

>  <s_m_source_file>  (298) 
/var/tmp/pbs.5076255.sched01/tmpvuzdko10/1206lwnzxed.sdf

>  <i_m_source_file_index>  (298) 
17

>  <i_lp_mmshare_version>  (298) 
48012

>  <i_f3d_flags>  (298) 
0

>  <s_epik_input>  (298) 
W0NIMl0xW0NIMl1DKFtDSDNdKShbQ0gzXSlbQ0BASF0oT08yKVtDQEhdKFtDQEBIXTNbQ0BdMTI0KVtDQEhdKFtPSF0pW0NAXTQoW0NIM10pW0NAQF01NltDQEhdN1tDQEBIXShbQ0gyXTMpW0NIMl1bQ0gyXVtDQEBdNyhbQ0gzXSlbQ0BIXShbQ0gyXTYpW0NIMl1bQ0gyXTU=

>  <s_epik_cmdline>  (298) 
J2VwaWtfcHl0aG9uJywgJy1waHQnLCAnMi4wJywgJy1waCcsICc3LjAnLCAnLXRuJywgJzgnLCAnLW1hJywgJzIwMCcsICctaW1hZScsICc8aW5maWxlLm1hZT4nLCAnLW9tYWUnLCAnPG91dGZpbGUubWFlPic=

>  <r_lp_tautomer_probability>  (298) 
1

>  <r_epik_Ionization_Penalty>  (298) 
1.32696e-07

>  <r_epik_Ionization_Penalty_Charging>  (298) 
0

>  <r_epik_Ionization_Penalty_Neutral>  (298) 
1.32696e-07

>  <r_epik_State_Penalty>  (298) 
-0

>  <r_epik_Charging_Adjusted_Penalty>  (298) 
0

>  <i_epik_Tot_Q>  (298) 
0

>  <i_epik_Tot_abs_Q>  (298) 
0

>  <s_lp_Force_Field>  (298) 
OPLS3e

>  <r_lp_Energy>  (298) 
195.126

>  <b_lp_Chiralities_Consistent>  (298) 
1

>  <s_lp_Variant>  (298) 
99:0-1

>  <s_i_glide_gridfile>  (298) 
pfpi4k_grid

>  <i_i_glide_lignum>  (298) 
17

>  <i_i_glide_rotatable_bonds>  (298) 
1

>  <r_i_docking_score>  (298) 
-2.88749

>  <r_i_glide_ligand_efficiency>  (298) 
-0.106944

>  <r_i_glide_ligand_efficiency_sa>  (298) 
-0.320832

>  <r_i_glide_ligand_efficiency_ln>  (298) 
-0.67216

>  <r_i_glide_gscore>  (298) 
-2.88749

>  <r_i_glide_lipo>  (298) 
-0.646135

>  <r_i_glide_hbond>  (298) 
0

>  <r_i_glide_metal>  (298) 
-0

>  <r_i_glide_rewards>  (298) 
-0.86904

>  <r_i_glide_evdw>  (298) 
-26.5295

>  <r_i_glide_ecoul>  (298) 
-0.305602

>  <r_i_glide_erotb>  (298) 
0

>  <r_i_glide_esite>  (298) 
0

>  <r_i_glide_emodel>  (298) 
-30.9094

>  <r_i_glide_energy>  (298) 
-26.8351

>  <r_i_glide_einternal>  (298) 
0.00213857

>  <r_i_glide_intrahb_reward>  (298) 
-0

>  <i_i_glide_confnum>  (298) 
1

>  <i_i_glide_posenum>  (298) 
35

>  <r_i_glide_eff_state_penalty>  (298) 
0

>  <ligand_id>  (298) 
99

>  <original_smiles>  (298) 
CC1(C)CCC23OOC1C1C2CC2CCC4(C)C5CCC(C5)(C24)C3(C)C1O

>  <smiles>  (298) 
[H]OC1([H])C2([H])C3([H])OOC4(C([H])([H])C([H])([H])C3(C([H])([H])[H])C([H])([H])[H])C2([H])C([H])([H])C2([H])C([H])([H])C([H])([H])C3(C([H])([H])[H])C5([H])C([H])([H])C([H])([H])C(C5([H])[H])(C23[H])C14C([H])([H])[H]

$$$$
99:0:1
     RDKit          3D

 63 69  0  0  1  0  0  0  0  0999 V2000
    4.4041   -3.7805   -3.7388 C   0  0  0  0  0  0  0  0  0  0  0  0
    4.1140   -2.7298   -2.6457 C   0  0  0  0  0  0  0  0  0  0  0  0
    3.9031   -1.4323   -3.4647 C   0  0  0  0  0  0  0  0  0  0  0  0
    2.6970   -3.0567   -1.9233 C   0  0  0  0  0  0  0  0  0  0  0  0
    2.5661   -3.3800   -0.3580 C   0  0  0  0  0  0  0  0  0  0  0  0
    3.9581   -3.3052    0.2462 C   0  0  2  0  0  0  0  0  0  0  0  0
    3.9851   -1.8870   -0.1115 O   0  0  0  0  0  0  0  0  0  0  0  0
    5.1808   -1.4804   -0.8937 O   0  0  0  0  0  0  0  0  0  0  0  0
    5.4400   -2.5403   -1.7499 C   0  0  1  0  0  0  0  0  0  0  0  0
    5.8963   -3.6422   -0.7173 C   0  0  2  0  0  0  0  0  0  0  0  0
    4.7013   -4.4567   -0.4935 C   0  0  1  0  0  0  0  0  0  0  0  0
    4.9791   -5.8470    0.1354 C   0  0  0  0  0  0  0  0  0  0  0  0
    3.8619   -6.4515    0.9783 C   0  0  1  0  0  0  0  0  0  0  0  0
    4.2399   -7.7423    1.7219 C   0  0  0  0  0  0  0  0  0  0  0  0
    3.2819   -7.8190    2.9182 C   0  0  0  0  0  0  0  0  0  0  0  0
    2.8110   -6.3683    3.2079 C   0  0  1  0  0  0  0  0  0  0  0  0
    1.2692   -6.3518    3.3160 C   0  0  0  0  0  0  0  0  0  0  0  0
    3.4297   -5.6046    4.3994 C   0  0  1  0  0  0  0  0  0  0  0  0
    4.9263   -5.8806    4.5689 C   0  0  0  0  0  0  0  0  0  0  0  0
    5.5373   -5.1299    3.3745 C   0  0  0  0  0  0  0  0  0  0  0  0
    4.3444   -4.4711    2.6155 C   0  0  2  0  0  0  0  0  0  0  0  0
    3.4872   -4.1587    3.8690 C   0  0  0  0  0  0  0  0  0  0  0  0
    3.3404   -5.5164    2.0425 C   0  0  1  0  0  0  0  0  0  0  0  0
    4.7025   -3.2582    1.6151 C   0  0  2  0  0  0  0  0  0  0  0  0
    4.6112   -1.9446    2.4426 C   0  0  0  0  0  0  0  0  0  0  0  0
    6.1032   -3.2081    0.7977 C   0  0  1  0  0  0  0  0  0  0  0  0
    7.1908   -3.9348    1.3020 O   0  0  0  0  0  0  0  0  0  0  0  0
    3.5626   -3.8687   -4.4263 H   0  0  0  0  0  0  0  0  0  0  0  0
    4.6177   -4.7828   -3.3864 H   0  0  0  0  0  0  0  0  0  0  0  0
    5.2905   -3.4984   -4.3083 H   0  0  0  0  0  0  0  0  0  0  0  0
    3.6218   -0.5876   -2.8319 H   0  0  0  0  0  0  0  0  0  0  0  0
    3.1111   -1.5577   -4.2001 H   0  0  0  0  0  0  0  0  0  0  0  0
    4.7997   -1.1467   -4.0178 H   0  0  0  0  0  0  0  0  0  0  0  0
    2.0121   -2.2514   -2.1515 H   0  0  0  0  0  0  0  0  0  0  0  0
    2.2293   -3.8694   -2.4676 H   0  0  0  0  0  0  0  0  0  0  0  0
    1.9003   -2.6808    0.1352 H   0  0  0  0  0  0  0  0  0  0  0  0
    2.1190   -4.3657   -0.2782 H   0  0  0  0  0  0  0  0  0  0  0  0
    6.2938   -2.2810   -2.3753 H   0  0  0  0  0  0  0  0  0  0  0  0
    6.7152   -4.2315   -1.1045 H   0  0  0  0  0  0  0  0  0  0  0  0
    4.2349   -4.7863   -1.3983 H   0  0  0  0  0  0  0  0  0  0  0  0
    5.1279   -6.5300   -0.6912 H   0  0  0  0  0  0  0  0  0  0  0  0
    5.9196   -5.8808    0.6668 H   0  0  0  0  0  0  0  0  0  0  0  0
    3.0170   -6.6512    0.3232 H   0  0  0  0  0  0  0  0  0  0  0  0
    4.1775   -8.6274    1.0882 H   0  0  0  0  0  0  0  0  0  0  0  0
    5.2643   -7.7056    2.0932 H   0  0  0  0  0  0  0  0  0  0  0  0
    2.4265   -8.4330    2.6281 H   0  0  0  0  0  0  0  0  0  0  0  0
    3.7156   -8.3204    3.7838 H   0  0  0  0  0  0  0  0  0  0  0  0
    0.8757   -5.3502    3.4773 H   0  0  0  0  0  0  0  0  0  0  0  0
    0.9424   -6.9700    4.1555 H   0  0  0  0  0  0  0  0  0  0  0  0
    0.8056   -6.7519    2.4152 H   0  0  0  0  0  0  0  0  0  0  0  0
    2.8773   -5.7340    5.3338 H   0  0  0  0  0  0  0  0  0  0  0  0
    5.2860   -5.4452    5.5040 H   0  0  0  0  0  0  0  0  0  0  0  0
    5.1931   -6.9372    4.5869 H   0  0  0  0  0  0  0  0  0  0  0  0
    6.2033   -4.3607    3.7673 H   0  0  0  0  0  0  0  0  0  0  0  0
    6.1459   -5.8011    2.7771 H   0  0  0  0  0  0  0  0  0  0  0  0
    2.5044   -3.7482    3.6349 H   0  0  0  0  0  0  0  0  0  0  0  0
    3.9687   -3.4926    4.5886 H   0  0  0  0  0  0  0  0  0  0  0  0
    2.4798   -4.9793    1.6638 H   0  0  0  0  0  0  0  0  0  0  0  0
    5.2290   -2.0367    3.3385 H   0  0  0  0  0  0  0  0  0  0  0  0
    3.5934   -1.7124    2.7548 H   0  0  0  0  0  0  0  0  0  0  0  0
    4.9951   -1.0650    1.9217 H   0  0  0  0  0  0  0  0  0  0  0  0
    6.5148   -2.1995    0.8325 H   0  0  0  0  0  0  0  0  0  0  0  0
    7.3726   -3.6256    2.1593 H   0  0  0  0  0  0  0  0  0  0  0  0
  1  2  1  0
  1 28  1  0
  1 29  1  0
  1 30  1  0
  2  9  1  0
  2  3  1  0
  2  4  1  0
  3 31  1  0
  3 32  1  0
  3 33  1  0
  4  5  1  0
  4 34  1  0
  4 35  1  0
  5  6  1  0
  5 36  1  0
  5 37  1  0
  6 11  1  0
  6 24  1  0
  6  7  1  6
  7  8  1  0
  8  9  1  0
  9 10  1  0
  9 38  1  6
 10 26  1  0
 10 11  1  0
 10 39  1  6
 11 12  1  0
 11 40  1  6
 12 13  1  0
 12 41  1  0
 12 42  1  0
 13 23  1  0
 13 14  1  0
 13 43  1  6
 14 15  1  0
 14 44  1  0
 14 45  1  0
 15 16  1  0
 15 46  1  0
 15 47  1  0
 16 23  1  0
 16 17  1  1
 16 18  1  0
 17 48  1  0
 17 49  1  0
 17 50  1  0
 18 22  1  0
 18 19  1  0
 18 51  1  1
 19 20  1  0
 19 52  1  0
 19 53  1  0
 21 20  1  1
 20 54  1  0
 20 55  1  0
 21 22  1  0
 21 23  1  0
 21 24  1  0
 22 56  1  0
 22 57  1  0
 23 58  1  6
 24 25  1  1
 24 26  1  0
 25 59  1  0
 25 60  1  0
 25 61  1  0
 26 27  1  0
 26 62  1  6
 27 63  1  0
M  END
>  <i_m_ct_stereo_status>  (299) 
1

>  <s_m_source_file>  (299) 
/var/tmp/pbs.5076255.sched01/tmpvuzdko10/1206lwnzxed.sdf

>  <i_m_source_file_index>  (299) 
17

>  <i_lp_mmshare_version>  (299) 
48012

>  <i_f3d_flags>  (299) 
0

>  <s_epik_input>  (299) 
W0NIMl0xW0NIMl1DKFtDSDNdKShbQ0gzXSlbQ0BASF0oT08yKVtDQEhdKFtDQEBIXTNbQ0BdMTI0KVtDQEhdKFtPSF0pW0NAXTQoW0NIM10pW0NAQF01NltDQEhdN1tDQEBIXShbQ0gyXTMpW0NIMl1bQ0gyXVtDQEBdNyhbQ0gzXSlbQ0BIXShbQ0gyXTYpW0NIMl1bQ0gyXTU=

>  <s_epik_cmdline>  (299) 
J2VwaWtfcHl0aG9uJywgJy1waHQnLCAnMi4wJywgJy1waCcsICc3LjAnLCAnLXRuJywgJzgnLCAnLW1hJywgJzIwMCcsICctaW1hZScsICc8aW5maWxlLm1hZT4nLCAnLW9tYWUnLCAnPG91dGZpbGUubWFlPic=

>  <r_lp_tautomer_probability>  (299) 
1

>  <r_epik_Ionization_Penalty>  (299) 
1.32696e-07

>  <r_epik_Ionization_Penalty_Charging>  (299) 
0

>  <r_epik_Ionization_Penalty_Neutral>  (299) 
1.32696e-07

>  <r_epik_State_Penalty>  (299) 
-0

>  <r_epik_Charging_Adjusted_Penalty>  (299) 
0

>  <i_epik_Tot_Q>  (299) 
0

>  <i_epik_Tot_abs_Q>  (299) 
0

>  <s_lp_Force_Field>  (299) 
OPLS3e

>  <r_lp_Energy>  (299) 
195.126

>  <b_lp_Chiralities_Consistent>  (299) 
1

>  <s_lp_Variant>  (299) 
99:0-1

>  <s_i_glide_gridfile>  (299) 
pfpi4k_grid

>  <i_i_glide_lignum>  (299) 
17

>  <i_i_glide_rotatable_bonds>  (299) 
1

>  <r_i_docking_score>  (299) 
-2.83439

>  <r_i_glide_ligand_efficiency>  (299) 
-0.104978

>  <r_i_glide_ligand_efficiency_sa>  (299) 
-0.314933

>  <r_i_glide_ligand_efficiency_ln>  (299) 
-0.6598

>  <r_i_glide_gscore>  (299) 
-2.83439

>  <r_i_glide_lipo>  (299) 
-0.643391

>  <r_i_glide_hbond>  (299) 
0

>  <r_i_glide_metal>  (299) 
-0

>  <r_i_glide_rewards>  (299) 
-0.86904

>  <r_i_glide_evdw>  (299) 
-26.4191

>  <r_i_glide_ecoul>  (299) 
-0.00672996

>  <r_i_glide_erotb>  (299) 
0

>  <r_i_glide_esite>  (299) 
0

>  <r_i_glide_emodel>  (299) 
-30.2676

>  <r_i_glide_energy>  (299) 
-26.4258

>  <r_i_glide_einternal>  (299) 
0.33366

>  <r_i_glide_intrahb_reward>  (299) 
-0

>  <i_i_glide_confnum>  (299) 
2

>  <i_i_glide_posenum>  (299) 
32

>  <r_i_glide_eff_state_penalty>  (299) 
0

>  <ligand_id>  (299) 
99

>  <original_smiles>  (299) 
CC1(C)CCC23OOC1C1C2CC2CCC4(C)C5CCC(C5)(C24)C3(C)C1O

>  <smiles>  (299) 
[H]OC1([H])C2([H])C3([H])OOC4(C([H])([H])C([H])([H])C3(C([H])([H])[H])C([H])([H])[H])C2([H])C([H])([H])C2([H])C([H])([H])C([H])([H])C3(C([H])([H])[H])C5([H])C([H])([H])C([H])([H])C(C5([H])[H])(C23[H])C14C([H])([H])[H]

$$$$
99:0:2
     RDKit          3D

 63 69  0  0  1  0  0  0  0  0999 V2000
    4.4096   -3.7800   -3.7294 C   0  0  0  0  0  0  0  0  0  0  0  0
    4.1149   -2.7305   -2.6327 C   0  0  0  0  0  0  0  0  0  0  0  0
    3.9048   -1.4390   -3.4550 C   0  0  0  0  0  0  0  0  0  0  0  0
    2.7040   -3.0561   -1.9102 C   0  0  0  0  0  0  0  0  0  0  0  0
    2.5829   -3.3843   -0.3531 C   0  0  0  0  0  0  0  0  0  0  0  0
    3.9685   -3.3155    0.2498 C   0  0  2  0  0  0  0  0  0  0  0  0
    3.9857   -1.8920   -0.1018 O   0  0  0  0  0  0  0  0  0  0  0  0
    5.1942   -1.4808   -0.8841 O   0  0  0  0  0  0  0  0  0  0  0  0
    5.4433   -2.5403   -1.7471 C   0  0  1  0  0  0  0  0  0  0  0  0
    5.8914   -3.6426   -0.7141 C   0  0  2  0  0  0  0  0  0  0  0  0
    4.7051   -4.4609   -0.4973 C   0  0  1  0  0  0  0  0  0  0  0  0
    4.9749   -5.8440    0.1454 C   0  0  0  0  0  0  0  0  0  0  0  0
    3.8609   -6.4478    0.9880 C   0  0  1  0  0  0  0  0  0  0  0  0
    4.2397   -7.7369    1.7328 C   0  0  0  0  0  0  0  0  0  0  0  0
    3.2841   -7.8125    2.9291 C   0  0  0  0  0  0  0  0  0  0  0  0
    2.8145   -6.3636    3.2133 C   0  0  1  0  0  0  0  0  0  0  0  0
    1.2724   -6.3448    3.3242 C   0  0  0  0  0  0  0  0  0  0  0  0
    3.4286   -5.5926    4.4049 C   0  0  1  0  0  0  0  0  0  0  0  0
    4.9237   -5.8701    4.5785 C   0  0  0  0  0  0  0  0  0  0  0  0
    5.5375   -5.1242    3.3819 C   0  0  0  0  0  0  0  0  0  0  0  0
    4.3464   -4.4669    2.6201 C   0  0  2  0  0  0  0  0  0  0  0  0
    3.4903   -4.1495    3.8707 C   0  0  0  0  0  0  0  0  0  0  0  0
    3.3461   -5.5085    2.0501 C   0  0  1  0  0  0  0  0  0  0  0  0
    4.7062   -3.2547    1.6092 C   0  0  2  0  0  0  0  0  0  0  0  0
    4.6133   -1.9431    2.4401 C   0  0  0  0  0  0  0  0  0  0  0  0
    6.1065   -3.2123    0.8052 C   0  0  1  0  0  0  0  0  0  0  0  0
    7.1742   -3.9659    1.2998 O   0  0  0  0  0  0  0  0  0  0  0  0
    3.5650   -3.8729   -4.4181 H   0  0  0  0  0  0  0  0  0  0  0  0
    4.6234   -4.7828   -3.3779 H   0  0  0  0  0  0  0  0  0  0  0  0
    5.2926   -3.5028   -4.3065 H   0  0  0  0  0  0  0  0  0  0  0  0
    3.6234   -0.5907   -2.8281 H   0  0  0  0  0  0  0  0  0  0  0  0
    3.1123   -1.5616   -4.1962 H   0  0  0  0  0  0  0  0  0  0  0  0
    4.8003   -1.1512   -4.0132 H   0  0  0  0  0  0  0  0  0  0  0  0
    2.0173   -2.2513   -2.1470 H   0  0  0  0  0  0  0  0  0  0  0  0
    2.2351   -3.8644   -2.4577 H   0  0  0  0  0  0  0  0  0  0  0  0
    1.9143   -2.6828    0.1407 H   0  0  0  0  0  0  0  0  0  0  0  0
    2.1224   -4.3664   -0.2702 H   0  0  0  0  0  0  0  0  0  0  0  0
    6.2819   -2.2811   -2.3709 H   0  0  0  0  0  0  0  0  0  0  0  0
    6.7015   -4.2297   -1.1181 H   0  0  0  0  0  0  0  0  0  0  0  0
    4.2335   -4.7855   -1.3924 H   0  0  0  0  0  0  0  0  0  0  0  0
    5.1222   -6.5290   -0.6802 H   0  0  0  0  0  0  0  0  0  0  0  0
    5.9139   -5.8911    0.6749 H   0  0  0  0  0  0  0  0  0  0  0  0
    3.0163   -6.6474    0.3401 H   0  0  0  0  0  0  0  0  0  0  0  0
    4.1810   -8.6252    1.1023 H   0  0  0  0  0  0  0  0  0  0  0  0
    5.2616   -7.6987    2.1077 H   0  0  0  0  0  0  0  0  0  0  0  0
    2.4269   -8.4257    2.6452 H   0  0  0  0  0  0  0  0  0  0  0  0
    3.7149   -8.3120    3.7948 H   0  0  0  0  0  0  0  0  0  0  0  0
    0.8765   -5.3459    3.4854 H   0  0  0  0  0  0  0  0  0  0  0  0
    0.9444   -6.9620    4.1638 H   0  0  0  0  0  0  0  0  0  0  0  0
    0.8081   -6.7482    2.4259 H   0  0  0  0  0  0  0  0  0  0  0  0
    2.8770   -5.7246    5.3416 H   0  0  0  0  0  0  0  0  0  0  0  0
    5.2857   -5.4334    5.5125 H   0  0  0  0  0  0  0  0  0  0  0  0
    5.1932   -6.9279    4.5979 H   0  0  0  0  0  0  0  0  0  0  0  0
    6.2039   -4.3525    3.7651 H   0  0  0  0  0  0  0  0  0  0  0  0
    6.1477   -5.7950    2.7868 H   0  0  0  0  0  0  0  0  0  0  0  0
    2.5082   -3.7430    3.6374 H   0  0  0  0  0  0  0  0  0  0  0  0
    3.9708   -3.4865    4.5913 H   0  0  0  0  0  0  0  0  0  0  0  0
    2.4827   -4.9751    1.6751 H   0  0  0  0  0  0  0  0  0  0  0  0
    5.2318   -2.0346    3.3341 H   0  0  0  0  0  0  0  0  0  0  0  0
    3.5963   -1.7151    2.7520 H   0  0  0  0  0  0  0  0  0  0  0  0
    4.9979   -1.0622    1.9184 H   0  0  0  0  0  0  0  0  0  0  0  0
    6.5322   -2.2082    0.8401 H   0  0  0  0  0  0  0  0  0  0  0  0
    7.9730   -3.7122    0.8489 H   0  0  0  0  0  0  0  0  0  0  0  0
  1  2  1  0
  1 28  1  0
  1 29  1  0
  1 30  1  0
  2  9  1  0
  2  3  1  0
  2  4  1  0
  3 31  1  0
  3 32  1  0
  3 33  1  0
  4  5  1  0
  4 34  1  0
  4 35  1  0
  5  6  1  0
  5 36  1  0
  5 37  1  0
  6 11  1  0
  6 24  1  0
  6  7  1  6
  7  8  1  0
  8  9  1  0
  9 10  1  0
  9 38  1  6
 10 26  1  0
 10 11  1  0
 10 39  1  6
 11 12  1  0
 11 40  1  6
 12 13  1  0
 12 41  1  0
 12 42  1  0
 13 23  1  0
 13 14  1  0
 13 43  1  6
 14 15  1  0
 14 44  1  0
 14 45  1  0
 15 16  1  0
 15 46  1  0
 15 47  1  0
 16 23  1  0
 16 17  1  1
 16 18  1  0
 17 48  1  0
 17 49  1  0
 17 50  1  0
 18 22  1  0
 18 19  1  0
 18 51  1  1
 19 20  1  0
 19 52  1  0
 19 53  1  0
 21 20  1  1
 20 54  1  0
 20 55  1  0
 21 22  1  0
 21 23  1  0
 21 24  1  0
 22 56  1  0
 22 57  1  0
 23 58  1  6
 24 25  1  1
 24 26  1  0
 25 59  1  0
 25 60  1  0
 25 61  1  0
 26 27  1  0
 26 62  1  6
 27 63  1  0
M  END
>  <i_m_ct_stereo_status>  (300) 
1

>  <s_m_source_file>  (300) 
/var/tmp/pbs.5076255.sched01/tmpvuzdko10/1206lwnzxed.sdf

>  <i_m_source_file_index>  (300) 
17

>  <i_lp_mmshare_version>  (300) 
48012

>  <i_f3d_flags>  (300) 
0

>  <s_epik_input>  (300) 
W0NIMl0xW0NIMl1DKFtDSDNdKShbQ0gzXSlbQ0BASF0oT08yKVtDQEhdKFtDQEBIXTNbQ0BdMTI0KVtDQEhdKFtPSF0pW0NAXTQoW0NIM10pW0NAQF01NltDQEhdN1tDQEBIXShbQ0gyXTMpW0NIMl1bQ0gyXVtDQEBdNyhbQ0gzXSlbQ0BIXShbQ0gyXTYpW0NIMl1bQ0gyXTU=

>  <s_epik_cmdline>  (300) 
J2VwaWtfcHl0aG9uJywgJy1waHQnLCAnMi4wJywgJy1waCcsICc3LjAnLCAnLXRuJywgJzgnLCAnLW1hJywgJzIwMCcsICctaW1hZScsICc8aW5maWxlLm1hZT4nLCAnLW9tYWUnLCAnPG91dGZpbGUubWFlPic=

>  <r_lp_tautomer_probability>  (300) 
1

>  <r_epik_Ionization_Penalty>  (300) 
1.32696e-07

>  <r_epik_Ionization_Penalty_Charging>  (300) 
0

>  <r_epik_Ionization_Penalty_Neutral>  (300) 
1.32696e-07

>  <r_epik_State_Penalty>  (300) 
-0

>  <r_epik_Charging_Adjusted_Penalty>  (300) 
0

>  <i_epik_Tot_Q>  (300) 
0

>  <i_epik_Tot_abs_Q>  (300) 
0

>  <s_lp_Force_Field>  (300) 
OPLS3e

>  <r_lp_Energy>  (300) 
195.126

>  <b_lp_Chiralities_Consistent>  (300) 
1

>  <s_lp_Variant>  (300) 
99:0-1

>  <s_i_glide_gridfile>  (300) 
pfpi4k_grid

>  <i_i_glide_lignum>  (300) 
17

>  <i_i_glide_rotatable_bonds>  (300) 
1

>  <r_i_docking_score>  (300) 
-2.82747

>  <r_i_glide_ligand_efficiency>  (300) 
-0.104721

>  <r_i_glide_ligand_efficiency_sa>  (300) 
-0.314163

>  <r_i_glide_ligand_efficiency_ln>  (300) 
-0.658188

>  <r_i_glide_gscore>  (300) 
-2.82747

>  <r_i_glide_lipo>  (300) 
-0.642586

>  <r_i_glide_hbond>  (300) 
0

>  <r_i_glide_metal>  (300) 
-0

>  <r_i_glide_rewards>  (300) 
-0.86904

>  <r_i_glide_evdw>  (300) 
-26.6319

>  <r_i_glide_ecoul>  (300) 
0.105007

>  <r_i_glide_erotb>  (300) 
0

>  <r_i_glide_esite>  (300) 
0

>  <r_i_glide_emodel>  (300) 
-30.284

>  <r_i_glide_energy>  (300) 
-26.5269

>  <r_i_glide_einternal>  (300) 
0.335127

>  <r_i_glide_intrahb_reward>  (300) 
-0

>  <i_i_glide_confnum>  (300) 
2

>  <i_i_glide_posenum>  (300) 
27

>  <r_i_glide_eff_state_penalty>  (300) 
0

>  <ligand_id>  (300) 
99

>  <original_smiles>  (300) 
CC1(C)CCC23OOC1C1C2CC2CCC4(C)C5CCC(C5)(C24)C3(C)C1O

>  <smiles>  (300) 
[H]OC1([H])C2([H])C3([H])OOC4(C([H])([H])C([H])([H])C3(C([H])([H])[H])C([H])([H])[H])C2([H])C([H])([H])C2([H])C([H])([H])C([H])([H])C3(C([H])([H])[H])C5([H])C([H])([H])C([H])([H])C(C5([H])[H])(C23[H])C14C([H])([H])[H]

$$$$
100:0:0
     RDKit          3D

 51 56  0  0  1  0  0  0  0  0999 V2000
    6.2866   -2.7371   -2.3081 C   0  0  0  0  0  0  0  0  0  0  0  0
    5.0575   -3.3942   -1.6233 C   0  0  2  0  0  0  0  0  0  0  0  0
    3.7887   -2.9874   -2.3752 C   0  0  0  0  0  0  0  0  0  0  0  0
    3.8503   -1.6747   -2.8091 O   0  0  0  0  0  0  0  0  0  0  0  0
    3.0192   -1.6463   -3.9518 C   0  0  0  0  0  0  0  0  0  0  0  0
    2.5218   -3.0878   -4.0869 C   0  0  0  0  0  0  0  0  0  0  0  0
    3.5740   -3.7813   -3.4776 O   0  0  0  0  0  0  0  0  0  0  0  0
    2.8264   -3.1450   -1.4229 O   0  0  0  0  0  0  0  0  0  0  0  0
    3.4507   -2.5425   -0.2093 O   0  0  0  0  0  0  0  0  0  0  0  0
    4.7338   -3.1118   -0.1223 C   0  0  2  0  0  0  0  0  0  0  0  0
    5.7418   -2.1267    0.4790 C   0  0  2  0  0  0  0  0  0  0  0  0
    6.9794   -2.7745    0.8118 O   0  0  0  0  0  0  0  0  0  0  0  0
    7.1673   -4.0654    1.2228 C   0  0  0  0  0  0  0  0  0  0  0  0
    8.2908   -4.4662    1.4980 O   0  0  0  0  0  0  0  0  0  0  0  0
    5.9449   -4.9610    1.2607 C   0  0  1  0  0  0  0  0  0  0  0  0
    6.3734   -6.3240    0.7517 C   0  0  0  0  0  0  0  0  0  0  0  0
    5.4883   -5.0998    2.6219 O   0  0  0  0  0  0  0  0  0  0  0  0
    4.3772   -4.2372    2.3326 C   0  0  1  0  0  0  0  0  0  0  0  0
    4.5681   -3.0349    3.2398 C   0  0  0  0  0  0  0  0  0  0  0  0
    4.2145   -1.7511    2.5489 C   0  0  0  0  0  0  0  0  0  0  0  0
    3.2027   -0.9278    2.7877 C   0  0  0  0  0  0  0  0  0  0  0  0
    3.3188    0.3615    2.0070 C   0  0  0  0  0  0  0  0  0  0  0  0
    4.4714    0.0648    1.0155 C   0  0  0  0  0  0  0  0  0  0  0  0
    5.1988   -1.1870    1.5825 C   0  0  2  0  0  0  0  0  0  0  0  0
    6.2519   -0.7240    2.3641 O   0  0  0  0  0  0  0  0  0  0  0  0
    4.6075   -4.3675    0.7992 C   0  0  1  0  0  0  0  0  0  0  0  0
    3.6089   -5.3953    0.2141 C   0  0  0  0  0  0  0  0  0  0  0  0
    6.2477   -1.6434   -2.2952 H   0  0  0  0  0  0  0  0  0  0  0  0
    6.2774   -3.0250   -3.3613 H   0  0  0  0  0  0  0  0  0  0  0  0
    7.2399   -3.0564   -1.8778 H   0  0  0  0  0  0  0  0  0  0  0  0
    5.1441   -4.4707   -1.7177 H   0  0  0  0  0  0  0  0  0  0  0  0
    2.2262   -0.9236   -3.7724 H   0  0  0  0  0  0  0  0  0  0  0  0
    3.6104   -1.3356   -4.8168 H   0  0  0  0  0  0  0  0  0  0  0  0
    1.5678   -3.2130   -3.5701 H   0  0  0  0  0  0  0  0  0  0  0  0
    2.3994   -3.4537   -5.1121 H   0  0  0  0  0  0  0  0  0  0  0  0
    6.0134   -1.4044   -0.2816 H   0  0  0  0  0  0  0  0  0  0  0  0
    6.5193   -6.1979   -0.3239 H   0  0  0  0  0  0  0  0  0  0  0  0
    5.6070   -7.0889    0.9103 H   0  0  0  0  0  0  0  0  0  0  0  0
    7.3142   -6.6716    1.1984 H   0  0  0  0  0  0  0  0  0  0  0  0
    3.4398   -4.7277    2.5602 H   0  0  0  0  0  0  0  0  0  0  0  0
    3.9426   -3.1276    4.1266 H   0  0  0  0  0  0  0  0  0  0  0  0
    5.5953   -2.9680    3.6113 H   0  0  0  0  0  0  0  0  0  0  0  0
    2.4173   -1.0837    3.5183 H   0  0  0  0  0  0  0  0  0  0  0  0
    2.3837    0.6100    1.5090 H   0  0  0  0  0  0  0  0  0  0  0  0
    3.5643    1.1776    2.6896 H   0  0  0  0  0  0  0  0  0  0  0  0
    4.0125   -0.1598    0.0519 H   0  0  0  0  0  0  0  0  0  0  0  0
    5.1493    0.9065    0.8378 H   0  0  0  0  0  0  0  0  0  0  0  0
    6.8093   -0.1628    1.8401 H   0  0  0  0  0  0  0  0  0  0  0  0
    3.4535   -6.2328    0.8956 H   0  0  0  0  0  0  0  0  0  0  0  0
    3.9781   -5.8352   -0.7107 H   0  0  0  0  0  0  0  0  0  0  0  0
    2.6060   -4.9944    0.0541 H   0  0  0  0  0  0  0  0  0  0  0  0
  1  2  1  0
  1 28  1  0
  1 29  1  0
  1 30  1  0
  2 10  1  0
  2  3  1  0
  2 31  1  1
  3  7  1  0
  3  4  1  0
  3  8  1  0
  4  5  1  0
  5  6  1  0
  5 32  1  0
  5 33  1  0
  6  7  1  0
  6 34  1  0
  6 35  1  0
  8  9  1  0
 10  9  1  6
 10 26  1  0
 10 11  1  0
 11 24  1  0
 11 12  1  0
 11 36  1  6
 12 13  1  0
 13 14  2  0
 13 15  1  0
 15 26  1  0
 15 16  1  6
 15 17  1  0
 16 37  1  0
 16 38  1  0
 16 39  1  0
 17 18  1  0
 18 19  1  0
 18 26  1  0
 18 40  1  6
 19 20  1  0
 19 41  1  0
 19 42  1  0
 20 24  1  0
 20 21  2  0
 21 22  1  0
 21 43  1  0
 22 23  1  0
 22 44  1  0
 22 45  1  0
 23 24  1  0
 23 46  1  0
 23 47  1  0
 24 25  1  1
 25 48  1  0
 26 27  1  6
 27 49  1  0
 27 50  1  0
 27 51  1  0
M  END
>  <i_m_ct_stereo_status>  (301) 
1

>  <s_m_source_file>  (301) 
/var/tmp/pbs.5076255.sched01/tmpvuzdko10/1206lwnzxed.sdf

>  <i_m_source_file_index>  (301) 
18

>  <i_lp_mmshare_version>  (301) 
48012

>  <i_f3d_flags>  (301) 
0

>  <s_epik_input>  (301) 
TzFbQ0gyXVtDSDJdT0MxMltDQEBIXShbQ0gzXSlbQ0BdMyhPTzIpW0NASF00W0NAXTUoW09IXSlDKD1bQ0hdW0NIMl1bQ0gyXTUpW0NIMl1bQ0BIXTZbQ0BdMyhbQ0gzXSlbQ0BdKE82KShDKE80KT1PKVtDSDNd

>  <s_epik_cmdline>  (301) 
J2VwaWtfcHl0aG9uJywgJy1waHQnLCAnMi4wJywgJy1waCcsICc3LjAnLCAnLXRuJywgJzgnLCAnLW1hJywgJzIwMCcsICctaW1hZScsICc8aW5maWxlLm1hZT4nLCAnLW9tYWUnLCAnPG91dGZpbGUubWFlPic=

>  <r_lp_tautomer_probability>  (301) 
1

>  <r_epik_Ionization_Penalty>  (301) 
6.73069e-07

>  <r_epik_Ionization_Penalty_Charging>  (301) 
0

>  <r_epik_Ionization_Penalty_Neutral>  (301) 
6.73069e-07

>  <r_epik_State_Penalty>  (301) 
-0

>  <r_epik_Charging_Adjusted_Penalty>  (301) 
0

>  <i_epik_Tot_Q>  (301) 
0

>  <i_epik_Tot_abs_Q>  (301) 
0

>  <s_epik_Chemistry_Notes>  (301) 
This compound has an ester and may undergo hydrolysis at high or low pH.

>  <s_lp_Force_Field>  (301) 
OPLS3e

>  <r_lp_Energy>  (301) 
22.8415

>  <b_lp_Chiralities_Consistent>  (301) 
1

>  <s_lp_Variant>  (301) 
100:0-1

>  <s_i_glide_gridfile>  (301) 
pfpi4k_grid

>  <i_i_glide_lignum>  (301) 
18

>  <i_i_glide_rotatable_bonds>  (301) 
1

>  <r_i_docking_score>  (301) 
-2.96705

>  <r_i_glide_ligand_efficiency>  (301) 
-0.109891

>  <r_i_glide_ligand_efficiency_sa>  (301) 
-0.329672

>  <r_i_glide_ligand_efficiency_ln>  (301) 
-0.690681

>  <r_i_glide_gscore>  (301) 
-2.96705

>  <r_i_glide_lipo>  (301) 
-0.766498

>  <r_i_glide_hbond>  (301) 
0

>  <r_i_glide_metal>  (301) 
-0

>  <r_i_glide_rewards>  (301) 
-0.951461

>  <r_i_glide_evdw>  (301) 
-18.0899

>  <r_i_glide_ecoul>  (301) 
-2.15996

>  <r_i_glide_erotb>  (301) 
0

>  <r_i_glide_esite>  (301) 
-0.0206032

>  <r_i_glide_emodel>  (301) 
-22.0079

>  <r_i_glide_energy>  (301) 
-20.2499

>  <r_i_glide_einternal>  (301) 
0.166911

>  <r_i_glide_intrahb_reward>  (301) 
-0

>  <i_i_glide_confnum>  (301) 
3

>  <i_i_glide_posenum>  (301) 
24

>  <r_i_glide_eff_state_penalty>  (301) 
0

>  <ligand_id>  (301) 
100

>  <original_smiles>  (301) 
CC1C2(OCCO2)OOC12C1OC(=O)C3(C)OC(CC4=CCCC41O)C32C

>  <smiles>  (301) 
[H]OC12C(=C([H])C([H])([H])C1([H])[H])C([H])([H])C1([H])OC3(C([H])([H])[H])C(=O)OC2([H])C2(OOC4(OC([H])([H])C([H])([H])O4)C2([H])C([H])([H])[H])C13C([H])([H])[H]

$$$$
100:0:1
     RDKit          3D

 51 56  0  0  1  0  0  0  0  0999 V2000
    6.2612   -3.2272   -1.1158 C   0  0  0  0  0  0  0  0  0  0  0  0
    4.7548   -3.5934   -0.8980 C   0  0  2  0  0  0  0  0  0  0  0  0
    3.8956   -2.8217   -1.9126 C   0  0  0  0  0  0  0  0  0  0  0  0
    4.4013   -1.5498   -2.1321 O   0  0  0  0  0  0  0  0  0  0  0  0
    3.9787   -1.2160   -3.4365 C   0  0  0  0  0  0  0  0  0  0  0  0
    3.2395   -2.4604   -3.9370 C   0  0  0  0  0  0  0  0  0  0  0  0
    3.8150   -3.4570   -3.1303 O   0  0  0  0  0  0  0  0  0  0  0  0
    2.6899   -2.7688   -1.2908 O   0  0  0  0  0  0  0  0  0  0  0  0
    3.0479   -2.4194    0.1150 O   0  0  0  0  0  0  0  0  0  0  0  0
    4.0579   -3.3166    0.4807 C   0  0  2  0  0  0  0  0  0  0  0  0
    5.0237   -2.6475    1.4807 C   0  0  2  0  0  0  0  0  0  0  0  0
    5.8774   -3.6148    2.1064 O   0  0  0  0  0  0  0  0  0  0  0  0
    5.6091   -4.9206    2.3850 C   0  0  0  0  0  0  0  0  0  0  0  0
    6.4144   -5.5726    3.0569 O   0  0  0  0  0  0  0  0  0  0  0  0
    4.3140   -5.4965    1.8529 C   0  0  1  0  0  0  0  0  0  0  0  0
    4.5776   -6.8828    1.2524 C   0  0  0  0  0  0  0  0  0  0  0  0
    3.3949   -5.6346    2.9603 O   0  0  0  0  0  0  0  0  0  0  0  0
    2.6823   -4.4587    2.5404 C   0  0  1  0  0  0  0  0  0  0  0  0
    2.8664   -3.3915    3.6215 C   0  0  0  0  0  0  0  0  0  0  0  0
    3.0923   -2.0086    3.0808 C   0  0  0  0  0  0  0  0  0  0  0  0
    2.2507   -0.9687    3.0985 C   0  0  0  0  0  0  0  0  0  0  0  0
    2.8831    0.2894    2.5683 C   0  0  0  0  0  0  0  0  0  0  0  0
    4.1945   -0.2215    1.9357 C   0  0  0  0  0  0  0  0  0  0  0  0
    4.4305   -1.6469    2.5117 C   0  0  2  0  0  0  0  0  0  0  0  0
    5.3511   -1.4590    3.5640 O   0  0  0  0  0  0  0  0  0  0  0  0
    3.3436   -4.5436    1.1309 C   0  0  1  0  0  0  0  0  0  0  0  0
    2.3635   -5.2255    0.1663 C   0  0  0  0  0  0  0  0  0  0  0  0
    6.4770   -2.1668   -0.9436 H   0  0  0  0  0  0  0  0  0  0  0  0
    6.5462   -3.4161   -2.1556 H   0  0  0  0  0  0  0  0  0  0  0  0
    6.9263   -3.8101   -0.4728 H   0  0  0  0  0  0  0  0  0  0  0  0
    4.6492   -4.6506   -1.1276 H   0  0  0  0  0  0  0  0  0  0  0  0
    3.3476   -0.3287   -3.4022 H   0  0  0  0  0  0  0  0  0  0  0  0
    4.8588   -1.0284   -4.0519 H   0  0  0  0  0  0  0  0  0  0  0  0
    2.1615   -2.3810   -3.7668 H   0  0  0  0  0  0  0  0  0  0  0  0
    3.4109   -2.6756   -4.9865 H   0  0  0  0  0  0  0  0  0  0  0  0
    5.6942   -2.0005    0.9283 H   0  0  0  0  0  0  0  0  0  0  0  0
    5.0820   -6.7911    0.2875 H   0  0  0  0  0  0  0  0  0  0  0  0
    3.6541   -7.4395    1.0818 H   0  0  0  0  0  0  0  0  0  0  0  0
    5.2008   -7.5041    1.8976 H   0  0  0  0  0  0  0  0  0  0  0  0
    1.6243   -4.6831    2.4316 H   0  0  0  0  0  0  0  0  0  0  0  0
    1.9859   -3.3666    4.2611 H   0  0  0  0  0  0  0  0  0  0  0  0
    3.6978   -3.6388    4.2812 H   0  0  0  0  0  0  0  0  0  0  0  0
    1.2520   -0.9744    3.5027 H   0  0  0  0  0  0  0  0  0  0  0  0
    2.2454    0.7999    1.8474 H   0  0  0  0  0  0  0  0  0  0  0  0
    3.0863    0.9708    3.3974 H   0  0  0  0  0  0  0  0  0  0  0  0
    4.0591   -0.2539    0.8554 H   0  0  0  0  0  0  0  0  0  0  0  0
    5.0316    0.4497    2.1233 H   0  0  0  0  0  0  0  0  0  0  0  0
    5.5699   -2.3107    3.9084 H   0  0  0  0  0  0  0  0  0  0  0  0
    1.8234   -6.0439    0.6293 H   0  0  0  0  0  0  0  0  0  0  0  0
    2.8901   -5.6771   -0.7000 H   0  0  0  0  0  0  0  0  0  0  0  0
    1.6036   -4.5783   -0.2504 H   0  0  0  0  0  0  0  0  0  0  0  0
  1  2  1  0
  1 28  1  0
  1 29  1  0
  1 30  1  0
  2 10  1  0
  2  3  1  0
  2 31  1  6
  3  7  1  0
  3  4  1  0
  3  8  1  0
  4  5  1  0
  5  6  1  0
  5 32  1  0
  5 33  1  0
  6  7  1  0
  6 34  1  0
  6 35  1  0
  8  9  1  0
 10  9  1  6
 10 26  1  0
 10 11  1  0
 11 24  1  0
 11 12  1  0
 11 36  1  6
 12 13  1  0
 13 14  2  0
 13 15  1  0
 15 26  1  0
 15 16  1  6
 15 17  1  0
 16 37  1  0
 16 38  1  0
 16 39  1  0
 17 18  1  0
 18 19  1  0
 18 26  1  0
 18 40  1  6
 19 20  1  0
 19 41  1  0
 19 42  1  0
 20 24  1  0
 20 21  2  0
 21 22  1  0
 21 43  1  0
 22 23  1  0
 22 44  1  0
 22 45  1  0
 23 24  1  0
 23 46  1  0
 23 47  1  0
 24 25  1  1
 25 48  1  0
 26 27  1  6
 27 49  1  0
 27 50  1  0
 27 51  1  0
M  END
>  <i_m_ct_stereo_status>  (302) 
1

>  <s_m_source_file>  (302) 
/var/tmp/pbs.5076255.sched01/tmpvuzdko10/1206lwnzxed.sdf

>  <i_m_source_file_index>  (302) 
18

>  <i_lp_mmshare_version>  (302) 
48012

>  <i_f3d_flags>  (302) 
0

>  <s_epik_input>  (302) 
TzFbQ0gyXVtDSDJdT0MxMltDQEBIXShbQ0gzXSlbQ0BdMyhPTzIpW0NASF00W0NAXTUoW09IXSlDKD1bQ0hdW0NIMl1bQ0gyXTUpW0NIMl1bQ0BIXTZbQ0BdMyhbQ0gzXSlbQ0BdKE82KShDKE80KT1PKVtDSDNd

>  <s_epik_cmdline>  (302) 
J2VwaWtfcHl0aG9uJywgJy1waHQnLCAnMi4wJywgJy1waCcsICc3LjAnLCAnLXRuJywgJzgnLCAnLW1hJywgJzIwMCcsICctaW1hZScsICc8aW5maWxlLm1hZT4nLCAnLW9tYWUnLCAnPG91dGZpbGUubWFlPic=

>  <r_lp_tautomer_probability>  (302) 
1

>  <r_epik_Ionization_Penalty>  (302) 
6.73069e-07

>  <r_epik_Ionization_Penalty_Charging>  (302) 
0

>  <r_epik_Ionization_Penalty_Neutral>  (302) 
6.73069e-07

>  <r_epik_State_Penalty>  (302) 
-0

>  <r_epik_Charging_Adjusted_Penalty>  (302) 
0

>  <i_epik_Tot_Q>  (302) 
0

>  <i_epik_Tot_abs_Q>  (302) 
0

>  <s_epik_Chemistry_Notes>  (302) 
This compound has an ester and may undergo hydrolysis at high or low pH.

>  <s_lp_Force_Field>  (302) 
OPLS3e

>  <r_lp_Energy>  (302) 
22.8415

>  <b_lp_Chiralities_Consistent>  (302) 
1

>  <s_lp_Variant>  (302) 
100:0-1

>  <s_i_glide_gridfile>  (302) 
pfpi4k_grid

>  <i_i_glide_lignum>  (302) 
18

>  <i_i_glide_rotatable_bonds>  (302) 
1

>  <r_i_docking_score>  (302) 
-2.35278

>  <r_i_glide_ligand_efficiency>  (302) 
-0.0871401

>  <r_i_glide_ligand_efficiency_sa>  (302) 
-0.26142

>  <r_i_glide_ligand_efficiency_ln>  (302) 
-0.547689

>  <r_i_glide_gscore>  (302) 
-2.35278

>  <r_i_glide_lipo>  (302) 
-0.670291

>  <r_i_glide_hbond>  (302) 
0

>  <r_i_glide_metal>  (302) 
-0

>  <r_i_glide_rewards>  (302) 
-0.842755

>  <r_i_glide_evdw>  (302) 
-20.3444

>  <r_i_glide_ecoul>  (302) 
1.30393

>  <r_i_glide_erotb>  (302) 
0

>  <r_i_glide_esite>  (302) 
-0.0181074

>  <r_i_glide_emodel>  (302) 
-21.1328

>  <r_i_glide_energy>  (302) 
-19.0405

>  <r_i_glide_einternal>  (302) 
0.0040252

>  <r_i_glide_intrahb_reward>  (302) 
-0

>  <i_i_glide_confnum>  (302) 
3

>  <i_i_glide_posenum>  (302) 
37

>  <r_i_glide_eff_state_penalty>  (302) 
0

>  <ligand_id>  (302) 
100

>  <original_smiles>  (302) 
CC1C2(OCCO2)OOC12C1OC(=O)C3(C)OC(CC4=CCCC41O)C32C

>  <smiles>  (302) 
[H]OC12C(=C([H])C([H])([H])C1([H])[H])C([H])([H])C1([H])OC3(C([H])([H])[H])C(=O)OC2([H])C2(OOC4(OC([H])([H])C([H])([H])O4)C2([H])C([H])([H])[H])C13C([H])([H])[H]

$$$$
100:0:2
     RDKit          3D

 51 56  0  0  1  0  0  0  0  0999 V2000
    6.2088   -2.9751   -0.2101 C   0  0  0  0  0  0  0  0  0  0  0  0
    4.7850   -3.6217   -0.2503 C   0  0  2  0  0  0  0  0  0  0  0  0
    3.9999   -3.0556   -1.4424 C   0  0  0  0  0  0  0  0  0  0  0  0
    4.3043   -1.7148   -1.6351 O   0  0  0  0  0  0  0  0  0  0  0  0
    4.0779   -1.4897   -3.0088 C   0  0  0  0  0  0  0  0  0  0  0  0
    3.7015   -2.8654   -3.5724 C   0  0  0  0  0  0  0  0  0  0  0  0
    4.2788   -3.7245   -2.6121 O   0  0  0  0  0  0  0  0  0  0  0  0
    2.7023   -3.2095   -1.0498 O   0  0  0  0  0  0  0  0  0  0  0  0
    2.7280   -2.7859    0.3802 O   0  0  0  0  0  0  0  0  0  0  0  0
    3.8064   -3.4705    0.9689 C   0  0  2  0  0  0  0  0  0  0  0  0
    4.4326   -2.6072    2.0889 C   0  0  2  0  0  0  0  0  0  0  0  0
    5.3326   -3.3848    2.8898 O   0  0  0  0  0  0  0  0  0  0  0  0
    5.2552   -4.7118    3.2090 C   0  0  0  0  0  0  0  0  0  0  0  0
    6.0042   -5.1887    4.0474 O   0  0  0  0  0  0  0  0  0  0  0  0
    4.2085   -5.5309    2.4599 C   0  0  1  0  0  0  0  0  0  0  0  0
    4.8407   -6.8498    1.9971 C   0  0  0  0  0  0  0  0  0  0  0  0
    3.1416   -5.8351    3.3876 O   0  0  0  0  0  0  0  0  0  0  0  0
    2.3121   -4.8214    2.7819 C   0  0  1  0  0  0  0  0  0  0  0  0
    2.0908   -3.7267    3.8317 C   0  0  0  0  0  0  0  0  0  0  0  0
    2.1523   -2.3189    3.2889 C   0  0  0  0  0  0  0  0  0  0  0  0
    1.1500   -1.4748    3.1024 C   0  0  0  0  0  0  0  0  0  0  0  0
    1.6090   -0.1206    2.6186 C   0  0  0  0  0  0  0  0  0  0  0  0
    3.0905   -0.3730    2.2633 C   0  0  0  0  0  0  0  0  0  0  0  0
    3.4892   -1.7202    2.9461 C   0  0  2  0  0  0  0  0  0  0  0  0
    4.1612   -1.3420    4.1317 O   0  0  0  0  0  0  0  0  0  0  0  0
    3.2307   -4.7977    1.5370 C   0  0  1  0  0  0  0  0  0  0  0  0
    2.6149   -5.6833    0.4167 C   0  0  0  0  0  0  0  0  0  0  0  0
    6.1911   -1.8857   -0.0551 H   0  0  0  0  0  0  0  0  0  0  0  0
    6.7229   -3.1185   -1.1711 H   0  0  0  0  0  0  0  0  0  0  0  0
    6.8473   -3.4038    0.5731 H   0  0  0  0  0  0  0  0  0  0  0  0
    4.9326   -4.6793   -0.4359 H   0  0  0  0  0  0  0  0  0  0  0  0
    3.2932   -0.7447   -3.1318 H   0  0  0  0  0  0  0  0  0  0  0  0
    5.0057   -1.1268   -3.4486 H   0  0  0  0  0  0  0  0  0  0  0  0
    2.6139   -2.9885   -3.5997 H   0  0  0  0  0  0  0  0  0  0  0  0
    4.0929   -3.0498   -4.5701 H   0  0  0  0  0  0  0  0  0  0  0  0
    5.0574   -1.8456    1.6311 H   0  0  0  0  0  0  0  0  0  0  0  0
    5.4945   -6.6792    1.1388 H   0  0  0  0  0  0  0  0  0  0  0  0
    4.0874   -7.5794    1.6898 H   0  0  0  0  0  0  0  0  0  0  0  0
    5.4353   -7.3306    2.7766 H   0  0  0  0  0  0  0  0  0  0  0  0
    1.3584   -5.2540    2.4978 H   0  0  0  0  0  0  0  0  0  0  0  0
    1.1163   -3.8635    4.2988 H   0  0  0  0  0  0  0  0  0  0  0  0
    2.8140   -3.7981    4.6428 H   0  0  0  0  0  0  0  0  0  0  0  0
    0.1069   -1.6719    3.3076 H   0  0  0  0  0  0  0  0  0  0  0  0
    1.0280    0.2318    1.7660 H   0  0  0  0  0  0  0  0  0  0  0  0
    1.5093    0.6006    3.4324 H   0  0  0  0  0  0  0  0  0  0  0  0
    3.1592   -0.4588    1.1779 H   0  0  0  0  0  0  0  0  0  0  0  0
    3.7326    0.4702    2.5396 H   0  0  0  0  0  0  0  0  0  0  0  0
    3.6397   -0.7041    4.5758 H   0  0  0  0  0  0  0  0  0  0  0  0
    2.1552   -6.5821    0.8285 H   0  0  0  0  0  0  0  0  0  0  0  0
    3.3429   -6.0353   -0.3149 H   0  0  0  0  0  0  0  0  0  0  0  0
    1.8069   -5.1948   -0.1249 H   0  0  0  0  0  0  0  0  0  0  0  0
  1  2  1  0
  1 28  1  0
  1 29  1  0
  1 30  1  0
  2 10  1  0
  2  3  1  0
  2 31  1  6
  3  7  1  0
  3  4  1  0
  3  8  1  0
  4  5  1  0
  5  6  1  0
  5 32  1  0
  5 33  1  0
  6  7  1  0
  6 34  1  0
  6 35  1  0
  8  9  1  0
 10  9  1  6
 10 26  1  0
 10 11  1  0
 11 24  1  0
 11 12  1  0
 11 36  1  6
 12 13  1  0
 13 14  2  0
 13 15  1  0
 15 26  1  0
 15 16  1  6
 15 17  1  0
 16 37  1  0
 16 38  1  0
 16 39  1  0
 17 18  1  0
 18 19  1  0
 18 26  1  0
 18 40  1  6
 19 20  1  0
 19 41  1  0
 19 42  1  0
 20 24  1  0
 20 21  2  0
 21 22  1  0
 21 43  1  0
 22 23  1  0
 22 44  1  0
 22 45  1  0
 23 24  1  0
 23 46  1  0
 23 47  1  0
 24 25  1  1
 25 48  1  0
 26 27  1  6
 27 49  1  0
 27 50  1  0
 27 51  1  0
M  END
>  <i_m_ct_stereo_status>  (303) 
1

>  <s_m_source_file>  (303) 
/var/tmp/pbs.5076255.sched01/tmpvuzdko10/1206lwnzxed.sdf

>  <i_m_source_file_index>  (303) 
18

>  <i_lp_mmshare_version>  (303) 
48012

>  <i_f3d_flags>  (303) 
0

>  <s_epik_input>  (303) 
TzFbQ0gyXVtDSDJdT0MxMltDQEBIXShbQ0gzXSlbQ0BdMyhPTzIpW0NASF00W0NAXTUoW09IXSlDKD1bQ0hdW0NIMl1bQ0gyXTUpW0NIMl1bQ0BIXTZbQ0BdMyhbQ0gzXSlbQ0BdKE82KShDKE80KT1PKVtDSDNd

>  <s_epik_cmdline>  (303) 
J2VwaWtfcHl0aG9uJywgJy1waHQnLCAnMi4wJywgJy1waCcsICc3LjAnLCAnLXRuJywgJzgnLCAnLW1hJywgJzIwMCcsICctaW1hZScsICc8aW5maWxlLm1hZT4nLCAnLW9tYWUnLCAnPG91dGZpbGUubWFlPic=

>  <r_lp_tautomer_probability>  (303) 
1

>  <r_epik_Ionization_Penalty>  (303) 
6.73069e-07

>  <r_epik_Ionization_Penalty_Charging>  (303) 
0

>  <r_epik_Ionization_Penalty_Neutral>  (303) 
6.73069e-07

>  <r_epik_State_Penalty>  (303) 
-0

>  <r_epik_Charging_Adjusted_Penalty>  (303) 
0

>  <i_epik_Tot_Q>  (303) 
0

>  <i_epik_Tot_abs_Q>  (303) 
0

>  <s_epik_Chemistry_Notes>  (303) 
This compound has an ester and may undergo hydrolysis at high or low pH.

>  <s_lp_Force_Field>  (303) 
OPLS3e

>  <r_lp_Energy>  (303) 
22.8415

>  <b_lp_Chiralities_Consistent>  (303) 
1

>  <s_lp_Variant>  (303) 
100:0-1

>  <s_i_glide_gridfile>  (303) 
pfpi4k_grid

>  <i_i_glide_lignum>  (303) 
18

>  <i_i_glide_rotatable_bonds>  (303) 
1

>  <r_i_docking_score>  (303) 
-2.17022

>  <r_i_glide_ligand_efficiency>  (303) 
-0.0803786

>  <r_i_glide_ligand_efficiency_sa>  (303) 
-0.241136

>  <r_i_glide_ligand_efficiency_ln>  (303) 
-0.505192

>  <r_i_glide_gscore>  (303) 
-2.17022

>  <r_i_glide_lipo>  (303) 
-0.38278

>  <r_i_glide_hbond>  (303) 
0

>  <r_i_glide_metal>  (303) 
-0

>  <r_i_glide_rewards>  (303) 
-0.828067

>  <r_i_glide_evdw>  (303) 
-21.1922

>  <r_i_glide_ecoul>  (303) 
0.768212

>  <r_i_glide_erotb>  (303) 
0

>  <r_i_glide_esite>  (303) 
-0.0149998

>  <r_i_glide_emodel>  (303) 
-22.3281

>  <r_i_glide_energy>  (303) 
-20.4239

>  <r_i_glide_einternal>  (303) 
0.091214

>  <r_i_glide_intrahb_reward>  (303) 
-0

>  <i_i_glide_confnum>  (303) 
3

>  <i_i_glide_posenum>  (303) 
27

>  <r_i_glide_eff_state_penalty>  (303) 
0

>  <ligand_id>  (303) 
100

>  <original_smiles>  (303) 
CC1C2(OCCO2)OOC12C1OC(=O)C3(C)OC(CC4=CCCC41O)C32C

>  <smiles>  (303) 
[H]OC12C(=C([H])C([H])([H])C1([H])[H])C([H])([H])C1([H])OC3(C([H])([H])[H])C(=O)OC2([H])C2(OOC4(OC([H])([H])C([H])([H])O4)C2([H])C([H])([H])[H])C13C([H])([H])[H]

$$$$
101:0:0
     RDKit          3D

 85 91  0  0  1  0  0  0  0  0999 V2000
    3.4640   -6.0229    6.7393 C   0  0  0  0  0  0  0  0  0  0  0  0
    3.7339   -6.5789    5.3208 C   0  0  2  0  0  0  0  0  0  0  0  0
    4.7927   -5.6518    4.6702 C   0  0  0  0  0  0  0  0  0  0  0  0
    5.6547   -6.2892    3.5517 C   0  0  0  0  0  0  0  0  0  0  0  0
    4.8734   -6.4965    2.2229 C   0  0  1  0  0  0  0  0  0  0  0  0
    5.5476   -5.8711    1.1065 O   0  0  0  0  0  0  0  0  0  0  0  0
    5.2457   -4.5580    0.6692 C   0  0  1  0  0  0  0  0  0  0  0  0
    3.7690   -4.4389    0.1980 C   0  0  0  0  0  0  0  0  0  0  0  0
    3.4699   -2.9625   -0.0640 C   0  0  2  0  0  0  0  0  0  0  0  0
    4.2554   -2.5981   -1.2140 O   0  0  0  0  0  0  0  0  0  0  0  0
    5.5515   -1.9388   -0.8038 O   0  0  0  0  0  0  0  0  0  0  0  0
    6.4965   -2.9287   -0.4571 C   0  0  1  0  0  0  0  0  0  0  0  0
    7.7826   -2.8731   -1.2898 C   0  0  0  0  0  0  0  0  0  0  0  0
    6.7247   -2.6611    0.9881 C   0  0  0  0  0  0  0  0  0  0  0  0
    5.7006   -3.4988    1.7263 C   0  0  1  0  0  0  0  0  0  0  0  0
    4.4831   -2.7598    2.3116 C   0  0  1  0  0  0  0  0  0  0  0  0
    4.8610   -1.8695    3.5143 C   0  0  0  0  0  0  0  0  0  0  0  0
    3.5679   -2.1130    1.2525 C   0  0  1  0  0  0  0  0  0  0  0  0
    3.7497   -0.6046    1.0658 C   0  0  0  0  0  0  0  0  0  0  0  0
    5.9838   -4.2584   -0.4813 O   0  0  0  0  0  0  0  0  0  0  0  0
    4.6255   -8.0106    1.9402 C   0  0  1  0  0  0  0  0  0  0  0  0
    5.9714   -8.7067    1.6125 C   0  0  0  0  0  0  0  0  0  0  0  0
    3.8335   -8.7288    3.1000 C   0  0  2  0  0  0  0  0  0  0  0  0
    3.7615  -10.2693    2.9179 C   0  0  0  0  0  0  0  0  0  0  0  0
    3.1885  -11.0119    4.1484 C   0  0  0  0  0  0  0  0  0  0  0  0
    1.9538  -10.3314    4.7744 C   0  0  1  0  0  0  0  0  0  0  0  0
    2.2053   -9.8396    6.2145 C   0  0  0  0  0  0  0  0  0  0  0  0
    1.4094   -9.2673    3.8072 C   0  0  1  0  0  0  0  0  0  0  0  0
    0.1153   -8.8445    4.1632 O   0  0  0  0  0  0  0  0  0  0  0  0
   -0.3037   -7.7109    3.4216 C   0  0  1  0  0  0  0  0  0  0  0  0
   -1.7733   -7.9221    3.0306 C   0  0  0  0  0  0  0  0  0  0  0  0
   -0.1428   -6.4971    4.3325 C   0  0  0  0  0  0  0  0  0  0  0  0
    1.1179   -6.5612    5.1961 C   0  0  0  0  0  0  0  0  0  0  0  0
    2.4435   -6.8202    4.4256 C   0  0  2  0  0  0  0  0  0  0  0  0
    2.4120   -8.1067    3.4626 C   0  0  1  0  0  0  0  0  0  0  0  0
    1.8952   -7.5932    2.2304 O   0  0  0  0  0  0  0  0  0  0  0  0
    0.3575   -7.5553    2.1578 O   0  0  0  0  0  0  0  0  0  0  0  0
    3.0536   -5.0076    6.7219 H   0  0  0  0  0  0  0  0  0  0  0  0
    4.3988   -5.9715    7.3032 H   0  0  0  0  0  0  0  0  0  0  0  0
    2.7949   -6.6701    7.3152 H   0  0  0  0  0  0  0  0  0  0  0  0
    4.2206   -7.5174    5.5517 H   0  0  0  0  0  0  0  0  0  0  0  0
    4.2793   -4.7387    4.3690 H   0  0  0  0  0  0  0  0  0  0  0  0
    5.4952   -5.3260    5.4352 H   0  0  0  0  0  0  0  0  0  0  0  0
    6.5345   -5.6705    3.3644 H   0  0  0  0  0  0  0  0  0  0  0  0
    6.0653   -7.2465    3.9228 H   0  0  0  0  0  0  0  0  0  0  0  0
    3.8903   -6.0539    2.2938 H   0  0  0  0  0  0  0  0  0  0  0  0
    3.6631   -5.0196   -0.7148 H   0  0  0  0  0  0  0  0  0  0  0  0
    3.0440   -4.8107    0.9131 H   0  0  0  0  0  0  0  0  0  0  0  0
    2.4261   -2.9055   -0.3795 H   0  0  0  0  0  0  0  0  0  0  0  0
    7.6198   -3.1407   -2.3364 H   0  0  0  0  0  0  0  0  0  0  0  0
    8.5392   -3.5595   -0.8942 H   0  0  0  0  0  0  0  0  0  0  0  0
    8.2265   -1.8772   -1.2302 H   0  0  0  0  0  0  0  0  0  0  0  0
    7.7012   -3.0500    1.2208 H   0  0  0  0  0  0  0  0  0  0  0  0
    6.7176   -1.5953    1.2190 H   0  0  0  0  0  0  0  0  0  0  0  0
    6.2550   -3.9373    2.5462 H   0  0  0  0  0  0  0  0  0  0  0  0
    3.8509   -3.5419    2.7134 H   0  0  0  0  0  0  0  0  0  0  0  0
    5.5115   -1.0362    3.2343 H   0  0  0  0  0  0  0  0  0  0  0  0
    5.4023   -2.4422    4.2727 H   0  0  0  0  0  0  0  0  0  0  0  0
    3.9816   -1.4562    4.0085 H   0  0  0  0  0  0  0  0  0  0  0  0
    2.5800   -2.1894    1.6975 H   0  0  0  0  0  0  0  0  0  0  0  0
    4.7690   -0.3618    0.7652 H   0  0  0  0  0  0  0  0  0  0  0  0
    3.5525   -0.0559    1.9933 H   0  0  0  0  0  0  0  0  0  0  0  0
    3.0537   -0.2401    0.3061 H   0  0  0  0  0  0  0  0  0  0  0  0
    4.0230   -8.0878    1.0348 H   0  0  0  0  0  0  0  0  0  0  0  0
    6.5962   -8.8422    2.4961 H   0  0  0  0  0  0  0  0  0  0  0  0
    6.5523   -8.1274    0.8985 H   0  0  0  0  0  0  0  0  0  0  0  0
    5.8292   -9.6865    1.1530 H   0  0  0  0  0  0  0  0  0  0  0  0
    4.4710   -8.6798    3.9698 H   0  0  0  0  0  0  0  0  0  0  0  0
    3.1711  -10.5083    2.0357 H   0  0  0  0  0  0  0  0  0  0  0  0
    4.7520  -10.6862    2.7521 H   0  0  0  0  0  0  0  0  0  0  0  0
    2.9217  -12.0280    3.8442 H   0  0  0  0  0  0  0  0  0  0  0  0
    3.9676  -11.1164    4.9010 H   0  0  0  0  0  0  0  0  0  0  0  0
    1.1857  -11.1002    4.8676 H   0  0  0  0  0  0  0  0  0  0  0  0
    2.9562   -9.0591    6.2680 H   0  0  0  0  0  0  0  0  0  0  0  0
    2.5479  -10.6539    6.8504 H   0  0  0  0  0  0  0  0  0  0  0  0
    1.2848   -9.4575    6.6588 H   0  0  0  0  0  0  0  0  0  0  0  0
    1.2179   -9.8034    2.8708 H   0  0  0  0  0  0  0  0  0  0  0  0
   -1.8837   -8.7745    2.3594 H   0  0  0  0  0  0  0  0  0  0  0  0
   -2.1679   -7.0518    2.5042 H   0  0  0  0  0  0  0  0  0  0  0  0
   -2.4099   -8.1066    3.8969 H   0  0  0  0  0  0  0  0  0  0  0  0
   -0.1679   -5.5801    3.7447 H   0  0  0  0  0  0  0  0  0  0  0  0
   -0.9976   -6.4446    5.0129 H   0  0  0  0  0  0  0  0  0  0  0  0
    1.1557   -5.6023    5.7117 H   0  0  0  0  0  0  0  0  0  0  0  0
    0.9871   -7.3144    5.9731 H   0  0  0  0  0  0  0  0  0  0  0  0
    2.4149   -5.9619    3.7537 H   0  0  0  0  0  0  0  0  0  0  0  0
  1  2  1  0
  1 38  1  0
  1 39  1  0
  1 40  1  0
  2 34  1  0
  2  3  1  0
  2 41  1  1
  3  4  1  0
  3 42  1  0
  3 43  1  0
  4  5  1  0
  4 44  1  0
  4 45  1  0
  5  6  1  0
  5 21  1  0
  5 46  1  1
  7  6  1  1
  7 15  1  0
  7 20  1  0
  7  8  1  0
  8  9  1  0
  8 47  1  0
  8 48  1  0
  9 18  1  0
  9 10  1  0
  9 49  1  6
 10 11  1  0
 11 12  1  0
 12 13  1  6
 12 14  1  0
 12 20  1  0
 13 50  1  0
 13 51  1  0
 13 52  1  0
 14 15  1  0
 14 53  1  0
 14 54  1  0
 15 16  1  0
 15 55  1  1
 16 17  1  0
 16 18  1  0
 16 56  1  1
 17 57  1  0
 17 58  1  0
 17 59  1  0
 18 19  1  0
 18 60  1  1
 19 61  1  0
 19 62  1  0
 19 63  1  0
 21 22  1  0
 21 23  1  0
 21 64  1  6
 22 65  1  0
 22 66  1  0
 22 67  1  0
 23 35  1  0
 23 24  1  0
 23 68  1  1
 24 25  1  0
 24 69  1  0
 24 70  1  0
 25 26  1  0
 25 71  1  0
 25 72  1  0
 26 27  1  0
 26 28  1  0
 26 73  1  1
 27 74  1  0
 27 75  1  0
 27 76  1  0
 28 35  1  0
 28 29  1  0
 28 77  1  6
 29 30  1  0
 30 37  1  0
 30 31  1  6
 30 32  1  0
 31 78  1  0
 31 79  1  0
 31 80  1  0
 32 33  1  0
 32 81  1  0
 32 82  1  0
 33 34  1  0
 33 83  1  0
 33 84  1  0
 34 35  1  0
 34 85  1  6
 35 36  1  6
 36 37  1  0
M  END
>  <i_m_ct_stereo_status>  (304) 
1

>  <s_m_source_file>  (304) 
/var/tmp/pbs.5076255.sched01/tmpvuzdko10/1206lwnzxed.sdf

>  <i_m_source_file_index>  (304) 
19

>  <i_lp_mmshare_version>  (304) 
48012

>  <i_f3d_flags>  (304) 
0

>  <s_epik_input>  (304) 
W0NIMl0xW0NIMl1bQ0BASF0oW0NIM10pW0NASF0yT1tDQF0oW0NIM10pKE9PMylbQ0gyXVtDSDJdW0NASF00W0NASF0oW0NIM10pW0NIMl1bQ0gyXVtDQEhdKFtDQEBIXShbQ0gzXSlbQ0BIXTFbQ0BdMjM0KU9bQ0BdNTZbQ0BIXTdbQ0gyXVtDQF0oTzYpKFtDSDNdKU9PW0NAQEhdKFtDSDJdNSlbQ0BIXShbQ0gzXSlbQ0BASF03W0NIM10=

>  <s_epik_cmdline>  (304) 
J2VwaWtfcHl0aG9uJywgJy1waHQnLCAnMi4wJywgJy1waCcsICc3LjAnLCAnLXRuJywgJzgnLCAnLW1hJywgJzIwMCcsICctaW1hZScsICc8aW5maWxlLm1hZT4nLCAnLW9tYWUnLCAnPG91dGZpbGUubWFlPic=

>  <r_lp_tautomer_probability>  (304) 
1

>  <r_epik_Ionization_Penalty>  (304) 
1.9168e-13

>  <r_epik_Ionization_Penalty_Charging>  (304) 
0

>  <r_epik_Ionization_Penalty_Neutral>  (304) 
1.9168e-13

>  <r_epik_State_Penalty>  (304) 
-0

>  <r_epik_Charging_Adjusted_Penalty>  (304) 
0

>  <i_epik_Tot_Q>  (304) 
0

>  <i_epik_Tot_abs_Q>  (304) 
0

>  <s_lp_Force_Field>  (304) 
OPLS3e

>  <r_lp_Energy>  (304) 
86.2461

>  <b_lp_Chiralities_Consistent>  (304) 
1

>  <s_lp_Variant>  (304) 
101:0-1

>  <s_i_glide_gridfile>  (304) 
pfpi4k_grid

>  <i_i_glide_lignum>  (304) 
19

>  <i_i_glide_rotatable_bonds>  (304) 
2

>  <r_i_docking_score>  (304) 
-2.18695

>  <r_i_glide_ligand_efficiency>  (304) 
-0.0591068

>  <r_i_glide_ligand_efficiency_sa>  (304) 
-0.196957

>  <r_i_glide_ligand_efficiency_ln>  (304) 
-0.474298

>  <r_i_glide_gscore>  (304) 
-2.18695

>  <r_i_glide_lipo>  (304) 
-0.308377

>  <r_i_glide_hbond>  (304) 
0

>  <r_i_glide_metal>  (304) 
-0

>  <r_i_glide_rewards>  (304) 
-0.127041

>  <r_i_glide_evdw>  (304) 
-37.2232

>  <r_i_glide_ecoul>  (304) 
0.0446197

>  <r_i_glide_erotb>  (304) 
0.151611

>  <r_i_glide_esite>  (304) 
-0.0486784

>  <r_i_glide_emodel>  (304) 
-38.8884

>  <r_i_glide_energy>  (304) 
-37.1786

>  <r_i_glide_einternal>  (304) 
2.37328

>  <r_i_glide_intrahb_reward>  (304) 
-0

>  <i_i_glide_confnum>  (304) 
3

>  <i_i_glide_posenum>  (304) 
1

>  <r_i_glide_eff_state_penalty>  (304) 
0

>  <ligand_id>  (304) 
101

>  <original_smiles>  (304) 
CC1CCC(OC23CC4OOC(C)(CC2C(C)C4C)O3)C(C)C2CCC(C)C3OC4(C)CCC1C23OO4

>  <smiles>  (304) 
[H]C([H])([H])C12OOC34C([H])(O1)C([H])(C([H])([H])[H])C([H])([H])C([H])([H])C3([H])C([H])(C([H])([H])[H])C([H])(OC13OC5(C([H])([H])[H])OOC([H])(C1([H])[H])C([H])(C([H])([H])[H])C([H])(C([H])([H])[H])C3([H])C5([H])[H])C([H])([H])C([H])([H])C([H])(C([H])([H])[H])C4([H])C([H])([H])C2([H])[H]

$$$$
101:0:1
     RDKit          3D

 85 91  0  0  1  0  0  0  0  0999 V2000
    2.0374   -8.8084    8.0762 C   0  0  0  0  0  0  0  0  0  0  0  0
    2.6571   -8.1167    6.8418 C   0  0  2  0  0  0  0  0  0  0  0  0
    3.3338   -6.7974    7.3092 C   0  0  0  0  0  0  0  0  0  0  0  0
    4.4684   -6.2078    6.4381 C   0  0  0  0  0  0  0  0  0  0  0  0
    4.0465   -5.6792    5.0420 C   0  0  1  0  0  0  0  0  0  0  0  0
    4.6301   -4.3750    4.8403 O   0  0  0  0  0  0  0  0  0  0  0  0
    3.8027   -3.3095    4.4427 C   0  0  1  0  0  0  0  0  0  0  0  0
    4.6433   -2.0174    4.5495 C   0  0  0  0  0  0  0  0  0  0  0  0
    3.8745   -0.8649    3.8880 C   0  0  2  0  0  0  0  0  0  0  0  0
    2.7213   -0.6531    4.7123 O   0  0  0  0  0  0  0  0  0  0  0  0
    1.5107   -1.4074    4.2072 O   0  0  0  0  0  0  0  0  0  0  0  0
    1.5750   -2.7642    4.5897 C   0  0  1  0  0  0  0  0  0  0  0  0
    0.3383   -3.1908    5.3932 C   0  0  0  0  0  0  0  0  0  0  0  0
    1.7024   -3.4821    3.2709 C   0  0  0  0  0  0  0  0  0  0  0  0
    3.1977   -3.5321    3.0275 C   0  0  1  0  0  0  0  0  0  0  0  0
    3.7814   -2.5911    1.9659 C   0  0  1  0  0  0  0  0  0  0  0  0
    3.3208   -2.9221    0.5360 C   0  0  0  0  0  0  0  0  0  0  0  0
    3.6873   -1.0909    2.3579 C   0  0  1  0  0  0  0  0  0  0  0  0
    2.5388   -0.3039    1.7039 C   0  0  0  0  0  0  0  0  0  0  0  0
    2.7320   -3.1334    5.3151 O   0  0  0  0  0  0  0  0  0  0  0  0
    4.4697   -6.6533    3.8999 C   0  0  1  0  0  0  0  0  0  0  0  0
    6.0098   -6.6382    3.7243 C   0  0  0  0  0  0  0  0  0  0  0  0
    3.8461   -8.0840    4.0154 C   0  0  2  0  0  0  0  0  0  0  0  0
    4.3615   -9.0006    2.8723 C   0  0  0  0  0  0  0  0  0  0  0  0
    3.9456  -10.4681    3.0562 C   0  0  0  0  0  0  0  0  0  0  0  0
    2.4721  -10.6645    3.4765 C   0  0  1  0  0  0  0  0  0  0  0  0
    2.3326  -11.3051    4.8702 C   0  0  0  0  0  0  0  0  0  0  0  0
    1.7071   -9.3405    3.2982 C   0  0  1  0  0  0  0  0  0  0  0  0
    0.3094   -9.5250    3.3355 O   0  0  0  0  0  0  0  0  0  0  0  0
   -0.3822   -8.2952    3.3945 C   0  0  1  0  0  0  0  0  0  0  0  0
   -1.6242   -8.4197    2.5010 C   0  0  0  0  0  0  0  0  0  0  0  0
   -0.7946   -8.0625    4.8455 C   0  0  0  0  0  0  0  0  0  0  0  0
    0.2720   -8.5092    5.8505 C   0  0  0  0  0  0  0  0  0  0  0  0
    1.6774   -7.9092    5.6146 C   0  0  2  0  0  0  0  0  0  0  0  0
    2.2521   -8.1346    4.1396 C   0  0  1  0  0  0  0  0  0  0  0  0
    1.7613   -7.0011    3.4094 O   0  0  0  0  0  0  0  0  0  0  0  0
    0.3348   -7.1847    2.8395 O   0  0  0  0  0  0  0  0  0  0  0  0
    1.2834   -8.1898    8.5631 H   0  0  0  0  0  0  0  0  0  0  0  0
    2.8042   -9.0210    8.8225 H   0  0  0  0  0  0  0  0  0  0  0  0
    1.5933   -9.7751    7.8273 H   0  0  0  0  0  0  0  0  0  0  0  0
    3.4310   -8.8329    6.6041 H   0  0  0  0  0  0  0  0  0  0  0  0
    2.5796   -6.0355    7.4966 H   0  0  0  0  0  0  0  0  0  0  0  0
    3.7806   -6.9888    8.2877 H   0  0  0  0  0  0  0  0  0  0  0  0
    4.9021   -5.3847    7.0080 H   0  0  0  0  0  0  0  0  0  0  0  0
    5.2762   -6.9369    6.3703 H   0  0  0  0  0  0  0  0  0  0  0  0
    2.9750   -5.5339    5.0441 H   0  0  0  0  0  0  0  0  0  0  0  0
    4.8205   -1.7868    5.6030 H   0  0  0  0  0  0  0  0  0  0  0  0
    5.6145   -2.1702    4.0700 H   0  0  0  0  0  0  0  0  0  0  0  0
    4.4634    0.0448    4.0089 H   0  0  0  0  0  0  0  0  0  0  0  0
    0.2942   -2.7259    6.3864 H   0  0  0  0  0  0  0  0  0  0  0  0
    0.3584   -4.2702    5.5548 H   0  0  0  0  0  0  0  0  0  0  0  0
   -0.5841   -2.9580    4.8561 H   0  0  0  0  0  0  0  0  0  0  0  0
    1.3206   -4.4923    3.3804 H   0  0  0  0  0  0  0  0  0  0  0  0
    1.1424   -2.9833    2.4814 H   0  0  0  0  0  0  0  0  0  0  0  0
    3.4034   -4.5200    2.6726 H   0  0  0  0  0  0  0  0  0  0  0  0
    4.8494   -2.8191    1.9637 H   0  0  0  0  0  0  0  0  0  0  0  0
    2.2497   -2.7705    0.4029 H   0  0  0  0  0  0  0  0  0  0  0  0
    3.5329   -3.9661    0.2849 H   0  0  0  0  0  0  0  0  0  0  0  0
    3.8348   -2.3097   -0.2040 H   0  0  0  0  0  0  0  0  0  0  0  0
    4.5752   -0.6524    1.9115 H   0  0  0  0  0  0  0  0  0  0  0  0
    1.5632   -0.7253    1.9261 H   0  0  0  0  0  0  0  0  0  0  0  0
    2.6200   -0.2978    0.6157 H   0  0  0  0  0  0  0  0  0  0  0  0
    2.5400    0.7400    2.0279 H   0  0  0  0  0  0  0  0  0  0  0  0
    4.0982   -6.3071    2.9482 H   0  0  0  0  0  0  0  0  0  0  0  0
    6.5364   -7.2289    4.4725 H   0  0  0  0  0  0  0  0  0  0  0  0
    6.4050   -5.6257    3.7785 H   0  0  0  0  0  0  0  0  0  0  0  0
    6.3025   -6.9983    2.7383 H   0  0  0  0  0  0  0  0  0  0  0  0
    4.3149   -8.5579    4.8672 H   0  0  0  0  0  0  0  0  0  0  0  0
    4.0157   -8.6219    1.9078 H   0  0  0  0  0  0  0  0  0  0  0  0
    5.4495   -8.9960    2.8261 H   0  0  0  0  0  0  0  0  0  0  0  0
    4.1130  -10.9845    2.1110 H   0  0  0  0  0  0  0  0  0  0  0  0
    4.6076  -10.9396    3.7823 H   0  0  0  0  0  0  0  0  0  0  0  0
    2.0355  -11.3822    2.7825 H   0  0  0  0  0  0  0  0  0  0  0  0
    2.7443  -10.6912    5.6650 H   0  0  0  0  0  0  0  0  0  0  0  0
    2.8469  -12.2651    4.9116 H   0  0  0  0  0  0  0  0  0  0  0  0
    1.2897  -11.5059    5.1063 H   0  0  0  0  0  0  0  0  0  0  0  0
    1.8518   -9.0799    2.2483 H   0  0  0  0  0  0  0  0  0  0  0  0
   -1.3328   -8.5536    1.4551 H   0  0  0  0  0  0  0  0  0  0  0  0
   -2.2499   -7.5219    2.5503 H   0  0  0  0  0  0  0  0  0  0  0  0
   -2.2504   -9.2724    2.7746 H   0  0  0  0  0  0  0  0  0  0  0  0
   -1.0758   -7.0185    5.0006 H   0  0  0  0  0  0  0  0  0  0  0  0
   -1.6927   -8.6502    5.0582 H   0  0  0  0  0  0  0  0  0  0  0  0
   -0.1126   -8.2189    6.8264 H   0  0  0  0  0  0  0  0  0  0  0  0
    0.3208   -9.5976    5.8690 H   0  0  0  0  0  0  0  0  0  0  0  0
    1.4377   -6.8497    5.6634 H   0  0  0  0  0  0  0  0  0  0  0  0
  1  2  1  0
  1 38  1  0
  1 39  1  0
  1 40  1  0
  2 34  1  0
  2  3  1  0
  2 41  1  6
  3  4  1  0
  3 42  1  0
  3 43  1  0
  4  5  1  0
  4 44  1  0
  4 45  1  0
  5  6  1  0
  5 21  1  0
  5 46  1  1
  7  6  1  1
  7 15  1  0
  7 20  1  0
  7  8  1  0
  8  9  1  0
  8 47  1  0
  8 48  1  0
  9 18  1  0
  9 10  1  0
  9 49  1  6
 10 11  1  0
 11 12  1  0
 12 13  1  1
 12 14  1  0
 12 20  1  0
 13 50  1  0
 13 51  1  0
 13 52  1  0
 14 15  1  0
 14 53  1  0
 14 54  1  0
 15 16  1  0
 15 55  1  6
 16 17  1  0
 16 18  1  0
 16 56  1  6
 17 57  1  0
 17 58  1  0
 17 59  1  0
 18 19  1  0
 18 60  1  6
 19 61  1  0
 19 62  1  0
 19 63  1  0
 21 22  1  0
 21 23  1  0
 21 64  1  6
 22 65  1  0
 22 66  1  0
 22 67  1  0
 23 35  1  0
 23 24  1  0
 23 68  1  1
 24 25  1  0
 24 69  1  0
 24 70  1  0
 25 26  1  0
 25 71  1  0
 25 72  1  0
 26 27  1  0
 26 28  1  0
 26 73  1  6
 27 74  1  0
 27 75  1  0
 27 76  1  0
 28 35  1  0
 28 29  1  0
 28 77  1  6
 29 30  1  0
 30 37  1  0
 30 31  1  6
 30 32  1  0
 31 78  1  0
 31 79  1  0
 31 80  1  0
 32 33  1  0
 32 81  1  0
 32 82  1  0
 33 34  1  0
 33 83  1  0
 33 84  1  0
 34 35  1  0
 34 85  1  6
 35 36  1  6
 36 37  1  0
M  END
>  <i_m_ct_stereo_status>  (305) 
1

>  <s_m_source_file>  (305) 
/var/tmp/pbs.5076255.sched01/tmpvuzdko10/1206lwnzxed.sdf

>  <i_m_source_file_index>  (305) 
19

>  <i_lp_mmshare_version>  (305) 
48012

>  <i_f3d_flags>  (305) 
0

>  <s_epik_input>  (305) 
W0NIMl0xW0NIMl1bQ0BASF0oW0NIM10pW0NASF0yT1tDQF0oW0NIM10pKE9PMylbQ0gyXVtDSDJdW0NASF00W0NASF0oW0NIM10pW0NIMl1bQ0gyXVtDQEhdKFtDQEBIXShbQ0gzXSlbQ0BIXTFbQ0BdMjM0KU9bQ0BdNTZbQ0BIXTdbQ0gyXVtDQF0oTzYpKFtDSDNdKU9PW0NAQEhdKFtDSDJdNSlbQ0BIXShbQ0gzXSlbQ0BASF03W0NIM10=

>  <s_epik_cmdline>  (305) 
J2VwaWtfcHl0aG9uJywgJy1waHQnLCAnMi4wJywgJy1waCcsICc3LjAnLCAnLXRuJywgJzgnLCAnLW1hJywgJzIwMCcsICctaW1hZScsICc8aW5maWxlLm1hZT4nLCAnLW9tYWUnLCAnPG91dGZpbGUubWFlPic=

>  <r_lp_tautomer_probability>  (305) 
1

>  <r_epik_Ionization_Penalty>  (305) 
1.9168e-13

>  <r_epik_Ionization_Penalty_Charging>  (305) 
0

>  <r_epik_Ionization_Penalty_Neutral>  (305) 
1.9168e-13

>  <r_epik_State_Penalty>  (305) 
-0

>  <r_epik_Charging_Adjusted_Penalty>  (305) 
0

>  <i_epik_Tot_Q>  (305) 
0

>  <i_epik_Tot_abs_Q>  (305) 
0

>  <s_lp_Force_Field>  (305) 
OPLS3e

>  <r_lp_Energy>  (305) 
86.2461

>  <b_lp_Chiralities_Consistent>  (305) 
1

>  <s_lp_Variant>  (305) 
101:0-1

>  <s_i_glide_gridfile>  (305) 
pfpi4k_grid

>  <i_i_glide_lignum>  (305) 
19

>  <i_i_glide_rotatable_bonds>  (305) 
2

>  <r_i_docking_score>  (305) 
-1.73975

>  <r_i_glide_ligand_efficiency>  (305) 
-0.0470202

>  <r_i_glide_ligand_efficiency_sa>  (305) 
-0.156682

>  <r_i_glide_ligand_efficiency_ln>  (305) 
-0.377311

>  <r_i_glide_gscore>  (305) 
-1.73975

>  <r_i_glide_lipo>  (305) 
-0.151548

>  <r_i_glide_hbond>  (305) 
0

>  <r_i_glide_metal>  (305) 
-0

>  <r_i_glide_rewards>  (305) 
-0.00602869

>  <r_i_glide_evdw>  (305) 
-30.4637

>  <r_i_glide_ecoul>  (305) 
-1.10679

>  <r_i_glide_erotb>  (305) 
0.151611

>  <r_i_glide_esite>  (305) 
-0.044581

>  <r_i_glide_emodel>  (305) 
-34.3715

>  <r_i_glide_energy>  (305) 
-31.5704

>  <r_i_glide_einternal>  (305) 
0.277113

>  <r_i_glide_intrahb_reward>  (305) 
-0

>  <i_i_glide_confnum>  (305) 
2

>  <i_i_glide_posenum>  (305) 
22

>  <r_i_glide_eff_state_penalty>  (305) 
0

>  <ligand_id>  (305) 
101

>  <original_smiles>  (305) 
CC1CCC(OC23CC4OOC(C)(CC2C(C)C4C)O3)C(C)C2CCC(C)C3OC4(C)CCC1C23OO4

>  <smiles>  (305) 
[H]C([H])([H])C12OOC34C([H])(O1)C([H])(C([H])([H])[H])C([H])([H])C([H])([H])C3([H])C([H])(C([H])([H])[H])C([H])(OC13OC5(C([H])([H])[H])OOC([H])(C1([H])[H])C([H])(C([H])([H])[H])C([H])(C([H])([H])[H])C3([H])C5([H])[H])C([H])([H])C([H])([H])C([H])(C([H])([H])[H])C4([H])C([H])([H])C2([H])[H]

$$$$
101:0:2
     RDKit          3D

 85 91  0  0  1  0  0  0  0  0999 V2000
    4.1075    0.7259    6.5904 C   0  0  0  0  0  0  0  0  0  0  0  0
    2.8854    0.0057    5.9783 C   0  0  2  0  0  0  0  0  0  0  0  0
    2.4630   -1.1259    6.9592 C   0  0  0  0  0  0  0  0  0  0  0  0
    1.0036   -1.6254    6.9073 C   0  0  0  0  0  0  0  0  0  0  0  0
    0.6103   -2.3990    5.6251 C   0  0  1  0  0  0  0  0  0  0  0  0
   -0.1136   -3.6022    5.9638 O   0  0  0  0  0  0  0  0  0  0  0  0
    0.6404   -4.7847    5.9815 C   0  0  1  0  0  0  0  0  0  0  0  0
   -0.1797   -5.8223    6.7875 C   0  0  0  0  0  0  0  0  0  0  0  0
    0.4634   -7.2054    6.5998 C   0  0  2  0  0  0  0  0  0  0  0  0
    1.7246   -7.2051    7.2752 O   0  0  0  0  0  0  0  0  0  0  0  0
    2.8786   -6.8275    6.3089 O   0  0  0  0  0  0  0  0  0  0  0  0
    2.8225   -5.4384    6.0077 C   0  0  1  0  0  0  0  0  0  0  0  0
    4.2113   -4.8241    6.2808 C   0  0  0  0  0  0  0  0  0  0  0  0
    2.4704   -5.3824    4.5149 C   0  0  0  0  0  0  0  0  0  0  0  0
    0.9534   -5.2746    4.5216 C   0  0  1  0  0  0  0  0  0  0  0  0
    0.1716   -6.5648    4.1368 C   0  0  1  0  0  0  0  0  0  0  0  0
    0.3754   -6.9813    2.6613 C   0  0  0  0  0  0  0  0  0  0  0  0
    0.3371   -7.7273    5.1480 C   0  0  1  0  0  0  0  0  0  0  0  0
    1.3330   -8.8408    4.7803 C   0  0  0  0  0  0  0  0  0  0  0  0
    1.8476   -4.6619    6.6606 O   0  0  0  0  0  0  0  0  0  0  0  0
   -0.2693   -1.5542    4.6630 C   0  0  1  0  0  0  0  0  0  0  0  0
   -1.6786   -1.3218    5.2748 C   0  0  0  0  0  0  0  0  0  0  0  0
    0.4070   -0.2176    4.1689 C   0  0  2  0  0  0  0  0  0  0  0  0
   -0.5621    0.6613    3.3229 C   0  0  0  0  0  0  0  0  0  0  0  0
   -0.0002    2.0634    2.9982 C   0  0  0  0  0  0  0  0  0  0  0  0
    1.4882    2.0638    2.6014 C   0  0  1  0  0  0  0  0  0  0  0  0
    2.3730    2.8520    3.5801 C   0  0  0  0  0  0  0  0  0  0  0  0
    1.9441    0.6250    2.2829 C   0  0  1  0  0  0  0  0  0  0  0  0
    3.1731    0.6035    1.5983 O   0  0  0  0  0  0  0  0  0  0  0  0
    3.6878   -0.7022    1.5226 C   0  0  1  0  0  0  0  0  0  0  0  0
    4.2915   -0.8878    0.1092 C   0  0  0  0  0  0  0  0  0  0  0  0
    4.7990   -0.8187    2.5709 C   0  0  0  0  0  0  0  0  0  0  0  0
    4.4358   -0.1014    3.8775 C   0  0  0  0  0  0  0  0  0  0  0  0
    3.0749   -0.5060    4.4892 C   0  0  2  0  0  0  0  0  0  0  0  0
    1.8454   -0.3698    3.4824 C   0  0  1  0  0  0  0  0  0  0  0  0
    1.7720   -1.6428    2.8347 O   0  0  0  0  0  0  0  0  0  0  0  0
    2.7369   -1.7591    1.6078 O   0  0  0  0  0  0  0  0  0  0  0  0
    4.9559    0.0584    6.7371 H   0  0  0  0  0  0  0  0  0  0  0  0
    3.8615    1.1397    7.5698 H   0  0  0  0  0  0  0  0  0  0  0  0
    4.4308    1.5735    5.9854 H   0  0  0  0  0  0  0  0  0  0  0  0
    2.1484    0.7951    6.0336 H   0  0  0  0  0  0  0  0  0  0  0  0
    3.1424   -1.9713    6.8777 H   0  0  0  0  0  0  0  0  0  0  0  0
    2.6050   -0.7564    7.9768 H   0  0  0  0  0  0  0  0  0  0  0  0
    0.8715   -2.2989    7.7554 H   0  0  0  0  0  0  0  0  0  0  0  0
    0.3273   -0.7968    7.1063 H   0  0  0  0  0  0  0  0  0  0  0  0
    1.5063   -2.6953    5.0878 H   0  0  0  0  0  0  0  0  0  0  0  0
   -0.1575   -5.5347    7.8433 H   0  0  0  0  0  0  0  0  0  0  0  0
   -1.2230   -5.8055    6.4602 H   0  0  0  0  0  0  0  0  0  0  0  0
   -0.1248   -7.8994    7.2214 H   0  0  0  0  0  0  0  0  0  0  0  0
    4.4292   -4.7999    7.3529 H   0  0  0  0  0  0  0  0  0  0  0  0
    4.2568   -3.7982    5.9185 H   0  0  0  0  0  0  0  0  0  0  0  0
    5.0097   -5.3827    5.7895 H   0  0  0  0  0  0  0  0  0  0  0  0
    2.8895   -4.4794    4.0674 H   0  0  0  0  0  0  0  0  0  0  0  0
    2.8510   -6.2452    3.9668 H   0  0  0  0  0  0  0  0  0  0  0  0
    0.6646   -4.4853    3.8277 H   0  0  0  0  0  0  0  0  0  0  0  0
   -0.8761   -6.2700    4.1947 H   0  0  0  0  0  0  0  0  0  0  0  0
    1.3978   -7.2925    2.4602 H   0  0  0  0  0  0  0  0  0  0  0  0
    0.1411   -6.1730    1.9776 H   0  0  0  0  0  0  0  0  0  0  0  0
   -0.2741   -7.8206    2.4053 H   0  0  0  0  0  0  0  0  0  0  0  0
   -0.6299   -8.2346    5.1170 H   0  0  0  0  0  0  0  0  0  0  0  0
    2.3434   -8.4689    4.6318 H   0  0  0  0  0  0  0  0  0  0  0  0
    1.0407   -9.3427    3.8589 H   0  0  0  0  0  0  0  0  0  0  0  0
    1.3642   -9.6064    5.5556 H   0  0  0  0  0  0  0  0  0  0  0  0
   -0.4327   -2.1764    3.7821 H   0  0  0  0  0  0  0  0  0  0  0  0
   -1.6718   -0.5518    6.0517 H   0  0  0  0  0  0  0  0  0  0  0  0
   -2.0833   -2.2357    5.7165 H   0  0  0  0  0  0  0  0  0  0  0  0
   -2.4070   -1.0223    4.5205 H   0  0  0  0  0  0  0  0  0  0  0  0
    0.4784    0.4056    5.0523 H   0  0  0  0  0  0  0  0  0  0  0  0
   -0.7998    0.1532    2.3857 H   0  0  0  0  0  0  0  0  0  0  0  0
   -1.5133    0.8234    3.8270 H   0  0  0  0  0  0  0  0  0  0  0  0
   -0.5902    2.4986    2.1962 H   0  0  0  0  0  0  0  0  0  0  0  0
   -0.1550    2.7129    3.8651 H   0  0  0  0  0  0  0  0  0  0  0  0
    1.5481    2.6220    1.6597 H   0  0  0  0  0  0  0  0  0  0  0  0
    2.3886    2.4043    4.5705 H   0  0  0  0  0  0  0  0  0  0  0  0
    2.0189    3.8750    3.6952 H   0  0  0  0  0  0  0  0  0  0  0  0
    3.3979    2.9131    3.2233 H   0  0  0  0  0  0  0  0  0  0  0  0
    1.2581    0.2808    1.5157 H   0  0  0  0  0  0  0  0  0  0  0  0
    3.5049   -0.8323   -0.6501 H   0  0  0  0  0  0  0  0  0  0  0  0
    4.7754   -1.8596   -0.0075 H   0  0  0  0  0  0  0  0  0  0  0  0
    5.0277   -0.1243   -0.1319 H   0  0  0  0  0  0  0  0  0  0  0  0
    5.0510   -1.8637    2.7478 H   0  0  0  0  0  0  0  0  0  0  0  0
    5.7105   -0.3474    2.1972 H   0  0  0  0  0  0  0  0  0  0  0  0
    5.2478   -0.3361    4.5640 H   0  0  0  0  0  0  0  0  0  0  0  0
    4.4798    0.9728    3.7275 H   0  0  0  0  0  0  0  0  0  0  0  0
    3.2223   -1.5741    4.6045 H   0  0  0  0  0  0  0  0  0  0  0  0
  1  2  1  0
  1 38  1  0
  1 39  1  0
  1 40  1  0
  2 34  1  0
  2  3  1  0
  2 41  1  6
  3  4  1  0
  3 42  1  0
  3 43  1  0
  4  5  1  0
  4 44  1  0
  4 45  1  0
  5  6  1  0
  5 21  1  0
  5 46  1  6
  7  6  1  6
  7 15  1  0
  7 20  1  0
  7  8  1  0
  8  9  1  0
  8 47  1  0
  8 48  1  0
  9 18  1  0
  9 10  1  0
  9 49  1  1
 10 11  1  0
 11 12  1  0
 12 13  1  6
 12 14  1  0
 12 20  1  0
 13 50  1  0
 13 51  1  0
 13 52  1  0
 14 15  1  0
 14 53  1  0
 14 54  1  0
 15 16  1  0
 15 55  1  6
 16 17  1  0
 16 18  1  0
 16 56  1  6
 17 57  1  0
 17 58  1  0
 17 59  1  0
 18 19  1  0
 18 60  1  1
 19 61  1  0
 19 62  1  0
 19 63  1  0
 21 22  1  0
 21 23  1  0
 21 64  1  6
 22 65  1  0
 22 66  1  0
 22 67  1  0
 23 35  1  0
 23 24  1  0
 23 68  1  1
 24 25  1  0
 24 69  1  0
 24 70  1  0
 25 26  1  0
 25 71  1  0
 25 72  1  0
 26 27  1  0
 26 28  1  0
 26 73  1  6
 27 74  1  0
 27 75  1  0
 27 76  1  0
 28 35  1  0
 28 29  1  0
 28 77  1  6
 29 30  1  0
 30 37  1  0
 30 31  1  6
 30 32  1  0
 31 78  1  0
 31 79  1  0
 31 80  1  0
 32 33  1  0
 32 81  1  0
 32 82  1  0
 33 34  1  0
 33 83  1  0
 33 84  1  0
 34 35  1  0
 34 85  1  1
 35 36  1  6
 36 37  1  0
M  END
>  <i_m_ct_stereo_status>  (306) 
1

>  <s_m_source_file>  (306) 
/var/tmp/pbs.5076255.sched01/tmpvuzdko10/1206lwnzxed.sdf

>  <i_m_source_file_index>  (306) 
19

>  <i_lp_mmshare_version>  (306) 
48012

>  <i_f3d_flags>  (306) 
0

>  <s_epik_input>  (306) 
W0NIMl0xW0NIMl1bQ0BASF0oW0NIM10pW0NASF0yT1tDQF0oW0NIM10pKE9PMylbQ0gyXVtDSDJdW0NASF00W0NASF0oW0NIM10pW0NIMl1bQ0gyXVtDQEhdKFtDQEBIXShbQ0gzXSlbQ0BIXTFbQ0BdMjM0KU9bQ0BdNTZbQ0BIXTdbQ0gyXVtDQF0oTzYpKFtDSDNdKU9PW0NAQEhdKFtDSDJdNSlbQ0BIXShbQ0gzXSlbQ0BASF03W0NIM10=

>  <s_epik_cmdline>  (306) 
J2VwaWtfcHl0aG9uJywgJy1waHQnLCAnMi4wJywgJy1waCcsICc3LjAnLCAnLXRuJywgJzgnLCAnLW1hJywgJzIwMCcsICctaW1hZScsICc8aW5maWxlLm1hZT4nLCAnLW9tYWUnLCAnPG91dGZpbGUubWFlPic=

>  <r_lp_tautomer_probability>  (306) 
1

>  <r_epik_Ionization_Penalty>  (306) 
1.9168e-13

>  <r_epik_Ionization_Penalty_Charging>  (306) 
0

>  <r_epik_Ionization_Penalty_Neutral>  (306) 
1.9168e-13

>  <r_epik_State_Penalty>  (306) 
-0

>  <r_epik_Charging_Adjusted_Penalty>  (306) 
0

>  <i_epik_Tot_Q>  (306) 
0

>  <i_epik_Tot_abs_Q>  (306) 
0

>  <s_lp_Force_Field>  (306) 
OPLS3e

>  <r_lp_Energy>  (306) 
86.2461

>  <b_lp_Chiralities_Consistent>  (306) 
1

>  <s_lp_Variant>  (306) 
101:0-1

>  <s_i_glide_gridfile>  (306) 
pfpi4k_grid

>  <i_i_glide_lignum>  (306) 
19

>  <i_i_glide_rotatable_bonds>  (306) 
2

>  <r_i_docking_score>  (306) 
-1.59164

>  <r_i_glide_ligand_efficiency>  (306) 
-0.0430174

>  <r_i_glide_ligand_efficiency_sa>  (306) 
-0.143344

>  <r_i_glide_ligand_efficiency_ln>  (306) 
-0.34519

>  <r_i_glide_gscore>  (306) 
-1.59164

>  <r_i_glide_lipo>  (306) 
-0.142067

>  <r_i_glide_hbond>  (306) 
0

>  <r_i_glide_metal>  (306) 
-0

>  <r_i_glide_rewards>  (306) 
0

>  <r_i_glide_evdw>  (306) 
-33.3756

>  <r_i_glide_ecoul>  (306) 
0.490035

>  <r_i_glide_erotb>  (306) 
0.151611

>  <r_i_glide_esite>  (306) 
-0.00591212

>  <r_i_glide_emodel>  (306) 
-35.0371

>  <r_i_glide_energy>  (306) 
-32.8856

>  <r_i_glide_einternal>  (306) 
0.531632

>  <r_i_glide_intrahb_reward>  (306) 
-0

>  <i_i_glide_confnum>  (306) 
3

>  <i_i_glide_posenum>  (306) 
4

>  <r_i_glide_eff_state_penalty>  (306) 
0

>  <ligand_id>  (306) 
101

>  <original_smiles>  (306) 
CC1CCC(OC23CC4OOC(C)(CC2C(C)C4C)O3)C(C)C2CCC(C)C3OC4(C)CCC1C23OO4

>  <smiles>  (306) 
[H]C([H])([H])C12OOC34C([H])(O1)C([H])(C([H])([H])[H])C([H])([H])C([H])([H])C3([H])C([H])(C([H])([H])[H])C([H])(OC13OC5(C([H])([H])[H])OOC([H])(C1([H])[H])C([H])(C([H])([H])[H])C([H])(C([H])([H])[H])C3([H])C5([H])[H])C([H])([H])C([H])([H])C([H])(C([H])([H])[H])C4([H])C([H])([H])C2([H])[H]

$$$$
102:0:0
     RDKit          3D

 62 66  0  0  1  0  0  0  0  0999 V2000
    2.4891    3.8236    3.8539 C   0  0  0  0  0  0  0  0  0  0  0  0
    1.7347    2.6259    4.5364 C   0  0  1  0  0  0  0  0  0  0  0  0
    2.7846    1.4710    4.4286 C   0  0  0  0  0  0  0  0  0  0  0  0
    3.7938    1.4073    5.5734 C   0  0  1  0  0  0  0  0  0  0  0  0
    4.5621    2.5879    5.6855 O   0  0  0  0  0  0  0  0  0  0  0  0
    3.0310    1.0785    6.8606 C   0  0  1  0  0  0  0  0  0  0  0  0
    3.9640    0.8396    7.9020 O   0  0  0  0  0  0  0  0  0  0  0  0
    1.7853    2.0146    7.1992 C   0  0  1  0  0  0  0  0  0  0  0  0
    2.2278    2.8653    8.4445 C   0  0  0  0  0  0  0  0  0  0  0  0
    1.4475    2.9990    6.0258 C   0  0  0  0  0  0  0  0  0  0  0  0
    0.9058    4.2089    6.3312 C   0  0  0  0  0  0  0  0  0  0  0  0
    0.2442    5.1707    5.3868 C   0  0  0  0  0  0  0  0  0  0  0  0
   -0.8412    4.5430    4.4749 C   0  0  1  0  0  0  0  0  0  0  0  0
   -0.8279    5.3092    3.2805 O   0  0  0  0  0  0  0  0  0  0  0  0
   -0.9398    2.9848    4.2311 C   0  0  2  0  0  0  0  0  0  0  0  0
   -2.0462    2.8882    3.1264 C   0  0  0  0  0  0  0  0  0  0  0  0
   -1.5153    2.0920    5.4208 C   0  0  2  0  0  0  0  0  0  0  0  0
   -1.5754    2.6559    6.8468 C   0  0  0  0  0  0  0  0  0  0  0  0
   -2.2557    3.6476    7.1034 O   0  0  0  0  0  0  0  0  0  0  0  0
   -0.7971    1.9526    7.9662 C   0  0  0  0  0  0  0  0  0  0  0  0
    0.4768    1.1368    7.5704 C   0  0  2  0  0  0  0  0  0  0  0  0
    0.7838    0.3123    8.8632 C   0  0  0  0  0  0  0  0  0  0  0  0
    0.0500    0.1616    6.4045 C   0  0  1  0  0  0  0  0  0  0  0  0
   -0.3492   -1.1168    6.8770 O   0  0  0  0  0  0  0  0  0  0  0  0
   -1.0757    0.6013    5.4264 C   0  0  2  0  0  0  0  0  0  0  0  0
   -0.7967    0.0535    4.0142 C   0  0  0  0  0  0  0  0  0  0  0  0
    0.1326    0.9337    3.1450 C   0  0  0  0  0  0  0  0  0  0  0  0
    0.4046    2.3733    3.6861 C   0  0  2  0  0  0  0  0  0  0  0  0
    3.1267    3.5163    3.0270 H   0  0  0  0  0  0  0  0  0  0  0  0
    3.1268    4.3607    4.5592 H   0  0  0  0  0  0  0  0  0  0  0  0
    1.8337    4.5586    3.3978 H   0  0  0  0  0  0  0  0  0  0  0  0
    2.3175    0.4973    4.4530 H   0  0  0  0  0  0  0  0  0  0  0  0
    3.2952    1.4730    3.4660 H   0  0  0  0  0  0  0  0  0  0  0  0
    4.4916    0.5962    5.3608 H   0  0  0  0  0  0  0  0  0  0  0  0
    4.8834    2.8112    4.8275 H   0  0  0  0  0  0  0  0  0  0  0  0
    2.6815    0.0619    6.7144 H   0  0  0  0  0  0  0  0  0  0  0  0
    4.6095    0.2254    7.5888 H   0  0  0  0  0  0  0  0  0  0  0  0
    2.6573    2.2825    9.2582 H   0  0  0  0  0  0  0  0  0  0  0  0
    1.4196    3.4144    8.9244 H   0  0  0  0  0  0  0  0  0  0  0  0
    2.9973    3.5825    8.1493 H   0  0  0  0  0  0  0  0  0  0  0  0
    0.7129    4.4903    7.3500 H   0  0  0  0  0  0  0  0  0  0  0  0
   -0.2585    5.9028    6.0160 H   0  0  0  0  0  0  0  0  0  0  0  0
    0.9852    5.7618    4.8565 H   0  0  0  0  0  0  0  0  0  0  0  0
   -1.7926    4.8198    4.9165 H   0  0  0  0  0  0  0  0  0  0  0  0
   -0.2238    4.9160    2.6533 H   0  0  0  0  0  0  0  0  0  0  0  0
   -2.4243    1.8812    2.9769 H   0  0  0  0  0  0  0  0  0  0  0  0
   -1.6875    3.2264    2.1528 H   0  0  0  0  0  0  0  0  0  0  0  0
   -2.9201    3.4891    3.3841 H   0  0  0  0  0  0  0  0  0  0  0  0
   -2.5811    2.0502    5.2091 H   0  0  0  0  0  0  0  0  0  0  0  0
   -0.5613    2.6769    8.7436 H   0  0  0  0  0  0  0  0  0  0  0  0
   -1.5179    1.2740    8.4241 H   0  0  0  0  0  0  0  0  0  0  0  0
   -0.0773   -0.2792    9.1842 H   0  0  0  0  0  0  0  0  0  0  0  0
    1.0007    0.9527    9.7188 H   0  0  0  0  0  0  0  0  0  0  0  0
    1.6201   -0.3790    8.7397 H   0  0  0  0  0  0  0  0  0  0  0  0
    0.9039   -0.0776    5.7947 H   0  0  0  0  0  0  0  0  0  0  0  0
   -0.1789   -1.7436    6.1880 H   0  0  0  0  0  0  0  0  0  0  0  0
   -1.9777    0.0843    5.7582 H   0  0  0  0  0  0  0  0  0  0  0  0
   -0.3962   -0.9614    4.0555 H   0  0  0  0  0  0  0  0  0  0  0  0
   -1.7553   -0.0566    3.5044 H   0  0  0  0  0  0  0  0  0  0  0  0
    1.0361    0.3936    2.8723 H   0  0  0  0  0  0  0  0  0  0  0  0
   -0.3510    1.0367    2.1714 H   0  0  0  0  0  0  0  0  0  0  0  0
    0.5975    2.9053    2.7547 H   0  0  0  0  0  0  0  0  0  0  0  0
  2  1  1  6
  1 29  1  0
  1 30  1  0
  1 31  1  0
  2 10  1  0
  2 28  1  0
  2  3  1  0
  3  4  1  0
  3 32  1  0
  3 33  1  0
  4  5  1  0
  4  6  1  0
  4 34  1  6
  5 35  1  0
  6  7  1  0
  6  8  1  0
  6 36  1  6
  7 37  1  0
  8 21  1  0
  8  9  1  1
  8 10  1  0
  9 38  1  0
  9 39  1  0
  9 40  1  0
 10 11  2  0
 11 12  1  0
 11 41  1  0
 12 13  1  0
 12 42  1  0
 12 43  1  0
 13 14  1  0
 13 15  1  0
 13 44  1  1
 14 45  1  0
 15 28  1  0
 15 16  1  6
 15 17  1  0
 16 46  1  0
 16 47  1  0
 16 48  1  0
 17 25  1  0
 17 18  1  0
 17 49  1  6
 18 19  2  0
 18 20  1  0
 20 21  1  0
 20 50  1  0
 20 51  1  0
 21 22  1  1
 21 23  1  0
 22 52  1  0
 22 53  1  0
 22 54  1  0
 23 24  1  0
 23 25  1  0
 23 55  1  6
 24 56  1  0
 25 26  1  0
 25 57  1  1
 26 27  1  0
 26 58  1  0
 26 59  1  0
 27 28  1  0
 27 60  1  0
 27 61  1  0
 28 62  1  6
M  END
>  <i_m_ct_stereo_status>  (307) 
1

>  <s_m_source_file>  (307) 
/var/tmp/pbs.5076255.sched01/tmpvuzdko10/1206lwnzxed.sdf

>  <i_m_source_file_index>  (307) 
20

>  <i_lp_mmshare_version>  (307) 
48012

>  <i_f3d_flags>  (307) 
0

>  <s_epik_input>  (307) 
W0NIM11bQ0BdMTJDPTNbQ0BdKFtDSDNdKShbQ0BIXShbT0hdKVtDQEBIXShbQ0gyXTEpW09IXSlbQ0BAXTQoW0NIM10pW0NIMl1DKD1PKVtDQEhdNVtDQEBdKFtDSDNdKShbQ0BIXShbT0hdKVtDSDJdW0NIXTMpW0NAQEhdMltDSDJdW0NIMl1bQ0BIXTVbQ0BASF00W09IXQ==

>  <s_epik_cmdline>  (307) 
J2VwaWtfcHl0aG9uJywgJy1waHQnLCAnMi4wJywgJy1waCcsICc3LjAnLCAnLXRuJywgJzgnLCAnLW1hJywgJzIwMCcsICctaW1hZScsICc8aW5maWxlLm1hZT4nLCAnLW9tYWUnLCAnPG91dGZpbGUubWFlPic=

>  <r_lp_tautomer_probability>  (307) 
1

>  <r_epik_Ionization_Penalty>  (307) 
1.26078e-06

>  <r_epik_Ionization_Penalty_Charging>  (307) 
0

>  <r_epik_Ionization_Penalty_Neutral>  (307) 
1.26078e-06

>  <r_epik_State_Penalty>  (307) 
-0

>  <r_epik_Charging_Adjusted_Penalty>  (307) 
0

>  <i_epik_Tot_Q>  (307) 
0

>  <i_epik_Tot_abs_Q>  (307) 
0

>  <s_lp_Force_Field>  (307) 
OPLS3e

>  <r_lp_Energy>  (307) 
125.246

>  <b_lp_Chiralities_Consistent>  (307) 
1

>  <s_lp_Variant>  (307) 
102:0-1

>  <s_i_glide_gridfile>  (307) 
pfpi4k_grid

>  <i_i_glide_lignum>  (307) 
20

>  <i_i_glide_rotatable_bonds>  (307) 
4

>  <r_i_docking_score>  (307) 
-3.38278

>  <r_i_glide_ligand_efficiency>  (307) 
-0.120814

>  <r_i_glide_ligand_efficiency_sa>  (307) 
-0.366861

>  <r_i_glide_ligand_efficiency_ln>  (307) 
-0.780845

>  <r_i_glide_gscore>  (307) 
-3.38278

>  <r_i_glide_lipo>  (307) 
0

>  <r_i_glide_hbond>  (307) 
-0.28965

>  <r_i_glide_metal>  (307) 
-0

>  <r_i_glide_rewards>  (307) 
-0.797376

>  <r_i_glide_evdw>  (307) 
-21.9588

>  <r_i_glide_ecoul>  (307) 
-7.98544

>  <r_i_glide_erotb>  (307) 
0

>  <r_i_glide_esite>  (307) 
0

>  <r_i_glide_emodel>  (307) 
-36.4563

>  <r_i_glide_energy>  (307) 
-29.9442

>  <r_i_glide_einternal>  (307) 
1.88501

>  <r_i_glide_intrahb_reward>  (307) 
-0

>  <i_i_glide_confnum>  (307) 
1

>  <i_i_glide_posenum>  (307) 
29

>  <r_i_glide_eff_state_penalty>  (307) 
0

>  <ligand_id>  (307) 
102

>  <original_smiles>  (307) 
CC12CC(O)C(O)C3(C)C1=CCC(O)C1(C)C4C(=O)CC3(C)C(O)C4CCC21

>  <smiles>  (307) 
[H]OC1([H])C([H])([H])C2(C([H])([H])[H])C3=C([H])C([H])([H])C([H])(O[H])C4(C([H])([H])[H])C5([H])C(=O)C([H])([H])C(C([H])([H])[H])(C([H])(O[H])C5([H])C([H])([H])C([H])([H])C24[H])C3(C([H])([H])[H])C1([H])O[H]

$$$$
102:0:1
     RDKit          3D

 62 66  0  0  1  0  0  0  0  0999 V2000
    2.4365    3.9071    3.8562 C   0  0  0  0  0  0  0  0  0  0  0  0
    1.7205    2.6776    4.5214 C   0  0  1  0  0  0  0  0  0  0  0  0
    2.8065    1.5593    4.4070 C   0  0  0  0  0  0  0  0  0  0  0  0
    3.8086    1.5149    5.5578 C   0  0  1  0  0  0  0  0  0  0  0  0
    4.5299    2.7220    5.7065 O   0  0  0  0  0  0  0  0  0  0  0  0
    3.0523    1.1425    6.8329 C   0  0  1  0  0  0  0  0  0  0  0  0
    4.0012    0.9507    7.8643 O   0  0  0  0  0  0  0  0  0  0  0  0
    1.7783    2.0365    7.1770 C   0  0  1  0  0  0  0  0  0  0  0  0
    2.1864    2.8901    8.4332 C   0  0  0  0  0  0  0  0  0  0  0  0
    1.4126    3.0267    6.0136 C   0  0  0  0  0  0  0  0  0  0  0  0
    0.8289    4.2115    6.3264 C   0  0  0  0  0  0  0  0  0  0  0  0
    0.1400    5.1636    5.3911 C   0  0  0  0  0  0  0  0  0  0  0  0
   -0.9173    4.5096    4.4687 C   0  0  1  0  0  0  0  0  0  0  0  0
   -0.9213    5.2939    3.2817 O   0  0  0  0  0  0  0  0  0  0  0  0
   -0.9621    2.9530    4.2054 C   0  0  2  0  0  0  0  0  0  0  0  0
   -2.0594    2.8371    3.0969 C   0  0  0  0  0  0  0  0  0  0  0  0
   -1.5157    2.0311    5.3800 C   0  0  2  0  0  0  0  0  0  0  0  0
   -1.6026    2.5760    6.8154 C   0  0  0  0  0  0  0  0  0  0  0  0
   -2.3168    3.5357    7.0804 O   0  0  0  0  0  0  0  0  0  0  0  0
   -0.8049    1.8816    7.9306 C   0  0  0  0  0  0  0  0  0  0  0  0
    0.4984    1.1145    7.5307 C   0  0  2  0  0  0  0  0  0  0  0  0
    0.8261    0.2833    8.8154 C   0  0  0  0  0  0  0  0  0  0  0  0
    0.1074    0.1382    6.3526 C   0  0  1  0  0  0  0  0  0  0  0  0
   -0.2592   -1.1536    6.8108 O   0  0  0  0  0  0  0  0  0  0  0  0
   -1.0258    0.5564    5.3733 C   0  0  2  0  0  0  0  0  0  0  0  0
   -0.7223    0.0326    3.9557 C   0  0  0  0  0  0  0  0  0  0  0  0
    0.1791    0.9552    3.1014 C   0  0  0  0  0  0  0  0  0  0  0  0
    0.4029    2.3959    3.6626 C   0  0  2  0  0  0  0  0  0  0  0  0
    3.0877    3.6310    3.0258 H   0  0  0  0  0  0  0  0  0  0  0  0
    3.0516    4.4577    4.5677 H   0  0  0  0  0  0  0  0  0  0  0  0
    1.7587    4.6254    3.4028 H   0  0  0  0  0  0  0  0  0  0  0  0
    2.3727    0.5704    4.4144 H   0  0  0  0  0  0  0  0  0  0  0  0
    3.3244    1.5895    3.4467 H   0  0  0  0  0  0  0  0  0  0  0  0
    4.5398    0.7333    5.3437 H   0  0  0  0  0  0  0  0  0  0  0  0
    4.8353    2.9781    4.8496 H   0  0  0  0  0  0  0  0  0  0  0  0
    2.7411    0.1124    6.6799 H   0  0  0  0  0  0  0  0  0  0  0  0
    4.4337    1.7812    8.0042 H   0  0  0  0  0  0  0  0  0  0  0  0
    2.6240    2.3099    9.2458 H   0  0  0  0  0  0  0  0  0  0  0  0
    1.3557    3.4062    8.9140 H   0  0  0  0  0  0  0  0  0  0  0  0
    2.9316    3.6364    8.1522 H   0  0  0  0  0  0  0  0  0  0  0  0
    0.6257    4.4756    7.3490 H   0  0  0  0  0  0  0  0  0  0  0  0
   -0.3864    5.8743    6.0291 H   0  0  0  0  0  0  0  0  0  0  0  0
    0.8686    5.7870    4.8738 H   0  0  0  0  0  0  0  0  0  0  0  0
   -1.8853    4.7491    4.9005 H   0  0  0  0  0  0  0  0  0  0  0  0
   -0.2987    4.9290    2.6552 H   0  0  0  0  0  0  0  0  0  0  0  0
   -2.4011    1.8190    2.9334 H   0  0  0  0  0  0  0  0  0  0  0  0
   -1.7091    3.1987    2.1289 H   0  0  0  0  0  0  0  0  0  0  0  0
   -2.9561    3.4030    3.3571 H   0  0  0  0  0  0  0  0  0  0  0  0
   -2.5797    1.9533    5.1644 H   0  0  0  0  0  0  0  0  0  0  0  0
   -0.5936    2.6049    8.7160 H   0  0  0  0  0  0  0  0  0  0  0  0
   -1.5029    1.1773    8.3770 H   0  0  0  0  0  0  0  0  0  0  0  0
   -0.0158   -0.3395    9.1274 H   0  0  0  0  0  0  0  0  0  0  0  0
    1.0196    0.9200    9.6802 H   0  0  0  0  0  0  0  0  0  0  0  0
    1.6854   -0.3790    8.6858 H   0  0  0  0  0  0  0  0  0  0  0  0
    0.9726   -0.0687    5.7457 H   0  0  0  0  0  0  0  0  0  0  0  0
   -0.0554   -1.7709    6.1241 H   0  0  0  0  0  0  0  0  0  0  0  0
   -1.9137    0.0053    5.6931 H   0  0  0  0  0  0  0  0  0  0  0  0
   -0.2869   -0.9694    3.9875 H   0  0  0  0  0  0  0  0  0  0  0  0
   -1.6746   -0.1039    3.4400 H   0  0  0  0  0  0  0  0  0  0  0  0
    1.1010    0.4466    2.8255 H   0  0  0  0  0  0  0  0  0  0  0  0
   -0.3052    1.0506    2.1273 H   0  0  0  0  0  0  0  0  0  0  0  0
    0.5825    2.9432    2.7344 H   0  0  0  0  0  0  0  0  0  0  0  0
  2  1  1  6
  1 29  1  0
  1 30  1  0
  1 31  1  0
  2 10  1  0
  2 28  1  0
  2  3  1  0
  3  4  1  0
  3 32  1  0
  3 33  1  0
  4  5  1  0
  4  6  1  0
  4 34  1  6
  5 35  1  0
  6  7  1  0
  6  8  1  0
  6 36  1  6
  7 37  1  0
  8 21  1  0
  8  9  1  1
  8 10  1  0
  9 38  1  0
  9 39  1  0
  9 40  1  0
 10 11  2  0
 11 12  1  0
 11 41  1  0
 12 13  1  0
 12 42  1  0
 12 43  1  0
 13 14  1  0
 13 15  1  0
 13 44  1  1
 14 45  1  0
 15 28  1  0
 15 16  1  6
 15 17  1  0
 16 46  1  0
 16 47  1  0
 16 48  1  0
 17 25  1  0
 17 18  1  0
 17 49  1  6
 18 19  2  0
 18 20  1  0
 20 21  1  0
 20 50  1  0
 20 51  1  0
 21 22  1  1
 21 23  1  0
 22 52  1  0
 22 53  1  0
 22 54  1  0
 23 24  1  0
 23 25  1  0
 23 55  1  6
 24 56  1  0
 25 26  1  0
 25 57  1  1
 26 27  1  0
 26 58  1  0
 26 59  1  0
 27 28  1  0
 27 60  1  0
 27 61  1  0
 28 62  1  6
M  END
>  <i_m_ct_stereo_status>  (308) 
1

>  <s_m_source_file>  (308) 
/var/tmp/pbs.5076255.sched01/tmpvuzdko10/1206lwnzxed.sdf

>  <i_m_source_file_index>  (308) 
20

>  <i_lp_mmshare_version>  (308) 
48012

>  <i_f3d_flags>  (308) 
0

>  <s_epik_input>  (308) 
W0NIM11bQ0BdMTJDPTNbQ0BdKFtDSDNdKShbQ0BIXShbT0hdKVtDQEBIXShbQ0gyXTEpW09IXSlbQ0BAXTQoW0NIM10pW0NIMl1DKD1PKVtDQEhdNVtDQEBdKFtDSDNdKShbQ0BIXShbT0hdKVtDSDJdW0NIXTMpW0NAQEhdMltDSDJdW0NIMl1bQ0BIXTVbQ0BASF00W09IXQ==

>  <s_epik_cmdline>  (308) 
J2VwaWtfcHl0aG9uJywgJy1waHQnLCAnMi4wJywgJy1waCcsICc3LjAnLCAnLXRuJywgJzgnLCAnLW1hJywgJzIwMCcsICctaW1hZScsICc8aW5maWxlLm1hZT4nLCAnLW9tYWUnLCAnPG91dGZpbGUubWFlPic=

>  <r_lp_tautomer_probability>  (308) 
1

>  <r_epik_Ionization_Penalty>  (308) 
1.26078e-06

>  <r_epik_Ionization_Penalty_Charging>  (308) 
0

>  <r_epik_Ionization_Penalty_Neutral>  (308) 
1.26078e-06

>  <r_epik_State_Penalty>  (308) 
-0

>  <r_epik_Charging_Adjusted_Penalty>  (308) 
0

>  <i_epik_Tot_Q>  (308) 
0

>  <i_epik_Tot_abs_Q>  (308) 
0

>  <s_lp_Force_Field>  (308) 
OPLS3e

>  <r_lp_Energy>  (308) 
125.246

>  <b_lp_Chiralities_Consistent>  (308) 
1

>  <s_lp_Variant>  (308) 
102:0-1

>  <s_i_glide_gridfile>  (308) 
pfpi4k_grid

>  <i_i_glide_lignum>  (308) 
20

>  <i_i_glide_rotatable_bonds>  (308) 
4

>  <r_i_docking_score>  (308) 
-3.37639

>  <r_i_glide_ligand_efficiency>  (308) 
-0.120585

>  <r_i_glide_ligand_efficiency_sa>  (308) 
-0.366168

>  <r_i_glide_ligand_efficiency_ln>  (308) 
-0.779371

>  <r_i_glide_gscore>  (308) 
-3.37639

>  <r_i_glide_lipo>  (308) 
0

>  <r_i_glide_hbond>  (308) 
-0.300054

>  <r_i_glide_metal>  (308) 
-0

>  <r_i_glide_rewards>  (308) 
-0.787356

>  <r_i_glide_evdw>  (308) 
-22.0427

>  <r_i_glide_ecoul>  (308) 
-7.91233

>  <r_i_glide_erotb>  (308) 
0

>  <r_i_glide_esite>  (308) 
0

>  <r_i_glide_emodel>  (308) 
-36.5971

>  <r_i_glide_energy>  (308) 
-29.955

>  <r_i_glide_einternal>  (308) 
1.54454

>  <r_i_glide_intrahb_reward>  (308) 
-0

>  <i_i_glide_confnum>  (308) 
2

>  <i_i_glide_posenum>  (308) 
23

>  <r_i_glide_eff_state_penalty>  (308) 
0

>  <ligand_id>  (308) 
102

>  <original_smiles>  (308) 
CC12CC(O)C(O)C3(C)C1=CCC(O)C1(C)C4C(=O)CC3(C)C(O)C4CCC21

>  <smiles>  (308) 
[H]OC1([H])C([H])([H])C2(C([H])([H])[H])C3=C([H])C([H])([H])C([H])(O[H])C4(C([H])([H])[H])C5([H])C(=O)C([H])([H])C(C([H])([H])[H])(C([H])(O[H])C5([H])C([H])([H])C([H])([H])C24[H])C3(C([H])([H])[H])C1([H])O[H]

$$$$
102:0:2
     RDKit          3D

 62 66  0  0  1  0  0  0  0  0999 V2000
    3.3918    1.0909    3.6228 C   0  0  0  0  0  0  0  0  0  0  0  0
    2.2977    1.4906    4.6684 C   0  0  1  0  0  0  0  0  0  0  0  0
    2.5496    3.0293    4.8366 C   0  0  0  0  0  0  0  0  0  0  0  0
    1.8250    3.9236    3.8227 C   0  0  1  0  0  0  0  0  0  0  0  0
    2.2061    3.6590    2.4828 O   0  0  0  0  0  0  0  0  0  0  0  0
    0.3221    3.7684    4.0690 C   0  0  1  0  0  0  0  0  0  0  0  0
   -0.3803    4.7267    3.2951 O   0  0  0  0  0  0  0  0  0  0  0  0
   -0.2421    2.2815    4.0900 C   0  0  1  0  0  0  0  0  0  0  0  0
   -1.1002    2.1399    2.7832 C   0  0  0  0  0  0  0  0  0  0  0  0
    0.8979    1.2065    4.0494 C   0  0  0  0  0  0  0  0  0  0  0  0
    0.6496    0.0132    3.4444 C   0  0  0  0  0  0  0  0  0  0  0  0
    1.4617   -1.2487    3.5345 C   0  0  0  0  0  0  0  0  0  0  0  0
    1.8256   -1.6920    4.9782 C   0  0  1  0  0  0  0  0  0  0  0  0
    3.1034   -2.2927    4.8543 O   0  0  0  0  0  0  0  0  0  0  0  0
    1.7513   -0.6852    6.2043 C   0  0  2  0  0  0  0  0  0  0  0  0
    2.3919   -1.5229    7.3682 C   0  0  0  0  0  0  0  0  0  0  0  0
    0.3058   -0.3190    6.7514 C   0  0  2  0  0  0  0  0  0  0  0  0
   -0.9226   -0.5771    5.8736 C   0  0  0  0  0  0  0  0  0  0  0  0
   -1.2499   -1.7179    5.5501 O   0  0  0  0  0  0  0  0  0  0  0  0
   -1.8043    0.6019    5.4705 C   0  0  0  0  0  0  0  0  0  0  0  0
   -1.1722    2.0213    5.3873 C   0  0  2  0  0  0  0  0  0  0  0  0
   -2.4164    2.9647    5.2997 C   0  0  0  0  0  0  0  0  0  0  0  0
   -0.4169    2.2603    6.7535 C   0  0  1  0  0  0  0  0  0  0  0  0
   -1.2344    2.9178    7.7113 O   0  0  0  0  0  0  0  0  0  0  0  0
    0.1840    1.0364    7.5074 C   0  0  2  0  0  0  0  0  0  0  0  0
    1.4845    1.4482    8.2265 C   0  0  0  0  0  0  0  0  0  0  0  0
    2.7508    1.3812    7.3408 C   0  0  0  0  0  0  0  0  0  0  0  0
    2.5942    0.6259    5.9817 C   0  0  2  0  0  0  0  0  0  0  0  0
    4.3096    1.6577    3.7509 H   0  0  0  0  0  0  0  0  0  0  0  0
    3.0625    1.2713    2.5974 H   0  0  0  0  0  0  0  0  0  0  0  0
    3.7255    0.0600    3.6754 H   0  0  0  0  0  0  0  0  0  0  0  0
    2.1959    3.3869    5.7922 H   0  0  0  0  0  0  0  0  0  0  0  0
    3.6102    3.2739    4.8682 H   0  0  0  0  0  0  0  0  0  0  0  0
    2.0958    4.9588    4.0321 H   0  0  0  0  0  0  0  0  0  0  0  0
    1.5789    4.0610    1.8854 H   0  0  0  0  0  0  0  0  0  0  0  0
    0.1600    4.2093    5.0459 H   0  0  0  0  0  0  0  0  0  0  0  0
   -0.2111    4.5484    2.3548 H   0  0  0  0  0  0  0  0  0  0  0  0
   -1.8118    2.9467    2.6184 H   0  0  0  0  0  0  0  0  0  0  0  0
   -1.7171    1.2449    2.7345 H   0  0  0  0  0  0  0  0  0  0  0  0
   -0.4433    2.1388    1.9084 H   0  0  0  0  0  0  0  0  0  0  0  0
   -0.3026   -0.1922    2.9938 H   0  0  0  0  0  0  0  0  0  0  0  0
    0.8422   -2.0376    3.1054 H   0  0  0  0  0  0  0  0  0  0  0  0
    2.3041   -1.2024    2.8452 H   0  0  0  0  0  0  0  0  0  0  0  0
    1.1740   -2.5299    5.2191 H   0  0  0  0  0  0  0  0  0  0  0  0
    3.7207   -1.6294    4.5822 H   0  0  0  0  0  0  0  0  0  0  0  0
    2.2177   -1.1055    8.3586 H   0  0  0  0  0  0  0  0  0  0  0  0
    3.4752   -1.6244    7.2676 H   0  0  0  0  0  0  0  0  0  0  0  0
    1.9724   -2.5303    7.4089 H   0  0  0  0  0  0  0  0  0  0  0  0
    0.1289   -1.0663    7.5237 H   0  0  0  0  0  0  0  0  0  0  0  0
   -2.3291    0.3553    4.5478 H   0  0  0  0  0  0  0  0  0  0  0  0
   -2.5795    0.6257    6.2388 H   0  0  0  0  0  0  0  0  0  0  0  0
   -3.1096    2.8134    6.1334 H   0  0  0  0  0  0  0  0  0  0  0  0
   -3.0247    2.7720    4.4146 H   0  0  0  0  0  0  0  0  0  0  0  0
   -2.1514    4.0228    5.3007 H   0  0  0  0  0  0  0  0  0  0  0  0
    0.3863    2.9615    6.6147 H   0  0  0  0  0  0  0  0  0  0  0  0
   -0.6890    3.1898    8.4365 H   0  0  0  0  0  0  0  0  0  0  0  0
   -0.5217    0.8086    8.3089 H   0  0  0  0  0  0  0  0  0  0  0  0
    1.3965    2.4447    8.6611 H   0  0  0  0  0  0  0  0  0  0  0  0
    1.6224    0.7969    9.0922 H   0  0  0  0  0  0  0  0  0  0  0  0
    3.2058    2.3632    7.2439 H   0  0  0  0  0  0  0  0  0  0  0  0
    3.5102    0.8569    7.9276 H   0  0  0  0  0  0  0  0  0  0  0  0
    3.6157    0.2792    5.8332 H   0  0  0  0  0  0  0  0  0  0  0  0
  2  1  1  6
  1 29  1  0
  1 30  1  0
  1 31  1  0
  2 10  1  0
  2 28  1  0
  2  3  1  0
  3  4  1  0
  3 32  1  0
  3 33  1  0
  4  5  1  0
  4  6  1  0
  4 34  1  1
  5 35  1  0
  6  7  1  0
  6  8  1  0
  6 36  1  1
  7 37  1  0
  8 21  1  0
  8  9  1  6
  8 10  1  0
  9 38  1  0
  9 39  1  0
  9 40  1  0
 10 11  2  0
 11 12  1  0
 11 41  1  0
 12 13  1  0
 12 42  1  0
 12 43  1  0
 13 14  1  0
 13 15  1  0
 13 44  1  1
 14 45  1  0
 15 28  1  0
 15 16  1  1
 15 17  1  0
 16 46  1  0
 16 47  1  0
 16 48  1  0
 17 25  1  0
 17 18  1  0
 17 49  1  1
 18 19  2  0
 18 20  1  0
 20 21  1  0
 20 50  1  0
 20 51  1  0
 21 22  1  6
 21 23  1  0
 22 52  1  0
 22 53  1  0
 22 54  1  0
 23 24  1  0
 23 25  1  0
 23 55  1  6
 24 56  1  0
 25 26  1  0
 25 57  1  1
 26 27  1  0
 26 58  1  0
 26 59  1  0
 27 28  1  0
 27 60  1  0
 27 61  1  0
 28 62  1  6
M  END
>  <i_m_ct_stereo_status>  (309) 
1

>  <s_m_source_file>  (309) 
/var/tmp/pbs.5076255.sched01/tmpvuzdko10/1206lwnzxed.sdf

>  <i_m_source_file_index>  (309) 
20

>  <i_lp_mmshare_version>  (309) 
48012

>  <i_f3d_flags>  (309) 
0

>  <s_epik_input>  (309) 
W0NIM11bQ0BdMTJDPTNbQ0BdKFtDSDNdKShbQ0BIXShbT0hdKVtDQEBIXShbQ0gyXTEpW09IXSlbQ0BAXTQoW0NIM10pW0NIMl1DKD1PKVtDQEhdNVtDQEBdKFtDSDNdKShbQ0BIXShbT0hdKVtDSDJdW0NIXTMpW0NAQEhdMltDSDJdW0NIMl1bQ0BIXTVbQ0BASF00W09IXQ==

>  <s_epik_cmdline>  (309) 
J2VwaWtfcHl0aG9uJywgJy1waHQnLCAnMi4wJywgJy1waCcsICc3LjAnLCAnLXRuJywgJzgnLCAnLW1hJywgJzIwMCcsICctaW1hZScsICc8aW5maWxlLm1hZT4nLCAnLW9tYWUnLCAnPG91dGZpbGUubWFlPic=

>  <r_lp_tautomer_probability>  (309) 
1

>  <r_epik_Ionization_Penalty>  (309) 
1.26078e-06

>  <r_epik_Ionization_Penalty_Charging>  (309) 
0

>  <r_epik_Ionization_Penalty_Neutral>  (309) 
1.26078e-06

>  <r_epik_State_Penalty>  (309) 
-0

>  <r_epik_Charging_Adjusted_Penalty>  (309) 
0

>  <i_epik_Tot_Q>  (309) 
0

>  <i_epik_Tot_abs_Q>  (309) 
0

>  <s_lp_Force_Field>  (309) 
OPLS3e

>  <r_lp_Energy>  (309) 
125.246

>  <b_lp_Chiralities_Consistent>  (309) 
1

>  <s_lp_Variant>  (309) 
102:0-1

>  <s_i_glide_gridfile>  (309) 
pfpi4k_grid

>  <i_i_glide_lignum>  (309) 
20

>  <i_i_glide_rotatable_bonds>  (309) 
4

>  <r_i_docking_score>  (309) 
-3.24347

>  <r_i_glide_ligand_efficiency>  (309) 
-0.115838

>  <r_i_glide_ligand_efficiency_sa>  (309) 
-0.351753

>  <r_i_glide_ligand_efficiency_ln>  (309) 
-0.748688

>  <r_i_glide_gscore>  (309) 
-3.24347

>  <r_i_glide_lipo>  (309) 
0

>  <r_i_glide_hbond>  (309) 
0

>  <r_i_glide_metal>  (309) 
-0

>  <r_i_glide_rewards>  (309) 
-0.746502

>  <r_i_glide_evdw>  (309) 
-22.5087

>  <r_i_glide_ecoul>  (309) 
-8.78256

>  <r_i_glide_erotb>  (309) 
0

>  <r_i_glide_esite>  (309) 
-0.0541476

>  <r_i_glide_emodel>  (309) 
-38.1221

>  <r_i_glide_energy>  (309) 
-31.2913

>  <r_i_glide_einternal>  (309) 
1.01761

>  <r_i_glide_intrahb_reward>  (309) 
-0

>  <i_i_glide_confnum>  (309) 
1

>  <i_i_glide_posenum>  (309) 
19

>  <r_i_glide_eff_state_penalty>  (309) 
0

>  <ligand_id>  (309) 
102

>  <original_smiles>  (309) 
CC12CC(O)C(O)C3(C)C1=CCC(O)C1(C)C4C(=O)CC3(C)C(O)C4CCC21

>  <smiles>  (309) 
[H]OC1([H])C([H])([H])C2(C([H])([H])[H])C3=C([H])C([H])([H])C([H])(O[H])C4(C([H])([H])[H])C5([H])C(=O)C([H])([H])C(C([H])([H])[H])(C([H])(O[H])C5([H])C([H])([H])C([H])([H])C24[H])C3(C([H])([H])[H])C1([H])O[H]

$$$$
103:0:0
     RDKit          3D

 86 92  0  0  1  0  0  0  0  0999 V2000
    4.1870   -0.4567   -2.1819 C   0  0  0  0  0  0  0  0  0  0  0  0
    5.3023   -1.4387   -1.8216 C   0  0  2  0  0  0  0  0  0  0  0  0
    5.1329   -2.8302   -2.3926 C   0  0  0  0  0  0  0  0  0  0  0  0
    4.4935   -3.0863   -3.4196 O   0  0  0  0  0  0  0  0  0  0  0  0
    5.7826   -3.6646   -1.6114 O   0  0  0  0  0  0  0  0  0  0  0  0
    6.4888   -3.0304   -0.5550 C   0  0  1  0  0  0  0  0  0  0  0  0
    5.7170   -1.7235   -0.3640 C   0  0  2  0  0  0  0  0  0  0  0  0
    4.6861   -1.9519    0.8104 C   0  0  1  0  0  0  0  0  0  0  0  0
    4.8598   -0.6900    1.7115 C   0  0  0  0  0  0  0  0  0  0  0  0
    3.2009   -1.9408    0.3774 C   0  0  0  0  0  0  0  0  0  0  0  0
    2.2971   -2.4593    1.5007 C   0  0  0  0  0  0  0  0  0  0  0  0
    2.4652   -3.9765    1.7034 C   0  0  2  0  0  0  0  0  0  0  0  0
    1.9369   -4.5954    3.0336 C   0  0  1  0  0  0  0  0  0  0  0  0
    1.7143   -3.5374    4.1450 C   0  0  0  0  0  0  0  0  0  0  0  0
    0.7963   -5.6273    2.9688 C   0  0  0  0  0  0  0  0  0  0  0  0
    1.7887   -6.7623    2.7699 C   0  0  2  0  0  0  0  0  0  0  0  0
    1.5381   -8.1895    3.3798 C   0  0  1  0  0  0  0  0  0  0  0  0
    0.0265   -8.4880    3.1285 C   0  0  0  0  0  0  0  0  0  0  0  0
    2.3866   -9.2395    2.6137 C   0  0  0  0  0  0  0  0  0  0  0  0
    2.3088  -10.6750    3.1901 C   0  0  0  0  0  0  0  0  0  0  0  0
    2.6759  -10.7507    4.6884 C   0  0  1  0  0  0  0  0  0  0  0  0
    4.0842  -10.6387    4.7607 O   0  0  0  0  0  0  0  0  0  0  0  0
    1.9127   -9.6986    5.5693 C   0  0  1  0  0  0  0  0  0  0  0  0
    0.4319  -10.1793    5.7070 C   0  0  0  0  0  0  0  0  0  0  0  0
    2.4351   -9.6790    7.0528 C   0  0  0  0  0  0  0  0  0  0  0  0
    3.8431   -9.6234    7.2041 O   0  0  0  0  0  0  0  0  0  0  0  0
    1.9516   -8.2603    4.9056 C   0  0  1  0  0  0  0  0  0  0  0  0
    3.3072   -7.5318    5.1361 C   0  0  0  0  0  0  0  0  0  0  0  0
    3.2658   -6.0493    4.7749 C   0  0  0  0  0  0  0  0  0  0  0  0
    2.8655   -5.7940    3.3249 C   0  0  2  0  0  0  0  0  0  0  0  0
    4.0734   -5.6563    2.4254 C   0  0  0  0  0  0  0  0  0  0  0  0
    5.0920   -6.3426    2.4608 O   0  0  0  0  0  0  0  0  0  0  0  0
    3.9183   -4.4983    1.3964 C   0  0  1  0  0  0  0  0  0  0  0  0
    3.8721   -5.2020    0.0214 C   0  0  0  0  0  0  0  0  0  0  0  0
    5.0604   -3.3418    1.5148 C   0  0  2  0  0  0  0  0  0  0  0  0
    5.3884   -3.1233    3.0245 C   0  0  0  0  0  0  0  0  0  0  0  0
    6.4274   -3.6759    0.8325 C   0  0  1  0  0  0  0  0  0  0  0  0
    6.9605   -4.9767    0.8655 O   0  0  0  0  0  0  0  0  0  0  0  0
    4.3453   -0.0079   -3.1705 H   0  0  0  0  0  0  0  0  0  0  0  0
    4.2208    0.3195   -1.4407 H   0  0  0  0  0  0  0  0  0  0  0  0
    3.1845   -0.8917   -2.1708 H   0  0  0  0  0  0  0  0  0  0  0  0
    6.2065   -1.0441   -2.2560 H   0  0  0  0  0  0  0  0  0  0  0  0
    7.5199   -2.8524   -0.8606 H   0  0  0  0  0  0  0  0  0  0  0  0
    6.4430   -0.9615   -0.0738 H   0  0  0  0  0  0  0  0  0  0  0  0
    4.2437   -0.7114    2.6096 H   0  0  0  0  0  0  0  0  0  0  0  0
    4.5863    0.2186    1.1737 H   0  0  0  0  0  0  0  0  0  0  0  0
    5.8888   -0.5448    2.0364 H   0  0  0  0  0  0  0  0  0  0  0  0
    2.8954   -0.9221    0.1413 H   0  0  0  0  0  0  0  0  0  0  0  0
    3.0173   -2.4977   -0.5280 H   0  0  0  0  0  0  0  0  0  0  0  0
    2.4551   -1.8623    2.3914 H   0  0  0  0  0  0  0  0  0  0  0  0
    1.2712   -2.2917    1.2122 H   0  0  0  0  0  0  0  0  0  0  0  0
    1.8320   -4.3961    0.9227 H   0  0  0  0  0  0  0  0  0  0  0  0
    1.2521   -3.9745    5.0324 H   0  0  0  0  0  0  0  0  0  0  0  0
    1.0263   -2.7482    3.8376 H   0  0  0  0  0  0  0  0  0  0  0  0
    2.6419   -3.0810    4.4809 H   0  0  0  0  0  0  0  0  0  0  0  0
    0.2301   -5.7183    3.9068 H   0  0  0  0  0  0  0  0  0  0  0  0
    0.1368   -5.5073    2.1143 H   0  0  0  0  0  0  0  0  0  0  0  0
    1.9038   -6.8510    1.6893 H   0  0  0  0  0  0  0  0  0  0  0  0
   -0.2148   -9.5528    3.0745 H   0  0  0  0  0  0  0  0  0  0  0  0
   -0.3120   -8.0900    2.1726 H   0  0  0  0  0  0  0  0  0  0  0  0
   -0.6094   -8.0547    3.9039 H   0  0  0  0  0  0  0  0  0  0  0  0
    2.0972   -9.2655    1.5598 H   0  0  0  0  0  0  0  0  0  0  0  0
    3.4303   -8.9232    2.6165 H   0  0  0  0  0  0  0  0  0  0  0  0
    1.3192  -11.0960    3.0172 H   0  0  0  0  0  0  0  0  0  0  0  0
    2.9779  -11.3244    2.6120 H   0  0  0  0  0  0  0  0  0  0  0  0
    2.4293  -11.7498    5.0524 H   0  0  0  0  0  0  0  0  0  0  0  0
    4.4496  -11.3514    4.2395 H   0  0  0  0  0  0  0  0  0  0  0  0
   -0.2551   -9.3684    5.9409 H   0  0  0  0  0  0  0  0  0  0  0  0
    0.2664  -10.9256    6.4759 H   0  0  0  0  0  0  0  0  0  0  0  0
    0.0784  -10.6693    4.8066 H   0  0  0  0  0  0  0  0  0  0  0  0
    1.9850   -8.8663    7.6210 H   0  0  0  0  0  0  0  0  0  0  0  0
    2.2003  -10.6082    7.5530 H   0  0  0  0  0  0  0  0  0  0  0  0
    4.2173  -10.1076    6.4763 H   0  0  0  0  0  0  0  0  0  0  0  0
    1.2131   -7.6625    5.4465 H   0  0  0  0  0  0  0  0  0  0  0  0
    3.5896   -7.5482    6.1793 H   0  0  0  0  0  0  0  0  0  0  0  0
    4.1095   -8.0188    4.5682 H   0  0  0  0  0  0  0  0  0  0  0  0
    2.5463   -5.6063    5.4729 H   0  0  0  0  0  0  0  0  0  0  0  0
    4.2286   -5.5960    5.0115 H   0  0  0  0  0  0  0  0  0  0  0  0
    3.5342   -4.5460   -0.7631 H   0  0  0  0  0  0  0  0  0  0  0  0
    3.1810   -6.0490    0.0115 H   0  0  0  0  0  0  0  0  0  0  0  0
    4.8337   -5.6186   -0.2807 H   0  0  0  0  0  0  0  0  0  0  0  0
    5.8118   -4.0098    3.5009 H   0  0  0  0  0  0  0  0  0  0  0  0
    4.5302   -2.8070    3.6017 H   0  0  0  0  0  0  0  0  0  0  0  0
    6.1598   -2.3634    3.1682 H   0  0  0  0  0  0  0  0  0  0  0  0
    7.1841   -3.1131    1.3848 H   0  0  0  0  0  0  0  0  0  0  0  0
    6.8245   -5.3368    1.7332 H   0  0  0  0  0  0  0  0  0  0  0  0
  1  2  1  0
  1 39  1  0
  1 40  1  0
  1 41  1  0
  2  7  1  0
  2  3  1  0
  2 42  1  6
  3  4  2  0
  3  5  1  0
  5  6  1  0
  6 37  1  0
  6  7  1  0
  6 43  1  6
  7  8  1  0
  7 44  1  1
  8 35  1  0
  8  9  1  1
  8 10  1  0
  9 45  1  0
  9 46  1  0
  9 47  1  0
 10 11  1  0
 10 48  1  0
 10 49  1  0
 11 12  1  0
 11 50  1  0
 11 51  1  0
 12 33  1  0
 12 13  1  0
 12 52  1  6
 13 30  1  0
 13 14  1  1
 13 15  1  0
 14 53  1  0
 14 54  1  0
 14 55  1  0
 15 16  1  0
 15 56  1  0
 15 57  1  0
 16 30  1  0
 16 17  1  0
 16 58  1  6
 17 27  1  0
 17 18  1  1
 17 19  1  0
 18 59  1  0
 18 60  1  0
 18 61  1  0
 19 20  1  0
 19 62  1  0
 19 63  1  0
 20 21  1  0
 20 64  1  0
 20 65  1  0
 21 22  1  0
 21 23  1  0
 21 66  1  1
 22 67  1  0
 23 24  1  1
 23 25  1  0
 23 27  1  0
 24 68  1  0
 24 69  1  0
 24 70  1  0
 25 26  1  0
 25 71  1  0
 25 72  1  0
 26 73  1  0
 27 28  1  0
 27 74  1  1
 28 29  1  0
 28 75  1  0
 28 76  1  0
 30 29  1  1
 29 77  1  0
 29 78  1  0
 30 31  1  0
 31 32  2  0
 31 33  1  0
 33 34  1  6
 33 35  1  0
 34 79  1  0
 34 80  1  0
 34 81  1  0
 35 36  1  1
 35 37  1  0
 36 82  1  0
 36 83  1  0
 36 84  1  0
 37 38  1  0
 37 85  1  1
 38 86  1  0
M  END
>  <i_m_ct_stereo_status>  (310) 
1

>  <s_m_source_file>  (310) 
/var/tmp/pbs.5076255.sched01/tmpvuzdko10/1206lwnzxed.sdf

>  <i_m_source_file_index>  (310) 
21

>  <i_lp_mmshare_version>  (310) 
48012

>  <i_f3d_flags>  (310) 
0

>  <s_epik_input>  (310) 
W0NIM11bQ0BASF0xQyg9TylPW0NASF0oW0NAQEhdMltPSF0pW0NAQEhdMVtDQEBdKFtDSDNdKShbQ0gyXVtDSDJdMylbQ0BAXTIoW0NIM10pW0NAXShDND1PKShbQ0gzXSlbQ0BIXTNbQ0BAXShbQ0BdNDU2KShbQ0gzXSlbQ0gyXVtDQEBIXTVbQ0BdNyhbQ0gzXSlbQ0BIXShbQ0gyXVtDSDJdNilbQ0BdKFtDSDNdKShbQ0gyXVtPSF0pW0NASF0oW09IXSlbQ0gyXVtDSDJdNw==

>  <s_epik_cmdline>  (310) 
J2VwaWtfcHl0aG9uJywgJy1waHQnLCAnMi4wJywgJy1waCcsICc3LjAnLCAnLXRuJywgJzgnLCAnLW1hJywgJzIwMCcsICctaW1hZScsICc8aW5maWxlLm1hZT4nLCAnLW9tYWUnLCAnPG91dGZpbGUubWFlPic=

>  <r_lp_tautomer_probability>  (310) 
1

>  <r_epik_Ionization_Penalty>  (310) 
1.74223e-06

>  <r_epik_Ionization_Penalty_Charging>  (310) 
0

>  <r_epik_Ionization_Penalty_Neutral>  (310) 
1.74223e-06

>  <r_epik_State_Penalty>  (310) 
-0

>  <r_epik_Charging_Adjusted_Penalty>  (310) 
0

>  <i_epik_Tot_Q>  (310) 
0

>  <i_epik_Tot_abs_Q>  (310) 
0

>  <s_epik_Chemistry_Notes>  (310) 
This compound has an ester and may undergo hydrolysis at high or low pH.

>  <s_lp_Force_Field>  (310) 
OPLS3e

>  <r_lp_Energy>  (310) 
119.558

>  <b_lp_Chiralities_Consistent>  (310) 
1

>  <s_lp_Variant>  (310) 
103:0-1

>  <s_i_glide_gridfile>  (310) 
pfpi4k_grid

>  <i_i_glide_lignum>  (310) 
21

>  <i_i_glide_rotatable_bonds>  (310) 
4

>  <r_i_docking_score>  (310) 
-3.00738

>  <r_i_glide_ligand_efficiency>  (310) 
-0.0791416

>  <r_i_glide_ligand_efficiency_sa>  (310) 
-0.266072

>  <r_i_glide_ligand_efficiency_ln>  (310) 
-0.64848

>  <r_i_glide_gscore>  (310) 
-3.00738

>  <r_i_glide_lipo>  (310) 
-0.460388

>  <r_i_glide_hbond>  (310) 
0

>  <r_i_glide_metal>  (310) 
-0

>  <r_i_glide_rewards>  (310) 
-1.20706

>  <r_i_glide_evdw>  (310) 
-23.3758

>  <r_i_glide_ecoul>  (310) 
-1.63234

>  <r_i_glide_erotb>  (310) 
0.0737027

>  <r_i_glide_esite>  (310) 
0

>  <r_i_glide_emodel>  (310) 
-35.4241

>  <r_i_glide_energy>  (310) 
-25.0081

>  <r_i_glide_einternal>  (310) 
8.49987

>  <r_i_glide_intrahb_reward>  (310) 
-1

>  <i_i_glide_confnum>  (310) 
6

>  <i_i_glide_posenum>  (310) 
17

>  <r_i_glide_eff_state_penalty>  (310) 
0

>  <ligand_id>  (310) 
103

>  <original_smiles>  (310) 
CC1C(=O)OC2C1C1(C)CCC3C4(C)CC5C6(C)CCC(O)C(C)(CO)C6CCC54C(=O)C3(C)C1(C)C2O

>  <smiles>  (310) 
[H]OC([H])([H])C1(C([H])([H])[H])C([H])(O[H])C([H])([H])C([H])([H])C2(C([H])([H])[H])C3([H])C([H])([H])C4(C([H])([H])[H])C5([H])C([H])([H])C([H])([H])C6(C([H])([H])[H])C7([H])C([H])(OC(=O)C7([H])C([H])([H])[H])C([H])(O[H])C6(C([H])([H])[H])C5(C([H])([H])[H])C(=O)C34C([H])([H])C([H])([H])C12[H]

$$$$
103:0:1
     RDKit          3D

 86 92  0  0  1  0  0  0  0  0999 V2000
    3.5660   -1.4742   -2.6293 C   0  0  0  0  0  0  0  0  0  0  0  0
    4.9339   -1.7598   -1.9990 C   0  0  2  0  0  0  0  0  0  0  0  0
    5.5943   -3.0495   -2.4436 C   0  0  0  0  0  0  0  0  0  0  0  0
    5.3630   -3.5725   -3.5217 O   0  0  0  0  0  0  0  0  0  0  0  0
    6.4447   -3.3981   -1.4930 O   0  0  0  0  0  0  0  0  0  0  0  0
    6.4686   -2.5361   -0.3718 C   0  0  1  0  0  0  0  0  0  0  0  0
    5.1167   -1.8338   -0.4685 C   0  0  2  0  0  0  0  0  0  0  0  0
    4.1332   -2.6307    0.4922 C   0  0  1  0  0  0  0  0  0  0  0  0
    3.4197   -1.4918    1.2879 C   0  0  0  0  0  0  0  0  0  0  0  0
    3.0024   -3.4045   -0.2276 C   0  0  0  0  0  0  0  0  0  0  0  0
    2.2875   -4.3683    0.7093 C   0  0  0  0  0  0  0  0  0  0  0  0
    3.1581   -5.5485    1.1199 C   0  0  2  0  0  0  0  0  0  0  0  0
    2.7327   -6.3801    2.3783 C   0  0  1  0  0  0  0  0  0  0  0  0
    1.7669   -5.6053    3.3097 C   0  0  0  0  0  0  0  0  0  0  0  0
    2.3201   -7.8387    2.1870 C   0  0  0  0  0  0  0  0  0  0  0  0
    3.7642   -8.2921    2.3144 C   0  0  2  0  0  0  0  0  0  0  0  0
    4.1791   -9.6320    2.9832 C   0  0  1  0  0  0  0  0  0  0  0  0
    3.1306  -10.6672    2.4890 C   0  0  0  0  0  0  0  0  0  0  0  0
    5.5887  -10.0661    2.5082 C   0  0  0  0  0  0  0  0  0  0  0  0
    6.1462  -11.3298    3.1979 C   0  0  0  0  0  0  0  0  0  0  0  0
    6.1286  -11.2550    4.7332 C   0  0  1  0  0  0  0  0  0  0  0  0
    7.1951  -10.3984    5.1283 O   0  0  0  0  0  0  0  0  0  0  0  0
    4.7624  -10.8002    5.3206 C   0  0  1  0  0  0  0  0  0  0  0  0
    3.7751  -12.0103    5.2337 C   0  0  0  0  0  0  0  0  0  0  0  0
    4.9109  -10.5741    6.8656 C   0  0  0  0  0  0  0  0  0  0  0  0
    3.6874  -10.2001    7.4754 O   0  0  0  0  0  0  0  0  0  0  0  0
    4.2138   -9.5302    4.5602 C   0  0  1  0  0  0  0  0  0  0  0  0
    4.9282   -8.2057    4.9884 C   0  0  0  0  0  0  0  0  0  0  0  0
    4.2108   -6.9539    4.4919 C   0  0  0  0  0  0  0  0  0  0  0  0
    4.0575   -6.9055    2.9690 C   0  0  2  0  0  0  0  0  0  0  0  0
    5.1828   -6.1398    2.3471 C   0  0  0  0  0  0  0  0  0  0  0  0
    6.3818   -6.1677    2.6105 O   0  0  0  0  0  0  0  0  0  0  0  0
    4.6878   -5.2138    1.1802 C   0  0  1  0  0  0  0  0  0  0  0  0
    5.2884   -5.7970   -0.1188 C   0  0  0  0  0  0  0  0  0  0  0  0
    5.0070   -3.6346    1.3986 C   0  0  2  0  0  0  0  0  0  0  0  0
    4.8454   -3.2922    2.9095 C   0  0  0  0  0  0  0  0  0  0  0  0
    6.4511   -3.1776    1.0176 C   0  0  1  0  0  0  0  0  0  0  0  0
    7.5595   -4.0189    1.2409 O   0  0  0  0  0  0  0  0  0  0  0  0
    3.6963   -1.0481   -3.6273 H   0  0  0  0  0  0  0  0  0  0  0  0
    2.9914   -0.7553   -2.0391 H   0  0  0  0  0  0  0  0  0  0  0  0
    2.9618   -2.3760   -2.7613 H   0  0  0  0  0  0  0  0  0  0  0  0
    5.5968   -0.9589   -2.3245 H   0  0  0  0  0  0  0  0  0  0  0  0
    7.3070   -1.8490   -0.4748 H   0  0  0  0  0  0  0  0  0  0  0  0
    5.2594   -0.8154   -0.0993 H   0  0  0  0  0  0  0  0  0  0  0  0
    2.7225   -1.8556    2.0445 H   0  0  0  0  0  0  0  0  0  0  0  0
    2.8397   -0.8449    0.6186 H   0  0  0  0  0  0  0  0  0  0  0  0
    4.1280   -0.8292    1.7939 H   0  0  0  0  0  0  0  0  0  0  0  0
    2.2530   -2.7026   -0.5943 H   0  0  0  0  0  0  0  0  0  0  0  0
    3.3356   -3.9363   -1.1001 H   0  0  0  0  0  0  0  0  0  0  0  0
    1.8635   -3.8194    1.5440 H   0  0  0  0  0  0  0  0  0  0  0  0
    1.4658   -4.7970    0.1398 H   0  0  0  0  0  0  0  0  0  0  0  0
    3.0198   -6.2277    0.2856 H   0  0  0  0  0  0  0  0  0  0  0  0
    1.4130   -6.2411    4.1297 H   0  0  0  0  0  0  0  0  0  0  0  0
    0.8581   -5.2911    2.8061 H   0  0  0  0  0  0  0  0  0  0  0  0
    2.2266   -4.7423    3.7787 H   0  0  0  0  0  0  0  0  0  0  0  0
    1.7006   -8.2332    3.0048 H   0  0  0  0  0  0  0  0  0  0  0  0
    1.8615   -8.0655    1.2282 H   0  0  0  0  0  0  0  0  0  0  0  0
    4.1427   -8.2671    1.2862 H   0  0  0  0  0  0  0  0  0  0  0  0
    3.4885  -11.6945    2.4875 H   0  0  0  0  0  0  0  0  0  0  0  0
    2.8624  -10.4689    1.4565 H   0  0  0  0  0  0  0  0  0  0  0  0
    2.2099  -10.6420    3.0725 H   0  0  0  0  0  0  0  0  0  0  0  0
    5.5836  -10.2281    1.4270 H   0  0  0  0  0  0  0  0  0  0  0  0
    6.2944   -9.2474    2.6740 H   0  0  0  0  0  0  0  0  0  0  0  0
    5.5818  -12.2029    2.8689 H   0  0  0  0  0  0  0  0  0  0  0  0
    7.1655  -11.5190    2.8523 H   0  0  0  0  0  0  0  0  0  0  0  0
    6.3747  -12.2395    5.1283 H   0  0  0  0  0  0  0  0  0  0  0  0
    7.2617  -10.4036    6.0521 H   0  0  0  0  0  0  0  0  0  0  0  0
    2.7350  -11.6861    5.2702 H   0  0  0  0  0  0  0  0  0  0  0  0
    3.9167  -12.7134    6.0525 H   0  0  0  0  0  0  0  0  0  0  0  0
    3.9118  -12.6000    4.3352 H   0  0  0  0  0  0  0  0  0  0  0  0
    5.2889  -11.4680    7.3522 H   0  0  0  0  0  0  0  0  0  0  0  0
    5.6539   -9.8054    7.0921 H   0  0  0  0  0  0  0  0  0  0  0  0
    3.0816  -10.9298    7.4306 H   0  0  0  0  0  0  0  0  0  0  0  0
    3.1781   -9.4039    4.8873 H   0  0  0  0  0  0  0  0  0  0  0  0
    4.9709   -8.1024    6.0679 H   0  0  0  0  0  0  0  0  0  0  0  0
    5.9604   -8.1843    4.6287 H   0  0  0  0  0  0  0  0  0  0  0  0
    3.2408   -6.9608    4.9894 H   0  0  0  0  0  0  0  0  0  0  0  0
    4.7270   -6.0686    4.8713 H   0  0  0  0  0  0  0  0  0  0  0  0
    4.8491   -5.3922   -1.0212 H   0  0  0  0  0  0  0  0  0  0  0  0
    5.1085   -6.8718   -0.1689 H   0  0  0  0  0  0  0  0  0  0  0  0
    6.3679   -5.6586   -0.1730 H   0  0  0  0  0  0  0  0  0  0  0  0
    5.5399   -3.8482    3.5426 H   0  0  0  0  0  0  0  0  0  0  0  0
    3.8444   -3.4899    3.2738 H   0  0  0  0  0  0  0  0  0  0  0  0
    5.0658   -2.2500    3.1448 H   0  0  0  0  0  0  0  0  0  0  0  0
    6.6719   -2.3257    1.6648 H   0  0  0  0  0  0  0  0  0  0  0  0
    7.4853   -4.3949    2.0967 H   0  0  0  0  0  0  0  0  0  0  0  0
  1  2  1  0
  1 39  1  0
  1 40  1  0
  1 41  1  0
  2  7  1  0
  2  3  1  0
  2 42  1  6
  3  4  2  0
  3  5  1  0
  5  6  1  0
  6 37  1  0
  6  7  1  0
  6 43  1  6
  7  8  1  0
  7 44  1  1
  8 35  1  0
  8  9  1  1
  8 10  1  0
  9 45  1  0
  9 46  1  0
  9 47  1  0
 10 11  1  0
 10 48  1  0
 10 49  1  0
 11 12  1  0
 11 50  1  0
 11 51  1  0
 12 33  1  0
 12 13  1  0
 12 52  1  6
 13 30  1  0
 13 14  1  1
 13 15  1  0
 14 53  1  0
 14 54  1  0
 14 55  1  0
 15 16  1  0
 15 56  1  0
 15 57  1  0
 16 30  1  0
 16 17  1  0
 16 58  1  6
 17 27  1  0
 17 18  1  1
 17 19  1  0
 18 59  1  0
 18 60  1  0
 18 61  1  0
 19 20  1  0
 19 62  1  0
 19 63  1  0
 20 21  1  0
 20 64  1  0
 20 65  1  0
 21 22  1  0
 21 23  1  0
 21 66  1  1
 22 67  1  0
 23 24  1  1
 23 25  1  0
 23 27  1  0
 24 68  1  0
 24 69  1  0
 24 70  1  0
 25 26  1  0
 25 71  1  0
 25 72  1  0
 26 73  1  0
 27 28  1  0
 27 74  1  1
 28 29  1  0
 28 75  1  0
 28 76  1  0
 30 29  1  1
 29 77  1  0
 29 78  1  0
 30 31  1  0
 31 32  2  0
 31 33  1  0
 33 34  1  6
 33 35  1  0
 34 79  1  0
 34 80  1  0
 34 81  1  0
 35 36  1  1
 35 37  1  0
 36 82  1  0
 36 83  1  0
 36 84  1  0
 37 38  1  0
 37 85  1  1
 38 86  1  0
M  END
>  <i_m_ct_stereo_status>  (311) 
1

>  <s_m_source_file>  (311) 
/var/tmp/pbs.5076255.sched01/tmpvuzdko10/1206lwnzxed.sdf

>  <i_m_source_file_index>  (311) 
21

>  <i_lp_mmshare_version>  (311) 
48012

>  <i_f3d_flags>  (311) 
0

>  <s_epik_input>  (311) 
W0NIM11bQ0BASF0xQyg9TylPW0NASF0oW0NAQEhdMltPSF0pW0NAQEhdMVtDQEBdKFtDSDNdKShbQ0gyXVtDSDJdMylbQ0BAXTIoW0NIM10pW0NAXShDND1PKShbQ0gzXSlbQ0BIXTNbQ0BAXShbQ0BdNDU2KShbQ0gzXSlbQ0gyXVtDQEBIXTVbQ0BdNyhbQ0gzXSlbQ0BIXShbQ0gyXVtDSDJdNilbQ0BdKFtDSDNdKShbQ0gyXVtPSF0pW0NASF0oW09IXSlbQ0gyXVtDSDJdNw==

>  <s_epik_cmdline>  (311) 
J2VwaWtfcHl0aG9uJywgJy1waHQnLCAnMi4wJywgJy1waCcsICc3LjAnLCAnLXRuJywgJzgnLCAnLW1hJywgJzIwMCcsICctaW1hZScsICc8aW5maWxlLm1hZT4nLCAnLW9tYWUnLCAnPG91dGZpbGUubWFlPic=

>  <r_lp_tautomer_probability>  (311) 
1

>  <r_epik_Ionization_Penalty>  (311) 
1.74223e-06

>  <r_epik_Ionization_Penalty_Charging>  (311) 
0

>  <r_epik_Ionization_Penalty_Neutral>  (311) 
1.74223e-06

>  <r_epik_State_Penalty>  (311) 
-0

>  <r_epik_Charging_Adjusted_Penalty>  (311) 
0

>  <i_epik_Tot_Q>  (311) 
0

>  <i_epik_Tot_abs_Q>  (311) 
0

>  <s_epik_Chemistry_Notes>  (311) 
This compound has an ester and may undergo hydrolysis at high or low pH.

>  <s_lp_Force_Field>  (311) 
OPLS3e

>  <r_lp_Energy>  (311) 
119.558

>  <b_lp_Chiralities_Consistent>  (311) 
1

>  <s_lp_Variant>  (311) 
103:0-1

>  <s_i_glide_gridfile>  (311) 
pfpi4k_grid

>  <i_i_glide_lignum>  (311) 
21

>  <i_i_glide_rotatable_bonds>  (311) 
4

>  <r_i_docking_score>  (311) 
-2.88813

>  <r_i_glide_ligand_efficiency>  (311) 
-0.0760033

>  <r_i_glide_ligand_efficiency_sa>  (311) 
-0.255521

>  <r_i_glide_ligand_efficiency_ln>  (311) 
-0.622765

>  <r_i_glide_gscore>  (311) 
-2.88813

>  <r_i_glide_lipo>  (311) 
-0.230881

>  <r_i_glide_hbond>  (311) 
-0.0679107

>  <r_i_glide_metal>  (311) 
-0

>  <r_i_glide_rewards>  (311) 
-0.754782

>  <r_i_glide_evdw>  (311) 
-28.6268

>  <r_i_glide_ecoul>  (311) 
-3.17942

>  <r_i_glide_erotb>  (311) 
0.0737027

>  <r_i_glide_esite>  (311) 
0

>  <r_i_glide_emodel>  (311) 
-41.0953

>  <r_i_glide_energy>  (311) 
-31.8063

>  <r_i_glide_einternal>  (311) 
0.730755

>  <r_i_glide_intrahb_reward>  (311) 
-0.5

>  <i_i_glide_confnum>  (311) 
6

>  <i_i_glide_posenum>  (311) 
5

>  <r_i_glide_eff_state_penalty>  (311) 
0

>  <ligand_id>  (311) 
103

>  <original_smiles>  (311) 
CC1C(=O)OC2C1C1(C)CCC3C4(C)CC5C6(C)CCC(O)C(C)(CO)C6CCC54C(=O)C3(C)C1(C)C2O

>  <smiles>  (311) 
[H]OC([H])([H])C1(C([H])([H])[H])C([H])(O[H])C([H])([H])C([H])([H])C2(C([H])([H])[H])C3([H])C([H])([H])C4(C([H])([H])[H])C5([H])C([H])([H])C([H])([H])C6(C([H])([H])[H])C7([H])C([H])(OC(=O)C7([H])C([H])([H])[H])C([H])(O[H])C6(C([H])([H])[H])C5(C([H])([H])[H])C(=O)C34C([H])([H])C([H])([H])C12[H]

$$$$
103:0:2
     RDKit          3D

 86 92  0  0  1  0  0  0  0  0999 V2000
    4.2058   -0.6975   -2.2031 C   0  0  0  0  0  0  0  0  0  0  0  0
    5.3077   -1.6661   -1.7964 C   0  0  2  0  0  0  0  0  0  0  0  0
    5.1155   -3.0866   -2.2717 C   0  0  0  0  0  0  0  0  0  0  0  0
    4.4902   -3.3896   -3.2844 O   0  0  0  0  0  0  0  0  0  0  0  0
    5.7537   -3.8648   -1.4268 O   0  0  0  0  0  0  0  0  0  0  0  0
    6.4741   -3.1813   -0.4193 C   0  0  1  0  0  0  0  0  0  0  0  0
    5.7216   -1.8586   -0.3247 C   0  0  2  0  0  0  0  0  0  0  0  0
    4.6960   -2.0099    0.8715 C   0  0  1  0  0  0  0  0  0  0  0  0
    4.8907   -0.6910    1.6887 C   0  0  0  0  0  0  0  0  0  0  0  0
    3.2104   -2.0020    0.4573 C   0  0  0  0  0  0  0  0  0  0  0  0
    2.3022   -2.4191    1.6093 C   0  0  0  0  0  0  0  0  0  0  0  0
    2.4562   -3.9280    1.9120 C   0  0  2  0  0  0  0  0  0  0  0  0
    1.9269   -4.4602    3.2887 C   0  0  1  0  0  0  0  0  0  0  0  0
    1.7285   -3.3216    4.3188 C   0  0  0  0  0  0  0  0  0  0  0  0
    0.7842   -5.4814    3.3005 C   0  0  0  0  0  0  0  0  0  0  0  0
    1.7532   -6.6365    3.1905 C   0  0  2  0  0  0  0  0  0  0  0  0
    1.4878   -8.0071    3.8725 C   0  0  1  0  0  0  0  0  0  0  0  0
   -0.0297   -8.3007    3.6537 C   0  0  0  0  0  0  0  0  0  0  0  0
    2.3151   -9.1159    3.1779 C   0  0  0  0  0  0  0  0  0  0  0  0
    2.2255  -10.5022    3.8501 C   0  0  0  0  0  0  0  0  0  0  0  0
    2.5671  -10.4782    5.3493 C   0  0  1  0  0  0  0  0  0  0  0  0
    3.9777  -10.3539    5.4502 O   0  0  0  0  0  0  0  0  0  0  0  0
    1.8093   -9.3730    6.1487 C   0  0  1  0  0  0  0  0  0  0  0  0
    0.3297   -9.8360    6.3401 C   0  0  0  0  0  0  0  0  0  0  0  0
    2.3708   -9.3108    7.6099 C   0  0  0  0  0  0  0  0  0  0  0  0
    1.7492   -8.2785    8.3642 O   0  0  0  0  0  0  0  0  0  0  0  0
    1.8890   -7.9835    5.4004 C   0  0  1  0  0  0  0  0  0  0  0  0
    3.2742   -7.2756    5.5782 C   0  0  0  0  0  0  0  0  0  0  0  0
    3.2591   -5.8135    5.1315 C   0  0  0  0  0  0  0  0  0  0  0  0
    2.8544   -5.6388    3.6630 C   0  0  2  0  0  0  0  0  0  0  0  0
    4.0520   -5.5834    2.7655 C   0  0  0  0  0  0  0  0  0  0  0  0
    5.0702   -6.2694    2.8128 O   0  0  0  0  0  0  0  0  0  0  0  0
    3.8988   -4.5011    1.6425 C   0  0  1  0  0  0  0  0  0  0  0  0
    3.8320   -5.2923    0.3036 C   0  0  0  0  0  0  0  0  0  0  0  0
    5.0547   -3.3575    1.6732 C   0  0  2  0  0  0  0  0  0  0  0  0
    5.3971   -3.0311    3.1555 C   0  0  0  0  0  0  0  0  0  0  0  0
    6.4131   -3.7406    1.0027 C   0  0  1  0  0  0  0  0  0  0  0  0
    6.9548   -5.0360    1.1141 O   0  0  0  0  0  0  0  0  0  0  0  0
    4.3600   -0.3308   -3.2206 H   0  0  0  0  0  0  0  0  0  0  0  0
    4.2555    0.1396   -1.5139 H   0  0  0  0  0  0  0  0  0  0  0  0
    3.1969   -1.1147   -2.1558 H   0  0  0  0  0  0  0  0  0  0  0  0
    6.2164   -1.3280   -2.2746 H   0  0  0  0  0  0  0  0  0  0  0  0
    7.5045   -3.0452   -0.7441 H   0  0  0  0  0  0  0  0  0  0  0  0
    6.4568   -1.0924   -0.0747 H   0  0  0  0  0  0  0  0  0  0  0  0
    4.2809   -0.6384    2.5923 H   0  0  0  0  0  0  0  0  0  0  0  0
    4.6263    0.1843    1.0856 H   0  0  0  0  0  0  0  0  0  0  0  0
    5.9287   -0.5375    1.9945 H   0  0  0  0  0  0  0  0  0  0  0  0
    2.9165   -0.9955    0.1574 H   0  0  0  0  0  0  0  0  0  0  0  0
    3.0075   -2.6149   -0.4073 H   0  0  0  0  0  0  0  0  0  0  0  0
    2.4919   -1.7852    2.4674 H   0  0  0  0  0  0  0  0  0  0  0  0
    1.2880   -2.1597    1.3132 H   0  0  0  0  0  0  0  0  0  0  0  0
    1.8169   -4.3910    1.1658 H   0  0  0  0  0  0  0  0  0  0  0  0
    1.2633   -3.6888    5.2376 H   0  0  0  0  0  0  0  0  0  0  0  0
    1.0514   -2.5525    3.9583 H   0  0  0  0  0  0  0  0  0  0  0  0
    2.6616   -2.8566    4.6171 H   0  0  0  0  0  0  0  0  0  0  0  0
    0.2066   -5.4912    4.2344 H   0  0  0  0  0  0  0  0  0  0  0  0
    0.1487   -5.4732    2.4308 H   0  0  0  0  0  0  0  0  0  0  0  0
    1.8617   -6.7879    2.1103 H   0  0  0  0  0  0  0  0  0  0  0  0
   -0.2867   -9.3555    3.6755 H   0  0  0  0  0  0  0  0  0  0  0  0
   -0.3641   -7.9636    2.6757 H   0  0  0  0  0  0  0  0  0  0  0  0
   -0.6535   -7.8029    4.3959 H   0  0  0  0  0  0  0  0  0  0  0  0
    2.0120   -9.2110    2.1330 H   0  0  0  0  0  0  0  0  0  0  0  0
    3.3649   -8.8136    3.1448 H   0  0  0  0  0  0  0  0  0  0  0  0
    1.2293  -10.9224    3.7159 H   0  0  0  0  0  0  0  0  0  0  0  0
    2.8864  -11.2029    3.3335 H   0  0  0  0  0  0  0  0  0  0  0  0
    2.3267  -11.4546    5.7638 H   0  0  0  0  0  0  0  0  0  0  0  0
    4.3599  -11.1468    5.1282 H   0  0  0  0  0  0  0  0  0  0  0  0
   -0.3350   -8.9995    6.5399 H   0  0  0  0  0  0  0  0  0  0  0  0
    0.2109  -10.5260    7.1718 H   0  0  0  0  0  0  0  0  0  0  0  0
   -0.0422  -10.3807    5.4814 H   0  0  0  0  0  0  0  0  0  0  0  0
    2.2280  -10.2544    8.1212 H   0  0  0  0  0  0  0  0  0  0  0  0
    3.4504   -9.1465    7.6241 H   0  0  0  0  0  0  0  0  0  0  0  0
    2.0172   -7.4530    8.0016 H   0  0  0  0  0  0  0  0  0  0  0  0
    1.1674   -7.3287    5.8974 H   0  0  0  0  0  0  0  0  0  0  0  0
    3.5885   -7.2645    6.6169 H   0  0  0  0  0  0  0  0  0  0  0  0
    4.0555   -7.8057    5.0320 H   0  0  0  0  0  0  0  0  0  0  0  0
    2.5581   -5.3088    5.7988 H   0  0  0  0  0  0  0  0  0  0  0  0
    4.2345   -5.3640    5.3333 H   0  0  0  0  0  0  0  0  0  0  0  0
    3.4979   -4.6792   -0.5239 H   0  0  0  0  0  0  0  0  0  0  0  0
    3.1273   -6.1262    0.3563 H   0  0  0  0  0  0  0  0  0  0  0  0
    4.7894   -5.7366    0.0338 H   0  0  0  0  0  0  0  0  0  0  0  0
    5.7966   -3.8907    3.6996 H   0  0  0  0  0  0  0  0  0  0  0  0
    4.5454   -2.6645    3.7119 H   0  0  0  0  0  0  0  0  0  0  0  0
    6.1733   -2.2731    3.2474 H   0  0  0  0  0  0  0  0  0  0  0  0
    7.1747   -3.1482    1.5161 H   0  0  0  0  0  0  0  0  0  0  0  0
    6.8696   -5.3246    2.0064 H   0  0  0  0  0  0  0  0  0  0  0  0
  1  2  1  0
  1 39  1  0
  1 40  1  0
  1 41  1  0
  2  7  1  0
  2  3  1  0
  2 42  1  6
  3  4  2  0
  3  5  1  0
  5  6  1  0
  6 37  1  0
  6  7  1  0
  6 43  1  6
  7  8  1  0
  7 44  1  1
  8 35  1  0
  8  9  1  1
  8 10  1  0
  9 45  1  0
  9 46  1  0
  9 47  1  0
 10 11  1  0
 10 48  1  0
 10 49  1  0
 11 12  1  0
 11 50  1  0
 11 51  1  0
 12 33  1  0
 12 13  1  0
 12 52  1  6
 13 30  1  0
 13 14  1  1
 13 15  1  0
 14 53  1  0
 14 54  1  0
 14 55  1  0
 15 16  1  0
 15 56  1  0
 15 57  1  0
 16 30  1  0
 16 17  1  0
 16 58  1  6
 17 27  1  0
 17 18  1  1
 17 19  1  0
 18 59  1  0
 18 60  1  0
 18 61  1  0
 19 20  1  0
 19 62  1  0
 19 63  1  0
 20 21  1  0
 20 64  1  0
 20 65  1  0
 21 22  1  0
 21 23  1  0
 21 66  1  1
 22 67  1  0
 23 24  1  1
 23 25  1  0
 23 27  1  0
 24 68  1  0
 24 69  1  0
 24 70  1  0
 25 26  1  0
 25 71  1  0
 25 72  1  0
 26 73  1  0
 27 28  1  0
 27 74  1  1
 28 29  1  0
 28 75  1  0
 28 76  1  0
 30 29  1  1
 29 77  1  0
 29 78  1  0
 30 31  1  0
 31 32  2  0
 31 33  1  0
 33 34  1  6
 33 35  1  0
 34 79  1  0
 34 80  1  0
 34 81  1  0
 35 36  1  1
 35 37  1  0
 36 82  1  0
 36 83  1  0
 36 84  1  0
 37 38  1  0
 37 85  1  1
 38 86  1  0
M  END
>  <i_m_ct_stereo_status>  (312) 
1

>  <s_m_source_file>  (312) 
/var/tmp/pbs.5076255.sched01/tmpvuzdko10/1206lwnzxed.sdf

>  <i_m_source_file_index>  (312) 
21

>  <i_lp_mmshare_version>  (312) 
48012

>  <i_f3d_flags>  (312) 
0

>  <s_epik_input>  (312) 
W0NIM11bQ0BASF0xQyg9TylPW0NASF0oW0NAQEhdMltPSF0pW0NAQEhdMVtDQEBdKFtDSDNdKShbQ0gyXVtDSDJdMylbQ0BAXTIoW0NIM10pW0NAXShDND1PKShbQ0gzXSlbQ0BIXTNbQ0BAXShbQ0BdNDU2KShbQ0gzXSlbQ0gyXVtDQEBIXTVbQ0BdNyhbQ0gzXSlbQ0BIXShbQ0gyXVtDSDJdNilbQ0BdKFtDSDNdKShbQ0gyXVtPSF0pW0NASF0oW09IXSlbQ0gyXVtDSDJdNw==

>  <s_epik_cmdline>  (312) 
J2VwaWtfcHl0aG9uJywgJy1waHQnLCAnMi4wJywgJy1waCcsICc3LjAnLCAnLXRuJywgJzgnLCAnLW1hJywgJzIwMCcsICctaW1hZScsICc8aW5maWxlLm1hZT4nLCAnLW9tYWUnLCAnPG91dGZpbGUubWFlPic=

>  <r_lp_tautomer_probability>  (312) 
1

>  <r_epik_Ionization_Penalty>  (312) 
1.74223e-06

>  <r_epik_Ionization_Penalty_Charging>  (312) 
0

>  <r_epik_Ionization_Penalty_Neutral>  (312) 
1.74223e-06

>  <r_epik_State_Penalty>  (312) 
-0

>  <r_epik_Charging_Adjusted_Penalty>  (312) 
0

>  <i_epik_Tot_Q>  (312) 
0

>  <i_epik_Tot_abs_Q>  (312) 
0

>  <s_epik_Chemistry_Notes>  (312) 
This compound has an ester and may undergo hydrolysis at high or low pH.

>  <s_lp_Force_Field>  (312) 
OPLS3e

>  <r_lp_Energy>  (312) 
119.558

>  <b_lp_Chiralities_Consistent>  (312) 
1

>  <s_lp_Variant>  (312) 
103:0-1

>  <s_i_glide_gridfile>  (312) 
pfpi4k_grid

>  <i_i_glide_lignum>  (312) 
21

>  <i_i_glide_rotatable_bonds>  (312) 
4

>  <r_i_docking_score>  (312) 
-2.64052

>  <r_i_glide_ligand_efficiency>  (312) 
-0.0694873

>  <r_i_glide_ligand_efficiency_sa>  (312) 
-0.233615

>  <r_i_glide_ligand_efficiency_ln>  (312) 
-0.569373

>  <r_i_glide_gscore>  (312) 
-2.64052

>  <r_i_glide_lipo>  (312) 
-0.409855

>  <r_i_glide_hbond>  (312) 
0

>  <r_i_glide_metal>  (312) 
-0

>  <r_i_glide_rewards>  (312) 
-0.703997

>  <r_i_glide_evdw>  (312) 
-27.7951

>  <r_i_glide_ecoul>  (312) 
-1.40407

>  <r_i_glide_erotb>  (312) 
0.0737027

>  <r_i_glide_esite>  (312) 
0

>  <r_i_glide_emodel>  (312) 
-38.1575

>  <r_i_glide_energy>  (312) 
-29.1992

>  <r_i_glide_einternal>  (312) 
0.750788

>  <r_i_glide_intrahb_reward>  (312) 
-0.5

>  <i_i_glide_confnum>  (312) 
4

>  <i_i_glide_posenum>  (312) 
18

>  <r_i_glide_eff_state_penalty>  (312) 
0

>  <ligand_id>  (312) 
103

>  <original_smiles>  (312) 
CC1C(=O)OC2C1C1(C)CCC3C4(C)CC5C6(C)CCC(O)C(C)(CO)C6CCC54C(=O)C3(C)C1(C)C2O

>  <smiles>  (312) 
[H]OC([H])([H])C1(C([H])([H])[H])C([H])(O[H])C([H])([H])C([H])([H])C2(C([H])([H])[H])C3([H])C([H])([H])C4(C([H])([H])[H])C5([H])C([H])([H])C([H])([H])C6(C([H])([H])[H])C7([H])C([H])(OC(=O)C7([H])C([H])([H])[H])C([H])(O[H])C6(C([H])([H])[H])C5(C([H])([H])[H])C(=O)C34C([H])([H])C([H])([H])C12[H]

$$$$
105:0:0
     RDKit          3D

 32 35  0  0  1  0  0  0  0  0999 V2000
    3.6193   -0.2992   -3.9956 C   0  0  0  0  0  0  0  0  0  0  0  0
    3.8671   -1.3809   -3.0110 C   0  0  0  0  0  0  0  0  0  0  0  0
    3.0602   -2.4408   -2.6988 C   0  0  0  0  0  0  0  0  0  0  0  0
    3.7832   -3.4559   -1.5021 S   0  0  0  0  0  0  0  0  0  0  0  0
    5.1527   -2.3734   -1.4261 C   0  0  0  0  0  0  0  0  0  0  0  0
    6.3000   -2.5354   -0.4761 C   0  0  1  0  0  0  0  0  0  0  0  0
    6.5323   -1.4995    0.6041 C   0  0  1  0  0  0  0  0  0  0  0  0
    5.4642   -0.5114    1.0176 C   0  0  0  0  0  0  0  0  0  0  0  0
    4.3894   -1.3252    1.5732 N   0  0  0  0  0  0  0  0  0  0  0  0
    3.1234   -0.8142    1.9128 C   0  0  0  0  0  0  0  0  0  0  0  0
    2.7901    0.5407    1.7121 C   0  0  0  0  0  0  0  0  0  0  0  0
    1.5023    0.9395    2.1110 C   0  0  0  0  0  0  0  0  0  0  0  0
    0.6429    0.0784    2.6889 N   0  0  0  0  0  0  0  0  0  0  0  0
    1.0623   -1.1751    2.8261 C   0  0  0  0  0  0  0  0  0  0  0  0
    2.2417   -1.6722    2.4684 N   0  0  0  0  0  0  0  0  0  0  0  0
    4.7246   -2.7445    1.6730 C   0  0  0  0  0  0  0  0  0  0  0  0
    6.0735   -2.8738    0.9902 C   0  0  1  0  0  0  0  0  0  0  0  0
    5.0595   -1.3609   -2.2934 N   0  0  0  0  0  0  0  0  0  0  0  0
    2.6534   -0.4119   -4.4959 H   0  0  0  0  0  0  0  0  0  0  0  0
    4.4016   -0.3079   -4.7499 H   0  0  0  0  0  0  0  0  0  0  0  0
    3.6439    0.6726   -3.5075 H   0  0  0  0  0  0  0  0  0  0  0  0
    2.0781   -2.6809   -3.0868 H   0  0  0  0  0  0  0  0  0  0  0  0
    7.1696   -2.9511   -0.9826 H   0  0  0  0  0  0  0  0  0  0  0  0
    7.5576   -1.2091    0.8265 H   0  0  0  0  0  0  0  0  0  0  0  0
    5.8388    0.1465    1.7987 H   0  0  0  0  0  0  0  0  0  0  0  0
    5.1444    0.0873    0.1629 H   0  0  0  0  0  0  0  0  0  0  0  0
    3.4781    1.2538    1.2920 H   0  0  0  0  0  0  0  0  0  0  0  0
    1.1630    1.9590    1.9953 H   0  0  0  0  0  0  0  0  0  0  0  0
    0.3621   -1.8641    3.2664 H   0  0  0  0  0  0  0  0  0  0  0  0
    4.7785   -3.0690    2.7141 H   0  0  0  0  0  0  0  0  0  0  0  0
    3.9798   -3.3665    1.1789 H   0  0  0  0  0  0  0  0  0  0  0  0
    6.7874   -3.5534    1.4514 H   0  0  0  0  0  0  0  0  0  0  0  0
  1  2  1  0
  1 19  1  0
  1 20  1  0
  1 21  1  0
  2 18  1  0
  2  3  2  0
  3  4  1  0
  3 22  1  0
  4  5  1  0
  5  6  1  0
  5 18  2  0
  6 17  1  0
  6  7  1  0
  6 23  1  6
  7 17  1  0
  7  8  1  0
  7 24  1  1
  8  9  1  0
  8 25  1  0
  8 26  1  0
  9 10  1  0
  9 16  1  0
 10 15  1  0
 10 11  2  0
 11 12  1  0
 11 27  1  0
 12 13  2  0
 12 28  1  0
 13 14  1  0
 14 15  2  0
 14 29  1  0
 16 17  1  0
 16 30  1  0
 16 31  1  0
 17 32  1  1
M  END
>  <i_m_ct_stereo_status>  (313) 
1

>  <s_m_source_file>  (313) 
/var/tmp/pbs.5076255.sched01/tmpvuzdko10/1206lwnzxed.sdf

>  <i_m_source_file_index>  (313) 
23

>  <i_lp_mmshare_version>  (313) 
48012

>  <i_f3d_flags>  (313) 
0

>  <s_epik_input>  (313) 
W0NIM11jMVtjSF1zYyhuMSlbQ0BIXTJbQ0BASF0oW0NASF0yMylbQ0gyXU4oW0NIMl0zKWM0W2NIXVtjSF1uW2NIXW40

>  <s_epik_cmdline>  (313) 
J2VwaWtfcHl0aG9uJywgJy1waHQnLCAnMi4wJywgJy1waCcsICc3LjAnLCAnLXRuJywgJzgnLCAnLW1hJywgJzIwMCcsICctaW1hZScsICc8aW5maWxlLm1hZT4nLCAnLW9tYWUnLCAnPG91dGZpbGUubWFlPic=

>  <r_lp_tautomer_probability>  (313) 
1

>  <r_epik_Ionization_Penalty>  (313) 
0.107336

>  <r_epik_Ionization_Penalty_Charging>  (313) 
0

>  <r_epik_Ionization_Penalty_Neutral>  (313) 
0.107336

>  <r_epik_State_Penalty>  (313) 
0.090644

>  <r_epik_Charging_Adjusted_Penalty>  (313) 
0.090644

>  <i_epik_Tot_Q>  (313) 
0

>  <i_epik_Tot_abs_Q>  (313) 
0

>  <s_lp_Force_Field>  (313) 
OPLS3e

>  <r_lp_Energy>  (313) 
16.8329

>  <b_lp_Chiralities_Consistent>  (313) 
1

>  <s_lp_Variant>  (313) 
105:0-1

>  <s_i_glide_gridfile>  (313) 
pfpi4k_grid

>  <i_i_glide_lignum>  (313) 
23

>  <i_i_glide_rotatable_bonds>  (313) 
2

>  <r_i_docking_score>  (313) 
-3.22458

>  <r_i_glide_ligand_efficiency>  (313) 
-0.179143

>  <r_i_glide_ligand_efficiency_sa>  (313) 
-0.469488

>  <r_i_glide_ligand_efficiency_ln>  (313) 
-0.828861

>  <r_i_glide_gscore>  (313) 
-3.22458

>  <r_i_glide_lipo>  (313) 
-0.595696

>  <r_i_glide_hbond>  (313) 
0

>  <r_i_glide_metal>  (313) 
-0

>  <r_i_glide_rewards>  (313) 
-1.66899

>  <r_i_glide_evdw>  (313) 
-25.7523

>  <r_i_glide_ecoul>  (313) 
-1.16734

>  <r_i_glide_erotb>  (313) 
0.529298

>  <r_i_glide_esite>  (313) 
-0.026481

>  <r_i_glide_emodel>  (313) 
-32.0951

>  <r_i_glide_energy>  (313) 
-26.9196

>  <r_i_glide_einternal>  (313) 
0.577902

>  <r_i_glide_intrahb_reward>  (313) 
-0

>  <i_i_glide_confnum>  (313) 
3

>  <i_i_glide_posenum>  (313) 
38

>  <r_i_glide_eff_state_penalty>  (313) 
0

>  <ligand_id>  (313) 
105

>  <original_smiles>  (313) 
Cc1csc(C2C3CN(c4ccncn4)CC32)n1

>  <smiles>  (313) 
[H]c1nc([H])c([H])c(N2C([H])([H])C3([H])C([H])(c4nc(C([H])([H])[H])c([H])s4)C3([H])C2([H])[H])n1

$$$$
105:0:1
     RDKit          3D

 32 35  0  0  1  0  0  0  0  0999 V2000
    3.5680   -0.2619   -4.0269 C   0  0  0  0  0  0  0  0  0  0  0  0
    3.8692   -1.3488   -3.0570 C   0  0  0  0  0  0  0  0  0  0  0  0
    3.1101   -2.4526   -2.7683 C   0  0  0  0  0  0  0  0  0  0  0  0
    3.8800   -3.4528   -1.5878 S   0  0  0  0  0  0  0  0  0  0  0  0
    5.1981   -2.3101   -1.4931 C   0  0  0  0  0  0  0  0  0  0  0  0
    6.3481   -2.4366   -0.5462 C   0  0  1  0  0  0  0  0  0  0  0  0
    6.5557   -1.3897    0.5382 C   0  0  1  0  0  0  0  0  0  0  0  0
    5.4589   -0.4292    0.9461 C   0  0  0  0  0  0  0  0  0  0  0  0
    4.4008   -1.2750    1.4784 N   0  0  0  0  0  0  0  0  0  0  0  0
    3.1546   -0.7770    1.8907 C   0  0  0  0  0  0  0  0  0  0  0  0
    2.2199   -1.6088    2.5308 C   0  0  0  0  0  0  0  0  0  0  0  0
    1.0212   -1.0109    2.9440 C   0  0  0  0  0  0  0  0  0  0  0  0
    0.7714    0.2946    2.7396 N   0  0  0  0  0  0  0  0  0  0  0  0
    1.7117    0.9858    2.0992 C   0  0  0  0  0  0  0  0  0  0  0  0
    2.8942    0.5338    1.6821 N   0  0  0  0  0  0  0  0  0  0  0  0
    4.7801   -2.6802    1.6015 C   0  0  0  0  0  0  0  0  0  0  0  0
    6.1339   -2.7738    0.9241 C   0  0  1  0  0  0  0  0  0  0  0  0
    5.0556   -1.2896   -2.3275 N   0  0  0  0  0  0  0  0  0  0  0  0
    2.6100   -0.4054   -4.5318 H   0  0  0  0  0  0  0  0  0  0  0  0
    4.3573   -0.2179   -4.7764 H   0  0  0  0  0  0  0  0  0  0  0  0
    3.5536    0.7012   -3.5173 H   0  0  0  0  0  0  0  0  0  0  0  0
    2.1491   -2.7310   -3.1642 H   0  0  0  0  0  0  0  0  0  0  0  0
    7.2306   -2.8329   -1.0501 H   0  0  0  0  0  0  0  0  0  0  0  0
    7.5770   -1.0735    0.7584 H   0  0  0  0  0  0  0  0  0  0  0  0
    5.8046    0.2440    1.7295 H   0  0  0  0  0  0  0  0  0  0  0  0
    5.1177    0.1436    0.0834 H   0  0  0  0  0  0  0  0  0  0  0  0
    2.3991   -2.6596    2.7021 H   0  0  0  0  0  0  0  0  0  0  0  0
    0.2566   -1.5771    3.4531 H   0  0  0  0  0  0  0  0  0  0  0  0
    1.5057    2.0335    1.9508 H   0  0  0  0  0  0  0  0  0  0  0  0
    4.8418   -2.9893    2.6461 H   0  0  0  0  0  0  0  0  0  0  0  0
    4.0565   -3.3283    1.1096 H   0  0  0  0  0  0  0  0  0  0  0  0
    6.8634   -3.4357    1.3917 H   0  0  0  0  0  0  0  0  0  0  0  0
  1  2  1  0
  1 19  1  0
  1 20  1  0
  1 21  1  0
  2 18  1  0
  2  3  2  0
  3  4  1  0
  3 22  1  0
  4  5  1  0
  5  6  1  0
  5 18  2  0
  6 17  1  0
  6  7  1  0
  6 23  1  6
  7 17  1  0
  7  8  1  0
  7 24  1  1
  8  9  1  0
  8 25  1  0
  8 26  1  0
  9 10  1  0
  9 16  1  0
 10 15  1  0
 10 11  2  0
 11 12  1  0
 11 27  1  0
 12 13  2  0
 12 28  1  0
 13 14  1  0
 14 15  2  0
 14 29  1  0
 16 17  1  0
 16 30  1  0
 16 31  1  0
 17 32  1  1
M  END
>  <i_m_ct_stereo_status>  (314) 
1

>  <s_m_source_file>  (314) 
/var/tmp/pbs.5076255.sched01/tmpvuzdko10/1206lwnzxed.sdf

>  <i_m_source_file_index>  (314) 
23

>  <i_lp_mmshare_version>  (314) 
48012

>  <i_f3d_flags>  (314) 
0

>  <s_epik_input>  (314) 
W0NIM11jMVtjSF1zYyhuMSlbQ0BIXTJbQ0BASF0oW0NASF0yMylbQ0gyXU4oW0NIMl0zKWM0W2NIXVtjSF1uW2NIXW40

>  <s_epik_cmdline>  (314) 
J2VwaWtfcHl0aG9uJywgJy1waHQnLCAnMi4wJywgJy1waCcsICc3LjAnLCAnLXRuJywgJzgnLCAnLW1hJywgJzIwMCcsICctaW1hZScsICc8aW5maWxlLm1hZT4nLCAnLW9tYWUnLCAnPG91dGZpbGUubWFlPic=

>  <r_lp_tautomer_probability>  (314) 
1

>  <r_epik_Ionization_Penalty>  (314) 
0.107336

>  <r_epik_Ionization_Penalty_Charging>  (314) 
0

>  <r_epik_Ionization_Penalty_Neutral>  (314) 
0.107336

>  <r_epik_State_Penalty>  (314) 
0.090644

>  <r_epik_Charging_Adjusted_Penalty>  (314) 
0.090644

>  <i_epik_Tot_Q>  (314) 
0

>  <i_epik_Tot_abs_Q>  (314) 
0

>  <s_lp_Force_Field>  (314) 
OPLS3e

>  <r_lp_Energy>  (314) 
16.8329

>  <b_lp_Chiralities_Consistent>  (314) 
1

>  <s_lp_Variant>  (314) 
105:0-1

>  <s_i_glide_gridfile>  (314) 
pfpi4k_grid

>  <i_i_glide_lignum>  (314) 
23

>  <i_i_glide_rotatable_bonds>  (314) 
2

>  <r_i_docking_score>  (314) 
-3.17607

>  <r_i_glide_ligand_efficiency>  (314) 
-0.176448

>  <r_i_glide_ligand_efficiency_sa>  (314) 
-0.462425

>  <r_i_glide_ligand_efficiency_ln>  (314) 
-0.816392

>  <r_i_glide_gscore>  (314) 
-3.17607

>  <r_i_glide_lipo>  (314) 
-0.531573

>  <r_i_glide_hbond>  (314) 
0

>  <r_i_glide_metal>  (314) 
-0

>  <r_i_glide_rewards>  (314) 
-1.67596

>  <r_i_glide_evdw>  (314) 
-26.0098

>  <r_i_glide_ecoul>  (314) 
-1.12892

>  <r_i_glide_erotb>  (314) 
0.529298

>  <r_i_glide_esite>  (314) 
-0.0280045

>  <r_i_glide_emodel>  (314) 
-32.3347

>  <r_i_glide_energy>  (314) 
-27.1387

>  <r_i_glide_einternal>  (314) 
0.364674

>  <r_i_glide_intrahb_reward>  (314) 
-0

>  <i_i_glide_confnum>  (314) 
3

>  <i_i_glide_posenum>  (314) 
5

>  <r_i_glide_eff_state_penalty>  (314) 
0

>  <ligand_id>  (314) 
105

>  <original_smiles>  (314) 
Cc1csc(C2C3CN(c4ccncn4)CC32)n1

>  <smiles>  (314) 
[H]c1nc([H])c([H])c(N2C([H])([H])C3([H])C([H])(c4nc(C([H])([H])[H])c([H])s4)C3([H])C2([H])[H])n1

$$$$
105:0:2
     RDKit          3D

 32 35  0  0  1  0  0  0  0  0999 V2000
    1.9627   -3.4320   -3.4552 C   0  0  0  0  0  0  0  0  0  0  0  0
    3.0743   -2.5983   -2.9681 C   0  0  0  0  0  0  0  0  0  0  0  0
    3.2325   -1.2584   -3.1738 C   0  0  0  0  0  0  0  0  0  0  0  0
    4.6066   -0.6638   -2.3204 S   0  0  0  0  0  0  0  0  0  0  0  0
    4.9548   -2.2866   -1.7632 C   0  0  0  0  0  0  0  0  0  0  0  0
    6.0876   -2.6455   -0.8547 C   0  0  1  0  0  0  0  0  0  0  0  0
    6.4372   -1.7917    0.3533 C   0  0  1  0  0  0  0  0  0  0  0  0
    5.4974   -0.7463    0.9203 C   0  0  0  0  0  0  0  0  0  0  0  0
    4.3103   -1.4980    1.3275 N   0  0  0  0  0  0  0  0  0  0  0  0
    3.1429   -0.8872    1.8112 C   0  0  0  0  0  0  0  0  0  0  0  0
    2.1292   -1.6394    2.4385 C   0  0  0  0  0  0  0  0  0  0  0  0
    1.0261   -0.9206    2.9233 C   0  0  0  0  0  0  0  0  0  0  0  0
    0.9304    0.4128    2.7902 N   0  0  0  0  0  0  0  0  0  0  0  0
    1.9313    1.0228    2.1618 C   0  0  0  0  0  0  0  0  0  0  0  0
    3.0362    0.4543    1.6863 N   0  0  0  0  0  0  0  0  0  0  0  0
    4.4692   -2.9490    1.2293 C   0  0  0  0  0  0  0  0  0  0  0  0
    5.8082   -3.1396    0.5533 C   0  0  1  0  0  0  0  0  0  0  0  0
    4.0822   -3.1861   -2.2137 N   0  0  0  0  0  0  0  0  0  0  0  0
    1.2715   -2.8625   -4.0821 H   0  0  0  0  0  0  0  0  0  0  0  0
    1.4154   -3.8335   -2.6018 H   0  0  0  0  0  0  0  0  0  0  0  0
    2.3631   -4.2556   -4.0407 H   0  0  0  0  0  0  0  0  0  0  0  0
    2.6029   -0.5769   -3.7198 H   0  0  0  0  0  0  0  0  0  0  0  0
    6.8835   -3.1346   -1.4129 H   0  0  0  0  0  0  0  0  0  0  0  0
    7.4941   -1.6741    0.5876 H   0  0  0  0  0  0  0  0  0  0  0  0
    5.9490   -0.2417    1.7748 H   0  0  0  0  0  0  0  0  0  0  0  0
    5.2616    0.0167    0.1789 H   0  0  0  0  0  0  0  0  0  0  0  0
    2.1860   -2.7093    2.5488 H   0  0  0  0  0  0  0  0  0  0  0  0
    0.2102   -1.4146    3.4302 H   0  0  0  0  0  0  0  0  0  0  0  0
    1.8519    2.0890    2.0664 H   0  0  0  0  0  0  0  0  0  0  0  0
    4.4620   -3.4041    2.2223 H   0  0  0  0  0  0  0  0  0  0  0  0
    3.6767   -3.4069    0.6341 H   0  0  0  0  0  0  0  0  0  0  0  0
    6.4182   -3.9581    0.9325 H   0  0  0  0  0  0  0  0  0  0  0  0
  1  2  1  0
  1 19  1  0
  1 20  1  0
  1 21  1  0
  2 18  1  0
  2  3  2  0
  3  4  1  0
  3 22  1  0
  4  5  1  0
  5  6  1  0
  5 18  2  0
  6 17  1  0
  6  7  1  0
  6 23  1  6
  7 17  1  0
  7  8  1  0
  7 24  1  1
  8  9  1  0
  8 25  1  0
  8 26  1  0
  9 10  1  0
  9 16  1  0
 10 15  1  0
 10 11  2  0
 11 12  1  0
 11 27  1  0
 12 13  2  0
 12 28  1  0
 13 14  1  0
 14 15  2  0
 14 29  1  0
 16 17  1  0
 16 30  1  0
 16 31  1  0
 17 32  1  1
M  END
>  <i_m_ct_stereo_status>  (315) 
1

>  <s_m_source_file>  (315) 
/var/tmp/pbs.5076255.sched01/tmpvuzdko10/1206lwnzxed.sdf

>  <i_m_source_file_index>  (315) 
23

>  <i_lp_mmshare_version>  (315) 
48012

>  <i_f3d_flags>  (315) 
0

>  <s_epik_input>  (315) 
W0NIM11jMVtjSF1zYyhuMSlbQ0BIXTJbQ0BASF0oW0NASF0yMylbQ0gyXU4oW0NIMl0zKWM0W2NIXVtjSF1uW2NIXW40

>  <s_epik_cmdline>  (315) 
J2VwaWtfcHl0aG9uJywgJy1waHQnLCAnMi4wJywgJy1waCcsICc3LjAnLCAnLXRuJywgJzgnLCAnLW1hJywgJzIwMCcsICctaW1hZScsICc8aW5maWxlLm1hZT4nLCAnLW9tYWUnLCAnPG91dGZpbGUubWFlPic=

>  <r_lp_tautomer_probability>  (315) 
1

>  <r_epik_Ionization_Penalty>  (315) 
0.107336

>  <r_epik_Ionization_Penalty_Charging>  (315) 
0

>  <r_epik_Ionization_Penalty_Neutral>  (315) 
0.107336

>  <r_epik_State_Penalty>  (315) 
0.090644

>  <r_epik_Charging_Adjusted_Penalty>  (315) 
0.090644

>  <i_epik_Tot_Q>  (315) 
0

>  <i_epik_Tot_abs_Q>  (315) 
0

>  <s_lp_Force_Field>  (315) 
OPLS3e

>  <r_lp_Energy>  (315) 
16.8329

>  <b_lp_Chiralities_Consistent>  (315) 
1

>  <s_lp_Variant>  (315) 
105:0-1

>  <s_i_glide_gridfile>  (315) 
pfpi4k_grid

>  <i_i_glide_lignum>  (315) 
23

>  <i_i_glide_rotatable_bonds>  (315) 
2

>  <r_i_docking_score>  (315) 
-2.94362

>  <r_i_glide_ligand_efficiency>  (315) 
-0.163534

>  <r_i_glide_ligand_efficiency_sa>  (315) 
-0.428581

>  <r_i_glide_ligand_efficiency_ln>  (315) 
-0.756642

>  <r_i_glide_gscore>  (315) 
-2.94362

>  <r_i_glide_lipo>  (315) 
-0.457064

>  <r_i_glide_hbond>  (315) 
0

>  <r_i_glide_metal>  (315) 
-0

>  <r_i_glide_rewards>  (315) 
-1.64766

>  <r_i_glide_evdw>  (315) 
-24.8242

>  <r_i_glide_ecoul>  (315) 
-0.740554

>  <r_i_glide_erotb>  (315) 
0.529298

>  <r_i_glide_esite>  (315) 
-0.0159008

>  <r_i_glide_emodel>  (315) 
-30.2723

>  <r_i_glide_energy>  (315) 
-25.5647

>  <r_i_glide_einternal>  (315) 
0.529496

>  <r_i_glide_intrahb_reward>  (315) 
-0

>  <i_i_glide_confnum>  (315) 
2

>  <i_i_glide_posenum>  (315) 
22

>  <r_i_glide_eff_state_penalty>  (315) 
0

>  <ligand_id>  (315) 
105

>  <original_smiles>  (315) 
Cc1csc(C2C3CN(c4ccncn4)CC32)n1

>  <smiles>  (315) 
[H]c1nc([H])c([H])c(N2C([H])([H])C3([H])C([H])(c4nc(C([H])([H])[H])c([H])s4)C3([H])C2([H])[H])n1

$$$$
105:1:0
     RDKit          3D

 33 36  0  0  1  0  0  0  0  0999 V2000
    4.5967    7.0184    3.0687 C   0  0  0  0  0  0  0  0  0  0  0  0
    3.5464    6.6075    4.0483 C   0  0  0  0  0  0  0  0  0  0  0  0
    2.2238    6.9626    4.0669 C   0  0  0  0  0  0  0  0  0  0  0  0
    1.3860    6.3156    5.4441 S   0  0  0  0  0  0  0  0  0  0  0  0
    2.8715    5.4849    5.8981 C   0  0  0  0  0  0  0  0  0  0  0  0
    2.9824    4.5468    7.0534 C   0  0  1  0  0  0  0  0  0  0  0  0
    1.9616    3.4464    7.2724 C   0  0  1  0  0  0  0  0  0  0  0  0
    0.9942    2.9998    6.1936 C   0  0  0  0  0  0  0  0  0  0  0  0
    1.8392    2.4923    5.1140 N   0  0  0  0  0  0  0  0  0  0  0  0
    1.3299    2.0817    3.8684 C   0  0  0  0  0  0  0  0  0  0  0  0
    2.1495    1.4864    2.8959 C   0  0  0  0  0  0  0  0  0  0  0  0
    1.5281    1.0661    1.7069 C   0  0  0  0  0  0  0  0  0  0  0  0
    0.2027    1.2561    1.5252 N   0  0  0  0  0  0  0  0  0  0  0  0
   -0.5178    1.8490    2.4826 C   0  0  0  0  0  0  0  0  0  0  0  0
    0.0081    2.2416    3.6481 N   0  0  0  0  0  0  0  0  0  0  0  0
    3.2566    2.4317    5.4661 C   0  0  0  0  0  0  0  0  0  0  0  0
    3.3482    3.0919    6.8262 C   0  0  1  0  0  0  0  0  0  0  0  0
    3.9063    5.7772    5.1062 N   0  0  0  0  0  0  0  0  0  0  0  0
    4.2171    7.7178    2.3261 H   0  0  0  0  0  0  0  0  0  0  0  0
    4.9986    6.1568    2.5400 H   0  0  0  0  0  0  0  0  0  0  0  0
    5.4127    7.5098    3.5928 H   0  0  0  0  0  0  0  0  0  0  0  0
    1.6944    7.5848    3.3598 H   0  0  0  0  0  0  0  0  0  0  0  0
    3.4143    5.0529    7.9124 H   0  0  0  0  0  0  0  0  0  0  0  0
    1.6768    3.2483    8.3042 H   0  0  0  0  0  0  0  0  0  0  0  0
    0.3296    2.2237    6.5760 H   0  0  0  0  0  0  0  0  0  0  0  0
    0.3724    3.8335    5.8676 H   0  0  0  0  0  0  0  0  0  0  0  0
    3.2130    1.3535    3.0455 H   0  0  0  0  0  0  0  0  0  0  0  0
    2.0479    0.5875    0.8899 H   0  0  0  0  0  0  0  0  0  0  0  0
   -1.5690    1.9871    2.2907 H   0  0  0  0  0  0  0  0  0  0  0  0
    3.5931    1.3940    5.5193 H   0  0  0  0  0  0  0  0  0  0  0  0
    3.8825    2.9639    4.7481 H   0  0  0  0  0  0  0  0  0  0  0  0
    4.0257    2.6241    7.5392 H   0  0  0  0  0  0  0  0  0  0  0  0
   -0.2334    0.9533    0.6392 H   0  0  0  0  0  0  0  0  0  0  0  0
  1  2  1  0
  1 19  1  0
  1 20  1  0
  1 21  1  0
  2 18  1  0
  2  3  2  0
  3  4  1  0
  3 22  1  0
  4  5  1  0
  5  6  1  0
  5 18  2  0
  6 17  1  0
  6  7  1  0
  6 23  1  1
  7 17  1  0
  7  8  1  0
  7 24  1  1
  8  9  1  0
  8 25  1  0
  8 26  1  0
  9 10  1  0
  9 16  1  0
 10 15  1  0
 10 11  2  0
 11 12  1  0
 11 27  1  0
 12 13  2  0
 12 28  1  0
 13 14  1  0
 13 33  1  0
 14 15  2  0
 14 29  1  0
 16 17  1  0
 16 30  1  0
 16 31  1  0
 17 32  1  1
M  CHG  1  13   1
M  END
>  <i_m_ct_stereo_status>  (316) 
1

>  <s_m_source_file>  (316) 
/var/tmp/pbs.5076255.sched01/tmpvuzdko10/1206lwnzxed.sdf

>  <i_m_source_file_index>  (316) 
24

>  <i_lp_mmshare_version>  (316) 
48012

>  <i_f3d_flags>  (316) 
0

>  <s_epik_input>  (316) 
W0NIM11jMVtjSF1zYyhuMSlbQ0BIXTJbQ0BASF0oW0NASF0yMylbQ0gyXU4oW0NIMl0zKWM0W2NIXVtjSF1uW2NIXW40

>  <s_epik_cmdline>  (316) 
J2VwaWtfcHl0aG9uJywgJy1waHQnLCAnMi4wJywgJy1waCcsICc3LjAnLCAnLXRuJywgJzgnLCAnLW1hJywgJzIwMCcsICctaW1hZScsICc8aW5maWxlLm1hZT4nLCAnLW9tYWUnLCAnPG91dGZpbGUubWFlPic=

>  <r_lp_tautomer_probability>  (316) 
0.999336

>  <r_epik_Ionization_Penalty>  (316) 
1.10529

>  <r_epik_Ionization_Penalty_Charging>  (316) 
1.10002

>  <r_epik_Ionization_Penalty_Neutral>  (316) 
0.00527235

>  <r_epik_State_Penalty>  (316) 
1.15707

>  <r_epik_Charging_Adjusted_Penalty>  (316) 
2.25708

>  <i_epik_Tot_Q>  (316) 
1

>  <i_epik_Tot_abs_Q>  (316) 
1

>  <s_lp_Force_Field>  (316) 
OPLS3e

>  <r_lp_Energy>  (316) 
19.1588

>  <b_lp_Chiralities_Consistent>  (316) 
1

>  <s_lp_Variant>  (316) 
105:0-2

>  <s_i_glide_gridfile>  (316) 
pfpi4k_grid

>  <i_i_glide_lignum>  (316) 
24

>  <i_i_glide_rotatable_bonds>  (316) 
2

>  <r_i_docking_score>  (316) 
-3.25534

>  <r_i_glide_ligand_efficiency>  (316) 
-0.180852

>  <r_i_glide_ligand_efficiency_sa>  (316) 
-0.473967

>  <r_i_glide_ligand_efficiency_ln>  (316) 
-0.836769

>  <r_i_glide_gscore>  (316) 
-3.25534

>  <r_i_glide_lipo>  (316) 
-0.131831

>  <r_i_glide_hbond>  (316) 
-0.2

>  <r_i_glide_metal>  (316) 
-0

>  <r_i_glide_rewards>  (316) 
-1.64079

>  <r_i_glide_evdw>  (316) 
-13.3527

>  <r_i_glide_ecoul>  (316) 
-6.46459

>  <r_i_glide_erotb>  (316) 
0.525762

>  <r_i_glide_esite>  (316) 
-0.171162

>  <r_i_glide_emodel>  (316) 
-25.9057

>  <r_i_glide_energy>  (316) 
-19.8173

>  <r_i_glide_einternal>  (316) 
0.455925

>  <r_i_glide_intrahb_reward>  (316) 
-0

>  <i_i_glide_confnum>  (316) 
1

>  <i_i_glide_posenum>  (316) 
34

>  <r_i_glide_eff_state_penalty>  (316) 
0

>  <ligand_id>  (316) 
105

>  <original_smiles>  (316) 
Cc1csc(C2C3CN(c4ccncn4)CC32)n1

>  <smiles>  (316) 
[H]c1sc(C2([H])C3([H])C([H])([H])N(c4nc([H])[n+]([H])c([H])c4[H])C([H])([H])C23[H])nc1C([H])([H])[H]

$$$$
105:1:1
     RDKit          3D

 33 36  0  0  1  0  0  0  0  0999 V2000
    1.0683    6.8443    4.1200 C   0  0  0  0  0  0  0  0  0  0  0  0
    1.0848    5.8395    5.2255 C   0  0  0  0  0  0  0  0  0  0  0  0
    2.1755    5.2214    5.7772 C   0  0  0  0  0  0  0  0  0  0  0  0
    1.7257    4.1352    7.0534 S   0  0  0  0  0  0  0  0  0  0  0  0
    0.0411    4.5338    6.7472 C   0  0  0  0  0  0  0  0  0  0  0  0
   -1.1119    3.8777    7.4338 C   0  0  1  0  0  0  0  0  0  0  0  0
   -2.1909    3.1762    6.6199 C   0  0  1  0  0  0  0  0  0  0  0  0
   -1.9909    2.7937    5.1645 C   0  0  0  0  0  0  0  0  0  0  0  0
   -0.9005    1.8198    5.1880 N   0  0  0  0  0  0  0  0  0  0  0  0
   -0.3242    1.2891    4.0190 C   0  0  0  0  0  0  0  0  0  0  0  0
    0.5921    0.2220    4.0709 C   0  0  0  0  0  0  0  0  0  0  0  0
    1.0834   -0.2535    2.8398 C   0  0  0  0  0  0  0  0  0  0  0  0
    0.6908    0.3157    1.6838 N   0  0  0  0  0  0  0  0  0  0  0  0
   -0.1559    1.3479    1.7141 C   0  0  0  0  0  0  0  0  0  0  0  0
   -0.6921    1.8214    2.8439 N   0  0  0  0  0  0  0  0  0  0  0  0
   -0.4545    1.4662    6.5296 C   0  0  0  0  0  0  0  0  0  0  0  0
   -1.2452    2.3665    7.4555 C   0  0  1  0  0  0  0  0  0  0  0  0
   -0.1193    5.4659    5.8120 N   0  0  0  0  0  0  0  0  0  0  0  0
    2.0667    7.0774    3.7407 H   0  0  0  0  0  0  0  0  0  0  0  0
    0.6205    7.7717    4.4721 H   0  0  0  0  0  0  0  0  0  0  0  0
    0.4692    6.4857    3.2845 H   0  0  0  0  0  0  0  0  0  0  0  0
    3.2176    5.3412    5.5215 H   0  0  0  0  0  0  0  0  0  0  0  0
   -1.4184    4.4519    8.3057 H   0  0  0  0  0  0  0  0  0  0  0  0
   -3.2231    3.2843    6.9546 H   0  0  0  0  0  0  0  0  0  0  0  0
   -2.8951    2.3367    4.7533 H   0  0  0  0  0  0  0  0  0  0  0  0
   -1.7552    3.6789    4.5677 H   0  0  0  0  0  0  0  0  0  0  0  0
    0.8920   -0.2285    5.0019 H   0  0  0  0  0  0  0  0  0  0  0  0
    1.7531   -1.0926    2.7459 H   0  0  0  0  0  0  0  0  0  0  0  0
   -0.4478    1.7507    0.7646 H   0  0  0  0  0  0  0  0  0  0  0  0
   -0.6656    0.4171    6.7436 H   0  0  0  0  0  0  0  0  0  0  0  0
    0.6172    1.6284    6.6576 H   0  0  0  0  0  0  0  0  0  0  0  0
   -1.6063    1.9219    8.3815 H   0  0  0  0  0  0  0  0  0  0  0  0
    0.9811   -0.0695    0.7625 H   0  0  0  0  0  0  0  0  0  0  0  0
  1  2  1  0
  1 19  1  0
  1 20  1  0
  1 21  1  0
  2 18  1  0
  2  3  2  0
  3  4  1  0
  3 22  1  0
  4  5  1  0
  5  6  1  0
  5 18  2  0
  6 17  1  0
  6  7  1  0
  6 23  1  1
  7 17  1  0
  7  8  1  0
  7 24  1  1
  8  9  1  0
  8 25  1  0
  8 26  1  0
  9 10  1  0
  9 16  1  0
 10 15  1  0
 10 11  2  0
 11 12  1  0
 11 27  1  0
 12 13  2  0
 12 28  1  0
 13 14  1  0
 13 33  1  0
 14 15  2  0
 14 29  1  0
 16 17  1  0
 16 30  1  0
 16 31  1  0
 17 32  1  1
M  CHG  1  13   1
M  END
>  <i_m_ct_stereo_status>  (317) 
1

>  <s_m_source_file>  (317) 
/var/tmp/pbs.5076255.sched01/tmpvuzdko10/1206lwnzxed.sdf

>  <i_m_source_file_index>  (317) 
24

>  <i_lp_mmshare_version>  (317) 
48012

>  <i_f3d_flags>  (317) 
0

>  <s_epik_input>  (317) 
W0NIM11jMVtjSF1zYyhuMSlbQ0BIXTJbQ0BASF0oW0NASF0yMylbQ0gyXU4oW0NIMl0zKWM0W2NIXVtjSF1uW2NIXW40

>  <s_epik_cmdline>  (317) 
J2VwaWtfcHl0aG9uJywgJy1waHQnLCAnMi4wJywgJy1waCcsICc3LjAnLCAnLXRuJywgJzgnLCAnLW1hJywgJzIwMCcsICctaW1hZScsICc8aW5maWxlLm1hZT4nLCAnLW9tYWUnLCAnPG91dGZpbGUubWFlPic=

>  <r_lp_tautomer_probability>  (317) 
0.999336

>  <r_epik_Ionization_Penalty>  (317) 
1.10529

>  <r_epik_Ionization_Penalty_Charging>  (317) 
1.10002

>  <r_epik_Ionization_Penalty_Neutral>  (317) 
0.00527235

>  <r_epik_State_Penalty>  (317) 
1.15707

>  <r_epik_Charging_Adjusted_Penalty>  (317) 
2.25708

>  <i_epik_Tot_Q>  (317) 
1

>  <i_epik_Tot_abs_Q>  (317) 
1

>  <s_lp_Force_Field>  (317) 
OPLS3e

>  <r_lp_Energy>  (317) 
19.1588

>  <b_lp_Chiralities_Consistent>  (317) 
1

>  <s_lp_Variant>  (317) 
105:0-2

>  <s_i_glide_gridfile>  (317) 
pfpi4k_grid

>  <i_i_glide_lignum>  (317) 
24

>  <i_i_glide_rotatable_bonds>  (317) 
2

>  <r_i_docking_score>  (317) 
-3.17375

>  <r_i_glide_ligand_efficiency>  (317) 
-0.176319

>  <r_i_glide_ligand_efficiency_sa>  (317) 
-0.462088

>  <r_i_glide_ligand_efficiency_ln>  (317) 
-0.815796

>  <r_i_glide_gscore>  (317) 
-3.17375

>  <r_i_glide_lipo>  (317) 
-0.106701

>  <r_i_glide_hbond>  (317) 
-0.2

>  <r_i_glide_metal>  (317) 
-0

>  <r_i_glide_rewards>  (317) 
-1.64079

>  <r_i_glide_evdw>  (317) 
-12.1664

>  <r_i_glide_ecoul>  (317) 
-6.30228

>  <r_i_glide_erotb>  (317) 
0.525762

>  <r_i_glide_esite>  (317) 
-0.19836

>  <r_i_glide_emodel>  (317) 
-24.4468

>  <r_i_glide_energy>  (317) 
-18.4687

>  <r_i_glide_einternal>  (317) 
0.257124

>  <r_i_glide_intrahb_reward>  (317) 
-0

>  <i_i_glide_confnum>  (317) 
3

>  <i_i_glide_posenum>  (317) 
1

>  <r_i_glide_eff_state_penalty>  (317) 
0

>  <ligand_id>  (317) 
105

>  <original_smiles>  (317) 
Cc1csc(C2C3CN(c4ccncn4)CC32)n1

>  <smiles>  (317) 
[H]c1sc(C2([H])C3([H])C([H])([H])N(c4nc([H])[n+]([H])c([H])c4[H])C([H])([H])C23[H])nc1C([H])([H])[H]

$$$$
105:1:2
     RDKit          3D

 33 36  0  0  1  0  0  0  0  0999 V2000
    1.0225    6.8102    4.1600 C   0  0  0  0  0  0  0  0  0  0  0  0
    1.0258    5.8392    5.2898 C   0  0  0  0  0  0  0  0  0  0  0  0
    2.1017    5.2339    5.8868 C   0  0  0  0  0  0  0  0  0  0  0  0
    1.6212    4.1651    7.1746 S   0  0  0  0  0  0  0  0  0  0  0  0
   -0.0575    4.5581    6.8206 C   0  0  0  0  0  0  0  0  0  0  0  0
   -1.2273    3.9190    7.4933 C   0  0  1  0  0  0  0  0  0  0  0  0
   -2.3039    3.2298    6.6714 C   0  0  1  0  0  0  0  0  0  0  0  0
   -2.0909    2.8609    5.2171 C   0  0  0  0  0  0  0  0  0  0  0  0
   -1.0271    1.8615    5.2339 N   0  0  0  0  0  0  0  0  0  0  0  0
   -0.4300    1.3621    4.0611 C   0  0  0  0  0  0  0  0  0  0  0  0
   -0.6926    1.9268    2.8049 C   0  0  0  0  0  0  0  0  0  0  0  0
   -0.0543    1.3576    1.6944 C   0  0  0  0  0  0  0  0  0  0  0  0
    0.7644    0.2902    1.8458 N   0  0  0  0  0  0  0  0  0  0  0  0
    0.9832   -0.1939    3.0725 C   0  0  0  0  0  0  0  0  0  0  0  0
    0.4078    0.3101    4.1721 N   0  0  0  0  0  0  0  0  0  0  0  0
   -0.5915    1.4973    6.5796 C   0  0  0  0  0  0  0  0  0  0  0  0
   -1.3777    2.4058    7.5071 C   0  0  1  0  0  0  0  0  0  0  0  0
   -0.1918    5.4742    5.8589 N   0  0  0  0  0  0  0  0  0  0  0  0
    2.0258    7.0382    3.7982 H   0  0  0  0  0  0  0  0  0  0  0  0
    0.5619    7.7453    4.4744 H   0  0  0  0  0  0  0  0  0  0  0  0
    0.4459    6.4268    3.3184 H   0  0  0  0  0  0  0  0  0  0  0  0
    3.1477    5.3543    5.6510 H   0  0  0  0  0  0  0  0  0  0  0  0
   -1.5324    4.4899    8.3685 H   0  0  0  0  0  0  0  0  0  0  0  0
   -3.3387    3.3428    6.9938 H   0  0  0  0  0  0  0  0  0  0  0  0
   -2.9867    2.4171    4.7848 H   0  0  0  0  0  0  0  0  0  0  0  0
   -1.8423    3.7489    4.6345 H   0  0  0  0  0  0  0  0  0  0  0  0
   -1.3359    2.7843    2.6599 H   0  0  0  0  0  0  0  0  0  0  0  0
   -0.1859    1.7355    0.6929 H   0  0  0  0  0  0  0  0  0  0  0  0
    1.6320   -1.0538    3.1585 H   0  0  0  0  0  0  0  0  0  0  0  0
   -0.8157    0.4519    6.7876 H   0  0  0  0  0  0  0  0  0  0  0  0
    0.4791    1.6503    6.7133 H   0  0  0  0  0  0  0  0  0  0  0  0
   -1.7560    1.9625    8.4264 H   0  0  0  0  0  0  0  0  0  0  0  0
    1.1716   -0.1347    1.0027 H   0  0  0  0  0  0  0  0  0  0  0  0
  1  2  1  0
  1 19  1  0
  1 20  1  0
  1 21  1  0
  2 18  1  0
  2  3  2  0
  3  4  1  0
  3 22  1  0
  4  5  1  0
  5  6  1  0
  5 18  2  0
  6 17  1  0
  6  7  1  0
  6 23  1  1
  7 17  1  0
  7  8  1  0
  7 24  1  1
  8  9  1  0
  8 25  1  0
  8 26  1  0
  9 10  1  0
  9 16  1  0
 10 15  1  0
 10 11  2  0
 11 12  1  0
 11 27  1  0
 12 13  2  0
 12 28  1  0
 13 14  1  0
 13 33  1  0
 14 15  2  0
 14 29  1  0
 16 17  1  0
 16 30  1  0
 16 31  1  0
 17 32  1  1
M  CHG  1  13   1
M  END
>  <i_m_ct_stereo_status>  (318) 
1

>  <s_m_source_file>  (318) 
/var/tmp/pbs.5076255.sched01/tmpvuzdko10/1206lwnzxed.sdf

>  <i_m_source_file_index>  (318) 
24

>  <i_lp_mmshare_version>  (318) 
48012

>  <i_f3d_flags>  (318) 
0

>  <s_epik_input>  (318) 
W0NIM11jMVtjSF1zYyhuMSlbQ0BIXTJbQ0BASF0oW0NASF0yMylbQ0gyXU4oW0NIMl0zKWM0W2NIXVtjSF1uW2NIXW40

>  <s_epik_cmdline>  (318) 
J2VwaWtfcHl0aG9uJywgJy1waHQnLCAnMi4wJywgJy1waCcsICc3LjAnLCAnLXRuJywgJzgnLCAnLW1hJywgJzIwMCcsICctaW1hZScsICc8aW5maWxlLm1hZT4nLCAnLW9tYWUnLCAnPG91dGZpbGUubWFlPic=

>  <r_lp_tautomer_probability>  (318) 
0.999336

>  <r_epik_Ionization_Penalty>  (318) 
1.10529

>  <r_epik_Ionization_Penalty_Charging>  (318) 
1.10002

>  <r_epik_Ionization_Penalty_Neutral>  (318) 
0.00527235

>  <r_epik_State_Penalty>  (318) 
1.15707

>  <r_epik_Charging_Adjusted_Penalty>  (318) 
2.25708

>  <i_epik_Tot_Q>  (318) 
1

>  <i_epik_Tot_abs_Q>  (318) 
1

>  <s_lp_Force_Field>  (318) 
OPLS3e

>  <r_lp_Energy>  (318) 
19.1588

>  <b_lp_Chiralities_Consistent>  (318) 
1

>  <s_lp_Variant>  (318) 
105:0-2

>  <s_i_glide_gridfile>  (318) 
pfpi4k_grid

>  <i_i_glide_lignum>  (318) 
24

>  <i_i_glide_rotatable_bonds>  (318) 
2

>  <r_i_docking_score>  (318) 
-3.1208

>  <r_i_glide_ligand_efficiency>  (318) 
-0.173378

>  <r_i_glide_ligand_efficiency_sa>  (318) 
-0.454378

>  <r_i_glide_ligand_efficiency_ln>  (318) 
-0.802186

>  <r_i_glide_gscore>  (318) 
-3.1208

>  <r_i_glide_lipo>  (318) 
-0.111738

>  <r_i_glide_hbond>  (318) 
-0.169669

>  <r_i_glide_metal>  (318) 
-0

>  <r_i_glide_rewards>  (318) 
-1.64079

>  <r_i_glide_evdw>  (318) 
-13.5855

>  <r_i_glide_ecoul>  (318) 
-6.17027

>  <r_i_glide_erotb>  (318) 
0.525762

>  <r_i_glide_esite>  (318) 
-0.119552

>  <r_i_glide_emodel>  (318) 
-25.6016

>  <r_i_glide_energy>  (318) 
-19.7558

>  <r_i_glide_einternal>  (318) 
0.383176

>  <r_i_glide_intrahb_reward>  (318) 
-0

>  <i_i_glide_confnum>  (318) 
3

>  <i_i_glide_posenum>  (318) 
19

>  <r_i_glide_eff_state_penalty>  (318) 
0

>  <ligand_id>  (318) 
105

>  <original_smiles>  (318) 
Cc1csc(C2C3CN(c4ccncn4)CC32)n1

>  <smiles>  (318) 
[H]c1sc(C2([H])C3([H])C([H])([H])N(c4nc([H])[n+]([H])c([H])c4[H])C([H])([H])C23[H])nc1C([H])([H])[H]

$$$$
106:0:0
     RDKit          3D

 38 41  0  0  1  0  0  0  0  0999 V2000
    2.1022   -2.0314    2.8885 C   0  0  0  0  0  0  0  0  0  0  0  0
    2.5692   -3.2285    3.3833 C   0  0  0  0  0  0  0  0  0  0  0  0
    3.1206   -3.9053    2.3197 N   0  0  0  0  0  0  0  0  0  0  0  0
    2.9820   -3.1796    1.1948 C   0  0  0  0  0  0  0  0  0  0  0  0
    2.3658   -2.0375    1.5421 N   0  0  0  0  0  0  0  0  0  0  0  0
    3.4646   -3.6008   -0.1643 C   0  0  1  0  0  0  0  0  0  0  0  0
    3.1500   -2.5971   -1.3107 C   0  0  2  0  0  0  0  0  0  0  0  0
    2.2629   -3.1970   -2.4288 C   0  0  0  0  0  0  0  0  0  0  0  0
    3.1499   -3.0539   -3.6748 C   0  0  1  0  0  0  0  0  0  0  0  0
    3.2126   -1.5734   -4.0854 C   0  0  0  0  0  0  0  0  0  0  0  0
    4.0915   -0.9599   -2.9996 C   0  0  0  0  0  0  0  0  0  0  0  0
    4.4093   -2.1524   -2.0950 C   0  0  2  0  0  0  0  0  0  0  0  0
    4.5467   -3.2826   -3.1061 C   0  0  0  0  0  0  0  0  0  0  0  0
    4.8734   -3.8049   -0.1277 O   0  0  0  0  0  0  0  0  0  0  0  0
    5.2944   -5.0902    0.2871 C   0  0  0  0  0  0  0  0  0  0  0  0
    5.1799   -5.2685    1.8091 C   0  0  0  0  0  0  0  0  0  0  0  0
    3.7378   -5.2457    2.3528 C   0  0  0  0  0  0  0  0  0  0  0  0
    1.6133   -1.1997    3.3807 H   0  0  0  0  0  0  0  0  0  0  0  0
    2.5599   -3.6321    4.3916 H   0  0  0  0  0  0  0  0  0  0  0  0
    2.9476   -4.5464   -0.3468 H   0  0  0  0  0  0  0  0  0  0  0  0
    2.6625   -1.7059   -0.9253 H   0  0  0  0  0  0  0  0  0  0  0  0
    2.0029   -4.2436   -2.2515 H   0  0  0  0  0  0  0  0  0  0  0  0
    1.3221   -2.6563   -2.5363 H   0  0  0  0  0  0  0  0  0  0  0  0
    2.8575   -3.7299   -4.4743 H   0  0  0  0  0  0  0  0  0  0  0  0
    3.6612   -1.4492   -5.0668 H   0  0  0  0  0  0  0  0  0  0  0  0
    2.2185   -1.1183   -4.1262 H   0  0  0  0  0  0  0  0  0  0  0  0
    5.0157   -0.5910   -3.4361 H   0  0  0  0  0  0  0  0  0  0  0  0
    3.6099   -0.1421   -2.4742 H   0  0  0  0  0  0  0  0  0  0  0  0
    5.2852   -1.9487   -1.4758 H   0  0  0  0  0  0  0  0  0  0  0  0
    4.6599   -4.2686   -2.6489 H   0  0  0  0  0  0  0  0  0  0  0  0
    5.3516   -3.1268   -3.8250 H   0  0  0  0  0  0  0  0  0  0  0  0
    4.7912   -5.8942   -0.2557 H   0  0  0  0  0  0  0  0  0  0  0  0
    6.3461   -5.1681    0.0215 H   0  0  0  0  0  0  0  0  0  0  0  0
    5.6288   -6.2264    2.0773 H   0  0  0  0  0  0  0  0  0  0  0  0
    5.7753   -4.4998    2.3060 H   0  0  0  0  0  0  0  0  0  0  0  0
    3.7382   -5.5684    3.3978 H   0  0  0  0  0  0  0  0  0  0  0  0
    3.0925   -5.9269    1.7922 H   0  0  0  0  0  0  0  0  0  0  0  0
    2.1148   -1.2967    0.8838 H   0  0  0  0  0  0  0  0  0  0  0  0
  1  5  1  0
  1  2  2  0
  1 18  1  0
  2  3  1  0
  2 19  1  0
  3 17  1  0
  3  4  1  0
  4  5  2  0
  4  6  1  0
  5 38  1  0
  6  7  1  0
  6 14  1  0
  6 20  1  6
  7 12  1  0
  7  8  1  0
  7 21  1  1
  8  9  1  0
  8 22  1  0
  8 23  1  0
  9 13  1  0
  9 10  1  0
  9 24  1  6
 10 11  1  0
 10 25  1  0
 10 26  1  0
 11 12  1  0
 11 27  1  0
 11 28  1  0
 12 13  1  0
 12 29  1  1
 13 30  1  0
 13 31  1  0
 14 15  1  0
 15 16  1  0
 15 32  1  0
 15 33  1  0
 16 17  1  0
 16 34  1  0
 16 35  1  0
 17 36  1  0
 17 37  1  0
M  CHG  1   5   1
M  END
>  <i_m_ct_stereo_status>  (319) 
1

>  <s_m_source_file>  (319) 
/var/tmp/pbs.5076255.sched01/tmpvuzdko10/1206lwnzxed.sdf

>  <i_m_source_file_index>  (319) 
25

>  <i_lp_mmshare_version>  (319) 
48012

>  <i_f3d_flags>  (319) 
0

>  <s_epik_input>  (319) 
W2NIXTFbY0hdbmMobjEyKVtDQEBIXShbQ0BIXShbQ0gyXVtDQEBIXTM0KVtDQEBIXShbQ0gyXTQpW0NIMl1bQ0gyXTMpT1tDSDJdW0NIMl1bQ0gyXTI=

>  <s_epik_cmdline>  (319) 
J2VwaWtfcHl0aG9uJywgJy1waHQnLCAnMi4wJywgJy1waCcsICc3LjAnLCAnLXRuJywgJzgnLCAnLW1hJywgJzIwMCcsICctaW1hZScsICc8aW5maWxlLm1hZT4nLCAnLW9tYWUnLCAnPG91dGZpbGUubWFlPic=

>  <r_lp_tautomer_probability>  (319) 
1

>  <r_epik_Ionization_Penalty>  (319) 
0.121606

>  <r_epik_Ionization_Penalty_Charging>  (319) 
0

>  <r_epik_Ionization_Penalty_Neutral>  (319) 
0.121606

>  <r_epik_State_Penalty>  (319) 
0.11113

>  <r_epik_Charging_Adjusted_Penalty>  (319) 
0.11113

>  <i_epik_Tot_Q>  (319) 
1

>  <i_epik_Tot_abs_Q>  (319) 
1

>  <s_lp_Force_Field>  (319) 
OPLS3e

>  <r_lp_Energy>  (319) 
42.323

>  <b_lp_Chiralities_Consistent>  (319) 
1

>  <s_lp_Variant>  (319) 
106:0-1

>  <s_i_glide_gridfile>  (319) 
pfpi4k_grid

>  <i_i_glide_lignum>  (319) 
25

>  <i_i_glide_rotatable_bonds>  (319) 
1

>  <r_i_docking_score>  (319) 
-3.84932

>  <r_i_glide_ligand_efficiency>  (319) 
-0.22643

>  <r_i_glide_ligand_efficiency_sa>  (319) 
-0.582216

>  <r_i_glide_ligand_efficiency_ln>  (319) 
-1.0042

>  <r_i_glide_gscore>  (319) 
-3.84932

>  <r_i_glide_lipo>  (319) 
-0.738714

>  <r_i_glide_hbond>  (319) 
-0.0896965

>  <r_i_glide_metal>  (319) 
-0

>  <r_i_glide_rewards>  (319) 
-1.81831

>  <r_i_glide_evdw>  (319) 
-19.6543

>  <r_i_glide_ecoul>  (319) 
-3.18558

>  <r_i_glide_erotb>  (319) 
0.315009

>  <r_i_glide_esite>  (319) 
-0.0570533

>  <r_i_glide_emodel>  (319) 
-24.6261

>  <r_i_glide_energy>  (319) 
-22.8399

>  <r_i_glide_einternal>  (319) 
7.67819

>  <r_i_glide_intrahb_reward>  (319) 
-0

>  <i_i_glide_confnum>  (319) 
1

>  <i_i_glide_posenum>  (319) 
20

>  <r_i_glide_eff_state_penalty>  (319) 
0

>  <ligand_id>  (319) 
106

>  <original_smiles>  (319) 
c1cn2c(n1)C(C1CC3CCC1C3)OCCC2

>  <smiles>  (319) 
[H]c1c([H])[n+]([H])c2n1C([H])([H])C([H])([H])C([H])([H])OC2([H])C1([H])C([H])([H])C2([H])C([H])([H])C([H])([H])C1([H])C2([H])[H]

$$$$
106:0:1
     RDKit          3D

 38 41  0  0  1  0  0  0  0  0999 V2000
    3.9042   -3.9817    2.1017 C   0  0  0  0  0  0  0  0  0  0  0  0
    5.1908   -4.3586    2.4096 C   0  0  0  0  0  0  0  0  0  0  0  0
    5.9140   -4.2867    1.2554 N   0  0  0  0  0  0  0  0  0  0  0  0
    5.1076   -3.8920    0.2338 C   0  0  0  0  0  0  0  0  0  0  0  0
    3.8943   -3.7171    0.7748 N   0  0  0  0  0  0  0  0  0  0  0  0
    5.5296   -3.6463   -1.1569 C   0  0  1  0  0  0  0  0  0  0  0  0
    4.4011   -3.1224   -2.0815 C   0  0  2  0  0  0  0  0  0  0  0  0
    4.8487   -2.9850   -3.5448 C   0  0  0  0  0  0  0  0  0  0  0  0
    4.5359   -1.4932   -3.8830 C   0  0  1  0  0  0  0  0  0  0  0  0
    3.0486   -1.3186   -4.0403 C   0  0  0  0  0  0  0  0  0  0  0  0
    2.6189   -1.4698   -2.6040 C   0  0  0  0  0  0  0  0  0  0  0  0
    3.9099   -1.6925   -1.7863 C   0  0  2  0  0  0  0  0  0  0  0  0
    4.8145   -0.7604   -2.5711 C   0  0  0  0  0  0  0  0  0  0  0  0
    6.5799   -2.6965   -1.2067 O   0  0  0  0  0  0  0  0  0  0  0  0
    7.9038   -3.1205   -1.0108 C   0  0  0  0  0  0  0  0  0  0  0  0
    8.1632   -3.4177    0.4782 C   0  0  0  0  0  0  0  0  0  0  0  0
    7.3430   -4.5862    1.0569 C   0  0  0  0  0  0  0  0  0  0  0  0
    3.0332   -3.8734    2.7361 H   0  0  0  0  0  0  0  0  0  0  0  0
    5.6332   -4.6488    3.3708 H   0  0  0  0  0  0  0  0  0  0  0  0
    5.7952   -4.6593   -1.4789 H   0  0  0  0  0  0  0  0  0  0  0  0
    3.5604   -3.8148   -2.0549 H   0  0  0  0  0  0  0  0  0  0  0  0
    5.9069   -3.2400   -3.6486 H   0  0  0  0  0  0  0  0  0  0  0  0
    4.3062   -3.6782   -4.1949 H   0  0  0  0  0  0  0  0  0  0  0  0
    5.0109   -1.0533   -4.7536 H   0  0  0  0  0  0  0  0  0  0  0  0
    2.8614   -0.3067   -4.4062 H   0  0  0  0  0  0  0  0  0  0  0  0
    2.6016   -2.0512   -4.7053 H   0  0  0  0  0  0  0  0  0  0  0  0
    2.2167   -0.4971   -2.3359 H   0  0  0  0  0  0  0  0  0  0  0  0
    1.8690   -2.2499   -2.4723 H   0  0  0  0  0  0  0  0  0  0  0  0
    3.7992   -1.4324   -0.7303 H   0  0  0  0  0  0  0  0  0  0  0  0
    5.8603   -0.7714   -2.3242 H   0  0  0  0  0  0  0  0  0  0  0  0
    4.4361    0.2764   -2.5690 H   0  0  0  0  0  0  0  0  0  0  0  0
    8.2333   -3.9308   -1.6724 H   0  0  0  0  0  0  0  0  0  0  0  0
    8.5565   -2.2893   -1.2825 H   0  0  0  0  0  0  0  0  0  0  0  0
    9.2300   -3.6238    0.6334 H   0  0  0  0  0  0  0  0  0  0  0  0
    7.9397   -2.5009    1.0095 H   0  0  0  0  0  0  0  0  0  0  0  0
    7.7208   -4.8377    2.0442 H   0  0  0  0  0  0  0  0  0  0  0  0
    7.4058   -5.4628    0.4116 H   0  0  0  0  0  0  0  0  0  0  0  0
    3.1169   -3.3418    0.2286 H   0  0  0  0  0  0  0  0  0  0  0  0
  1  5  1  0
  1  2  2  0
  1 18  1  0
  2  3  1  0
  2 19  1  0
  3 17  1  0
  3  4  1  0
  4  5  2  0
  4  6  1  0
  5 38  1  0
  6  7  1  0
  6 14  1  0
  6 20  1  6
  7 12  1  0
  7  8  1  0
  7 21  1  6
  8  9  1  0
  8 22  1  0
  8 23  1  0
  9 13  1  0
  9 10  1  0
  9 24  1  6
 10 11  1  0
 10 25  1  0
 10 26  1  0
 11 12  1  0
 11 27  1  0
 11 28  1  0
 12 13  1  0
 12 29  1  1
 13 30  1  0
 13 31  1  0
 14 15  1  0
 15 16  1  0
 15 32  1  0
 15 33  1  0
 16 17  1  0
 16 34  1  0
 16 35  1  0
 17 36  1  0
 17 37  1  0
M  CHG  1   5   1
M  END
>  <i_m_ct_stereo_status>  (320) 
1

>  <s_m_source_file>  (320) 
/var/tmp/pbs.5076255.sched01/tmpvuzdko10/1206lwnzxed.sdf

>  <i_m_source_file_index>  (320) 
25

>  <i_lp_mmshare_version>  (320) 
48012

>  <i_f3d_flags>  (320) 
0

>  <s_epik_input>  (320) 
W2NIXTFbY0hdbmMobjEyKVtDQEBIXShbQ0BIXShbQ0gyXVtDQEBIXTM0KVtDQEBIXShbQ0gyXTQpW0NIMl1bQ0gyXTMpT1tDSDJdW0NIMl1bQ0gyXTI=

>  <s_epik_cmdline>  (320) 
J2VwaWtfcHl0aG9uJywgJy1waHQnLCAnMi4wJywgJy1waCcsICc3LjAnLCAnLXRuJywgJzgnLCAnLW1hJywgJzIwMCcsICctaW1hZScsICc8aW5maWxlLm1hZT4nLCAnLW9tYWUnLCAnPG91dGZpbGUubWFlPic=

>  <r_lp_tautomer_probability>  (320) 
1

>  <r_epik_Ionization_Penalty>  (320) 
0.121606

>  <r_epik_Ionization_Penalty_Charging>  (320) 
0

>  <r_epik_Ionization_Penalty_Neutral>  (320) 
0.121606

>  <r_epik_State_Penalty>  (320) 
0.11113

>  <r_epik_Charging_Adjusted_Penalty>  (320) 
0.11113

>  <i_epik_Tot_Q>  (320) 
1

>  <i_epik_Tot_abs_Q>  (320) 
1

>  <s_lp_Force_Field>  (320) 
OPLS3e

>  <r_lp_Energy>  (320) 
42.323

>  <b_lp_Chiralities_Consistent>  (320) 
1

>  <s_lp_Variant>  (320) 
106:0-1

>  <s_i_glide_gridfile>  (320) 
pfpi4k_grid

>  <i_i_glide_lignum>  (320) 
25

>  <i_i_glide_rotatable_bonds>  (320) 
1

>  <r_i_docking_score>  (320) 
-3.48784

>  <r_i_glide_ligand_efficiency>  (320) 
-0.205167

>  <r_i_glide_ligand_efficiency_sa>  (320) 
-0.527542

>  <r_i_glide_ligand_efficiency_ln>  (320) 
-0.909899

>  <r_i_glide_gscore>  (320) 
-3.48784

>  <r_i_glide_lipo>  (320) 
-0.726202

>  <r_i_glide_hbond>  (320) 
0

>  <r_i_glide_metal>  (320) 
-0

>  <r_i_glide_rewards>  (320) 
-1.98191

>  <r_i_glide_evdw>  (320) 
-13.8534

>  <r_i_glide_ecoul>  (320) 
-2.68046

>  <r_i_glide_erotb>  (320) 
0.315009

>  <r_i_glide_esite>  (320) 
0

>  <r_i_glide_emodel>  (320) 
-15.9585

>  <r_i_glide_energy>  (320) 
-16.5338

>  <r_i_glide_einternal>  (320) 
10.0856

>  <r_i_glide_intrahb_reward>  (320) 
-0

>  <i_i_glide_confnum>  (320) 
3

>  <i_i_glide_posenum>  (320) 
3

>  <r_i_glide_eff_state_penalty>  (320) 
0

>  <ligand_id>  (320) 
106

>  <original_smiles>  (320) 
c1cn2c(n1)C(C1CC3CCC1C3)OCCC2

>  <smiles>  (320) 
[H]c1c([H])[n+]([H])c2n1C([H])([H])C([H])([H])C([H])([H])OC2([H])C1([H])C([H])([H])C2([H])C([H])([H])C([H])([H])C1([H])C2([H])[H]

$$$$
106:1:0
     RDKit          3D

 37 40  0  0  1  0  0  0  0  0999 V2000
    4.6426   -3.9721    2.6734 C   0  0  0  0  0  0  0  0  0  0  0  0
    5.8205   -4.6880    2.6649 C   0  0  0  0  0  0  0  0  0  0  0  0
    6.4045   -4.4694    1.4280 N   0  0  0  0  0  0  0  0  0  0  0  0
    5.5749   -3.6501    0.7534 C   0  0  0  0  0  0  0  0  0  0  0  0
    4.5268   -3.2699    1.4733 N   0  0  0  0  0  0  0  0  0  0  0  0
    5.8544   -3.2680   -0.6639 C   0  0  1  0  0  0  0  0  0  0  0  0
    4.7042   -2.5094   -1.3777 C   0  0  2  0  0  0  0  0  0  0  0  0
    3.3279   -3.2068   -1.2941 C   0  0  0  0  0  0  0  0  0  0  0  0
    2.9506   -3.4323   -2.7612 C   0  0  1  0  0  0  0  0  0  0  0  0
    2.6066   -2.0994   -3.3822 C   0  0  0  0  0  0  0  0  0  0  0  0
    3.9542   -1.3998   -3.5336 C   0  0  0  0  0  0  0  0  0  0  0  0
    4.9081   -2.4369   -2.9077 C   0  0  2  0  0  0  0  0  0  0  0  0
    4.2918   -3.7384   -3.4101 C   0  0  0  0  0  0  0  0  0  0  0  0
    7.0190   -2.4520   -0.6873 O   0  0  0  0  0  0  0  0  0  0  0  0
    8.2307   -3.1794   -0.8128 C   0  0  0  0  0  0  0  0  0  0  0  0
    8.6158   -3.9079    0.4903 C   0  0  0  0  0  0  0  0  0  0  0  0
    7.6593   -5.0152    0.9595 C   0  0  0  0  0  0  0  0  0  0  0  0
    3.8799   -3.9032    3.4247 H   0  0  0  0  0  0  0  0  0  0  0  0
    6.2648   -5.3181    3.4256 H   0  0  0  0  0  0  0  0  0  0  0  0
    6.0435   -4.1948   -1.2000 H   0  0  0  0  0  0  0  0  0  0  0  0
    4.6316   -1.5044   -0.9575 H   0  0  0  0  0  0  0  0  0  0  0  0
    3.3681   -4.1855   -0.8155 H   0  0  0  0  0  0  0  0  0  0  0  0
    2.6065   -2.5976   -0.7430 H   0  0  0  0  0  0  0  0  0  0  0  0
    2.1567   -4.1673   -2.8874 H   0  0  0  0  0  0  0  0  0  0  0  0
    2.0824   -2.2530   -4.3204 H   0  0  0  0  0  0  0  0  0  0  0  0
    1.9475   -1.5689   -2.7081 H   0  0  0  0  0  0  0  0  0  0  0  0
    4.1635   -1.2500   -4.5932 H   0  0  0  0  0  0  0  0  0  0  0  0
    3.9617   -0.4269   -3.0367 H   0  0  0  0  0  0  0  0  0  0  0  0
    5.9460   -2.2920   -3.1702 H   0  0  0  0  0  0  0  0  0  0  0  0
    4.7572   -4.6399   -3.0093 H   0  0  0  0  0  0  0  0  0  0  0  0
    4.2351   -3.8217   -4.4978 H   0  0  0  0  0  0  0  0  0  0  0  0
    8.2095   -3.8476   -1.6765 H   0  0  0  0  0  0  0  0  0  0  0  0
    9.0134   -2.4597   -1.0476 H   0  0  0  0  0  0  0  0  0  0  0  0
    9.5868   -4.3708    0.3435 H   0  0  0  0  0  0  0  0  0  0  0  0
    8.7481   -3.1696    1.2822 H   0  0  0  0  0  0  0  0  0  0  0  0
    8.1197   -5.5641    1.7850 H   0  0  0  0  0  0  0  0  0  0  0  0
    7.4752   -5.7376    0.1605 H   0  0  0  0  0  0  0  0  0  0  0  0
  1  5  1  0
  1  2  2  0
  1 18  1  0
  2  3  1  0
  2 19  1  0
  3 17  1  0
  3  4  1  0
  4  5  2  0
  4  6  1  0
  6  7  1  0
  6 14  1  0
  6 20  1  6
  7 12  1  0
  7  8  1  0
  7 21  1  1
  8  9  1  0
  8 22  1  0
  8 23  1  0
  9 13  1  0
  9 10  1  0
  9 24  1  1
 10 11  1  0
 10 25  1  0
 10 26  1  0
 11 12  1  0
 11 27  1  0
 11 28  1  0
 12 13  1  0
 12 29  1  1
 13 30  1  0
 13 31  1  0
 14 15  1  0
 15 16  1  0
 15 32  1  0
 15 33  1  0
 16 17  1  0
 16 34  1  0
 16 35  1  0
 17 36  1  0
 17 37  1  0
M  END
>  <i_m_ct_stereo_status>  (321) 
1

>  <s_m_source_file>  (321) 
/var/tmp/pbs.5076255.sched01/tmpvuzdko10/1206lwnzxed.sdf

>  <i_m_source_file_index>  (321) 
26

>  <i_lp_mmshare_version>  (321) 
48012

>  <i_f3d_flags>  (321) 
0

>  <s_epik_input>  (321) 
W2NIXTFbY0hdbmMobjEyKVtDQEBIXShbQ0BIXShbQ0gyXVtDQEBIXTM0KVtDQEBIXShbQ0gyXTQpW0NIMl1bQ0gyXTMpT1tDSDJdW0NIMl1bQ0gyXTI=

>  <s_epik_cmdline>  (321) 
J2VwaWtfcHl0aG9uJywgJy1waHQnLCAnMi4wJywgJy1waCcsICc3LjAnLCAnLXRuJywgJzgnLCAnLW1hJywgJzIwMCcsICctaW1hZScsICc8aW5maWxlLm1hZT4nLCAnLW9tYWUnLCAnPG91dGZpbGUubWFlPic=

>  <r_lp_tautomer_probability>  (321) 
1

>  <r_epik_Ionization_Penalty>  (321) 
0.997987

>  <r_epik_Ionization_Penalty_Charging>  (321) 
0.997987

>  <r_epik_Ionization_Penalty_Neutral>  (321) 
4.05331e-13

>  <r_epik_State_Penalty>  (321) 
1.0463

>  <r_epik_Charging_Adjusted_Penalty>  (321) 
2.04428

>  <i_epik_Tot_Q>  (321) 
0

>  <i_epik_Tot_abs_Q>  (321) 
0

>  <s_lp_Force_Field>  (321) 
OPLS3e

>  <r_lp_Energy>  (321) 
35.8174

>  <b_lp_Chiralities_Consistent>  (321) 
1

>  <s_lp_Variant>  (321) 
106:0-2

>  <s_i_glide_gridfile>  (321) 
pfpi4k_grid

>  <i_i_glide_lignum>  (321) 
26

>  <i_i_glide_rotatable_bonds>  (321) 
1

>  <r_i_docking_score>  (321) 
-3.69565

>  <r_i_glide_ligand_efficiency>  (321) 
-0.217391

>  <r_i_glide_ligand_efficiency_sa>  (321) 
-0.558974

>  <r_i_glide_ligand_efficiency_ln>  (321) 
-0.964113

>  <r_i_glide_gscore>  (321) 
-3.69565

>  <r_i_glide_lipo>  (321) 
-0.840829

>  <r_i_glide_hbond>  (321) 
-0.0852014

>  <r_i_glide_metal>  (321) 
-0

>  <r_i_glide_rewards>  (321) 
-2.0239

>  <r_i_glide_evdw>  (321) 
-19.2831

>  <r_i_glide_ecoul>  (321) 
-0.659356

>  <r_i_glide_erotb>  (321) 
0.317335

>  <r_i_glide_esite>  (321) 
0

>  <r_i_glide_emodel>  (321) 
-24.793

>  <r_i_glide_energy>  (321) 
-19.9425

>  <r_i_glide_einternal>  (321) 
1.20125

>  <r_i_glide_intrahb_reward>  (321) 
-0

>  <i_i_glide_confnum>  (321) 
1

>  <i_i_glide_posenum>  (321) 
11

>  <r_i_glide_eff_state_penalty>  (321) 
0

>  <ligand_id>  (321) 
106

>  <original_smiles>  (321) 
c1cn2c(n1)C(C1CC3CCC1C3)OCCC2

>  <smiles>  (321) 
[H]c1nc2n(c1[H])C([H])([H])C([H])([H])C([H])([H])OC2([H])C1([H])C([H])([H])C2([H])C([H])([H])C([H])([H])C1([H])C2([H])[H]

$$$$
106:1:1
     RDKit          3D

 37 40  0  0  1  0  0  0  0  0999 V2000
    1.1778   -6.7755    1.7406 C   0  0  0  0  0  0  0  0  0  0  0  0
    1.9605   -7.9011    1.6915 C   0  0  0  0  0  0  0  0  0  0  0  0
    3.2275   -7.4853    1.3026 N   0  0  0  0  0  0  0  0  0  0  0  0
    3.1426   -6.1574    1.1198 C   0  0  0  0  0  0  0  0  0  0  0  0
    1.9314   -5.6651    1.3876 N   0  0  0  0  0  0  0  0  0  0  0  0
    4.3265   -5.3725    0.6422 C   0  0  1  0  0  0  0  0  0  0  0  0
    4.0464   -3.8758    0.3593 C   0  0  2  0  0  0  0  0  0  0  0  0
    2.9646   -3.6558   -0.7226 C   0  0  0  0  0  0  0  0  0  0  0  0
    3.7028   -2.8679   -1.8167 C   0  0  1  0  0  0  0  0  0  0  0  0
    3.9261   -1.4358   -1.3152 C   0  0  0  0  0  0  0  0  0  0  0  0
    5.0264   -1.6195   -0.2548 C   0  0  0  0  0  0  0  0  0  0  0  0
    5.2614   -3.1466   -0.2648 C   0  0  2  0  0  0  0  0  0  0  0  0
    5.1069   -3.4546   -1.7527 C   0  0  0  0  0  0  0  0  0  0  0  0
    5.3411   -5.4600    1.6381 O   0  0  0  0  0  0  0  0  0  0  0  0
    6.2348   -6.5613    1.4966 C   0  0  0  0  0  0  0  0  0  0  0  0
    5.5970   -7.8934    1.9324 C   0  0  0  0  0  0  0  0  0  0  0  0
    4.3837   -8.3367    1.0935 C   0  0  0  0  0  0  0  0  0  0  0  0
    0.1367   -6.6794    1.9873 H   0  0  0  0  0  0  0  0  0  0  0  0
    1.7213   -8.9394    1.8866 H   0  0  0  0  0  0  0  0  0  0  0  0
    4.6707   -5.8469   -0.2761 H   0  0  0  0  0  0  0  0  0  0  0  0
    3.7507   -3.3877    1.2885 H   0  0  0  0  0  0  0  0  0  0  0  0
    2.6033   -4.5977   -1.1224 H   0  0  0  0  0  0  0  0  0  0  0  0
    2.0917   -3.1215   -0.3404 H   0  0  0  0  0  0  0  0  0  0  0  0
    3.2163   -2.9316   -2.7894 H   0  0  0  0  0  0  0  0  0  0  0  0
    4.2607   -0.7864   -2.1239 H   0  0  0  0  0  0  0  0  0  0  0  0
    3.0215   -1.0158   -0.8912 H   0  0  0  0  0  0  0  0  0  0  0  0
    5.9341   -1.0963   -0.5617 H   0  0  0  0  0  0  0  0  0  0  0  0
    4.7395   -1.2359    0.7254 H   0  0  0  0  0  0  0  0  0  0  0  0
    6.2190   -3.4265    0.1777 H   0  0  0  0  0  0  0  0  0  0  0  0
    5.1326   -4.5177   -1.9943 H   0  0  0  0  0  0  0  0  0  0  0  0
    5.8315   -2.9320   -2.3796 H   0  0  0  0  0  0  0  0  0  0  0  0
    6.6314   -6.6207    0.4821 H   0  0  0  0  0  0  0  0  0  0  0  0
    7.0958   -6.3620    2.1385 H   0  0  0  0  0  0  0  0  0  0  0  0
    6.3633   -8.6725    1.8775 H   0  0  0  0  0  0  0  0  0  0  0  0
    5.3056   -7.8174    2.9818 H   0  0  0  0  0  0  0  0  0  0  0  0
    4.1113   -9.3603    1.3590 H   0  0  0  0  0  0  0  0  0  0  0  0
    4.6284   -8.3413    0.0307 H   0  0  0  0  0  0  0  0  0  0  0  0
  1  5  1  0
  1  2  2  0
  1 18  1  0
  2  3  1  0
  2 19  1  0
  3 17  1  0
  3  4  1  0
  4  5  2  0
  4  6  1  0
  6  7  1  0
  6 14  1  0
  6 20  1  6
  7 12  1  0
  7  8  1  0
  7 21  1  1
  8  9  1  0
  8 22  1  0
  8 23  1  0
  9 13  1  0
  9 10  1  0
  9 24  1  6
 10 11  1  0
 10 25  1  0
 10 26  1  0
 11 12  1  0
 11 27  1  0
 11 28  1  0
 12 13  1  0
 12 29  1  1
 13 30  1  0
 13 31  1  0
 14 15  1  0
 15 16  1  0
 15 32  1  0
 15 33  1  0
 16 17  1  0
 16 34  1  0
 16 35  1  0
 17 36  1  0
 17 37  1  0
M  END
>  <i_m_ct_stereo_status>  (322) 
1

>  <s_m_source_file>  (322) 
/var/tmp/pbs.5076255.sched01/tmpvuzdko10/1206lwnzxed.sdf

>  <i_m_source_file_index>  (322) 
26

>  <i_lp_mmshare_version>  (322) 
48012

>  <i_f3d_flags>  (322) 
0

>  <s_epik_input>  (322) 
W2NIXTFbY0hdbmMobjEyKVtDQEBIXShbQ0BIXShbQ0gyXVtDQEBIXTM0KVtDQEBIXShbQ0gyXTQpW0NIMl1bQ0gyXTMpT1tDSDJdW0NIMl1bQ0gyXTI=

>  <s_epik_cmdline>  (322) 
J2VwaWtfcHl0aG9uJywgJy1waHQnLCAnMi4wJywgJy1waCcsICc3LjAnLCAnLXRuJywgJzgnLCAnLW1hJywgJzIwMCcsICctaW1hZScsICc8aW5maWxlLm1hZT4nLCAnLW9tYWUnLCAnPG91dGZpbGUubWFlPic=

>  <r_lp_tautomer_probability>  (322) 
1

>  <r_epik_Ionization_Penalty>  (322) 
0.997987

>  <r_epik_Ionization_Penalty_Charging>  (322) 
0.997987

>  <r_epik_Ionization_Penalty_Neutral>  (322) 
4.05331e-13

>  <r_epik_State_Penalty>  (322) 
1.0463

>  <r_epik_Charging_Adjusted_Penalty>  (322) 
2.04428

>  <i_epik_Tot_Q>  (322) 
0

>  <i_epik_Tot_abs_Q>  (322) 
0

>  <s_lp_Force_Field>  (322) 
OPLS3e

>  <r_lp_Energy>  (322) 
35.8174

>  <b_lp_Chiralities_Consistent>  (322) 
1

>  <s_lp_Variant>  (322) 
106:0-2

>  <s_i_glide_gridfile>  (322) 
pfpi4k_grid

>  <i_i_glide_lignum>  (322) 
26

>  <i_i_glide_rotatable_bonds>  (322) 
1

>  <r_i_docking_score>  (322) 
-3.21189

>  <r_i_glide_ligand_efficiency>  (322) 
-0.188935

>  <r_i_glide_ligand_efficiency_sa>  (322) 
-0.485804

>  <r_i_glide_ligand_efficiency_ln>  (322) 
-0.837911

>  <r_i_glide_gscore>  (322) 
-3.21189

>  <r_i_glide_lipo>  (322) 
-0.336424

>  <r_i_glide_hbond>  (322) 
-0.0258883

>  <r_i_glide_metal>  (322) 
-0

>  <r_i_glide_rewards>  (322) 
-1.92232

>  <r_i_glide_evdw>  (322) 
-21.8073

>  <r_i_glide_ecoul>  (322) 
-1.02819

>  <r_i_glide_erotb>  (322) 
0.317335

>  <r_i_glide_esite>  (322) 
0

>  <r_i_glide_emodel>  (322) 
-27.6839

>  <r_i_glide_energy>  (322) 
-22.8355

>  <r_i_glide_einternal>  (322) 
0.0706735

>  <r_i_glide_intrahb_reward>  (322) 
-0

>  <i_i_glide_confnum>  (322) 
1

>  <i_i_glide_posenum>  (322) 
33

>  <r_i_glide_eff_state_penalty>  (322) 
0

>  <ligand_id>  (322) 
106

>  <original_smiles>  (322) 
c1cn2c(n1)C(C1CC3CCC1C3)OCCC2

>  <smiles>  (322) 
[H]c1nc2n(c1[H])C([H])([H])C([H])([H])C([H])([H])OC2([H])C1([H])C([H])([H])C2([H])C([H])([H])C([H])([H])C1([H])C2([H])[H]

$$$$
106:1:2
     RDKit          3D

 37 40  0  0  1  0  0  0  0  0999 V2000
    2.6207   -5.4452    2.4380 C   0  0  0  0  0  0  0  0  0  0  0  0
    3.6692   -6.3207    2.5878 C   0  0  0  0  0  0  0  0  0  0  0  0
    4.6804   -5.8726    1.7473 N   0  0  0  0  0  0  0  0  0  0  0  0
    4.1995   -4.7804    1.1343 C   0  0  0  0  0  0  0  0  0  0  0  0
    2.9712   -4.4525    1.5360 N   0  0  0  0  0  0  0  0  0  0  0  0
    5.0078   -4.0589    0.0956 C   0  0  1  0  0  0  0  0  0  0  0  0
    4.2643   -2.9113   -0.6301 C   0  0  2  0  0  0  0  0  0  0  0  0
    2.9480   -3.3719   -1.2952 C   0  0  0  0  0  0  0  0  0  0  0  0
    3.1588   -3.0499   -2.7838 C   0  0  1  0  0  0  0  0  0  0  0  0
    3.0832   -1.5273   -2.9705 C   0  0  0  0  0  0  0  0  0  0  0  0
    4.3998   -1.0480   -2.3395 C   0  0  0  0  0  0  0  0  0  0  0  0
    5.0480   -2.3602   -1.8449 C   0  0  2  0  0  0  0  0  0  0  0  0
    4.6478   -3.3205   -2.9628 C   0  0  0  0  0  0  0  0  0  0  0  0
    6.1620   -3.5217    0.7326 O   0  0  0  0  0  0  0  0  0  0  0  0
    7.2891   -4.3900    0.7683 C   0  0  0  0  0  0  0  0  0  0  0  0
    7.1374   -5.5100    1.8127 C   0  0  0  0  0  0  0  0  0  0  0  0
    5.9792   -6.4903    1.5546 C   0  0  0  0  0  0  0  0  0  0  0  0
    1.6495   -5.4521    2.8988 H   0  0  0  0  0  0  0  0  0  0  0  0
    3.7727   -7.2058    3.2034 H   0  0  0  0  0  0  0  0  0  0  0  0
    5.3071   -4.8032   -0.6433 H   0  0  0  0  0  0  0  0  0  0  0  0
    4.0549   -2.1153    0.0848 H   0  0  0  0  0  0  0  0  0  0  0  0
    2.7798   -4.4352   -1.1427 H   0  0  0  0  0  0  0  0  0  0  0  0
    2.0766   -2.8651   -0.8778 H   0  0  0  0  0  0  0  0  0  0  0  0
    2.5002   -3.6122   -3.4465 H   0  0  0  0  0  0  0  0  0  0  0  0
    3.0337   -1.2617   -4.0262 H   0  0  0  0  0  0  0  0  0  0  0  0
    2.2148   -1.0978   -2.4703 H   0  0  0  0  0  0  0  0  0  0  0  0
    5.0152   -0.5821   -3.1117 H   0  0  0  0  0  0  0  0  0  0  0  0
    4.2518   -0.3181   -1.5417 H   0  0  0  0  0  0  0  0  0  0  0  0
    6.1199   -2.2646   -1.6684 H   0  0  0  0  0  0  0  0  0  0  0  0
    4.9181   -4.3614   -2.7834 H   0  0  0  0  0  0  0  0  0  0  0  0
    5.0298   -3.0232   -3.9373 H   0  0  0  0  0  0  0  0  0  0  0  0
    7.5101   -4.7891   -0.2210 H   0  0  0  0  0  0  0  0  0  0  0  0
    8.1531   -3.7792    1.0344 H   0  0  0  0  0  0  0  0  0  0  0  0
    8.0735   -6.0744    1.8439 H   0  0  0  0  0  0  0  0  0  0  0  0
    7.0141   -5.0597    2.7983 H   0  0  0  0  0  0  0  0  0  0  0  0
    6.0610   -7.3358    2.2393 H   0  0  0  0  0  0  0  0  0  0  0  0
    6.0312   -6.8873    0.5411 H   0  0  0  0  0  0  0  0  0  0  0  0
  1  5  1  0
  1  2  2  0
  1 18  1  0
  2  3  1  0
  2 19  1  0
  3 17  1  0
  3  4  1  0
  4  5  2  0
  4  6  1  0
  6  7  1  0
  6 14  1  0
  6 20  1  6
  7 12  1  0
  7  8  1  0
  7 21  1  1
  8  9  1  0
  8 22  1  0
  8 23  1  0
  9 13  1  0
  9 10  1  0
  9 24  1  6
 10 11  1  0
 10 25  1  0
 10 26  1  0
 11 12  1  0
 11 27  1  0
 11 28  1  0
 12 13  1  0
 12 29  1  1
 13 30  1  0
 13 31  1  0
 14 15  1  0
 15 16  1  0
 15 32  1  0
 15 33  1  0
 16 17  1  0
 16 34  1  0
 16 35  1  0
 17 36  1  0
 17 37  1  0
M  END
>  <i_m_ct_stereo_status>  (323) 
1

>  <s_m_source_file>  (323) 
/var/tmp/pbs.5076255.sched01/tmpvuzdko10/1206lwnzxed.sdf

>  <i_m_source_file_index>  (323) 
26

>  <i_lp_mmshare_version>  (323) 
48012

>  <i_f3d_flags>  (323) 
0

>  <s_epik_input>  (323) 
W2NIXTFbY0hdbmMobjEyKVtDQEBIXShbQ0BIXShbQ0gyXVtDQEBIXTM0KVtDQEBIXShbQ0gyXTQpW0NIMl1bQ0gyXTMpT1tDSDJdW0NIMl1bQ0gyXTI=

>  <s_epik_cmdline>  (323) 
J2VwaWtfcHl0aG9uJywgJy1waHQnLCAnMi4wJywgJy1waCcsICc3LjAnLCAnLXRuJywgJzgnLCAnLW1hJywgJzIwMCcsICctaW1hZScsICc8aW5maWxlLm1hZT4nLCAnLW9tYWUnLCAnPG91dGZpbGUubWFlPic=

>  <r_lp_tautomer_probability>  (323) 
1

>  <r_epik_Ionization_Penalty>  (323) 
0.997987

>  <r_epik_Ionization_Penalty_Charging>  (323) 
0.997987

>  <r_epik_Ionization_Penalty_Neutral>  (323) 
4.05331e-13

>  <r_epik_State_Penalty>  (323) 
1.0463

>  <r_epik_Charging_Adjusted_Penalty>  (323) 
2.04428

>  <i_epik_Tot_Q>  (323) 
0

>  <i_epik_Tot_abs_Q>  (323) 
0

>  <s_lp_Force_Field>  (323) 
OPLS3e

>  <r_lp_Energy>  (323) 
35.8174

>  <b_lp_Chiralities_Consistent>  (323) 
1

>  <s_lp_Variant>  (323) 
106:0-2

>  <s_i_glide_gridfile>  (323) 
pfpi4k_grid

>  <i_i_glide_lignum>  (323) 
26

>  <i_i_glide_rotatable_bonds>  (323) 
1

>  <r_i_docking_score>  (323) 
-3.19336

>  <r_i_glide_ligand_efficiency>  (323) 
-0.187844

>  <r_i_glide_ligand_efficiency_sa>  (323) 
-0.483001

>  <r_i_glide_ligand_efficiency_ln>  (323) 
-0.833075

>  <r_i_glide_gscore>  (323) 
-3.19336

>  <r_i_glide_lipo>  (323) 
-0.564773

>  <r_i_glide_hbond>  (323) 
0

>  <r_i_glide_metal>  (323) 
-0

>  <r_i_glide_rewards>  (323) 
-1.90997

>  <r_i_glide_evdw>  (323) 
-21.4568

>  <r_i_glide_ecoul>  (323) 
0.245921

>  <r_i_glide_erotb>  (323) 
0.317335

>  <r_i_glide_esite>  (323) 
0

>  <r_i_glide_emodel>  (323) 
-25.8307

>  <r_i_glide_energy>  (323) 
-21.2109

>  <r_i_glide_einternal>  (323) 
0.383626

>  <r_i_glide_intrahb_reward>  (323) 
-0

>  <i_i_glide_confnum>  (323) 
1

>  <i_i_glide_posenum>  (323) 
19

>  <r_i_glide_eff_state_penalty>  (323) 
0

>  <ligand_id>  (323) 
106

>  <original_smiles>  (323) 
c1cn2c(n1)C(C1CC3CCC1C3)OCCC2

>  <smiles>  (323) 
[H]c1nc2n(c1[H])C([H])([H])C([H])([H])C([H])([H])OC2([H])C1([H])C([H])([H])C2([H])C([H])([H])C([H])([H])C1([H])C2([H])[H]

$$$$
107:0:0
     RDKit          3D

 80 85  0  0  1  0  0  0  0  0999 V2000
    4.3438   -1.2361   -3.1003 C   0  0  0  0  0  0  0  0  0  0  0  0
    4.9526   -1.8673   -2.0838 C   0  0  0  0  0  0  0  0  0  0  0  0
    5.9984   -2.9203   -2.3973 C   0  0  0  0  0  0  0  0  0  0  0  0
    4.6226   -1.5599   -0.6121 C   0  0  2  0  0  0  0  0  0  0  0  0
    5.7538   -0.9459    0.2426 C   0  0  0  0  0  0  0  0  0  0  0  0
    5.7812   -1.7290    1.5816 C   0  0  0  0  0  0  0  0  0  0  0  0
    5.2706   -3.1463    1.2502 C   0  0  2  0  0  0  0  0  0  0  0  0
    6.4792   -3.8859    0.5994 C   0  0  0  0  0  0  0  0  0  0  0  0
    4.1454   -2.7240    0.2795 C   0  0  2  0  0  0  0  0  0  0  0  0
    3.2253   -3.8443   -0.2498 C   0  0  0  0  0  0  0  0  0  0  0  0
    3.0466   -5.0298    0.7462 C   0  0  1  0  0  0  0  0  0  0  0  0
    3.9911   -5.9917    0.3453 O   0  0  0  0  0  0  0  0  0  0  0  0
    3.2295   -4.6680    2.2745 C   0  0  2  0  0  0  0  0  0  0  0  0
    2.2682   -3.5295    2.7688 C   0  0  0  0  0  0  0  0  0  0  0  0
    2.7790   -2.9169    3.9633 O   0  0  0  0  0  0  0  0  0  0  0  0
    3.6832   -3.7168    4.6822 C   0  0  2  0  0  0  0  0  0  0  0  0
    3.8930   -3.1678    5.9564 O   0  0  0  0  0  0  0  0  0  0  0  0
    4.9956   -3.6496    3.8811 C   0  0  0  0  0  0  0  0  0  0  0  0
    4.7059   -4.0658    2.4139 C   0  0  2  0  0  0  0  0  0  0  0  0
    3.0355   -5.1496    4.7661 C   0  0  2  0  0  0  0  0  0  0  0  0
    3.4793   -6.0931    5.9112 C   0  0  1  0  0  0  0  0  0  0  0  0
    2.9617   -5.5805    7.1283 O   0  0  0  0  0  0  0  0  0  0  0  0
    2.9059   -7.5298    5.6886 C   0  0  1  0  0  0  0  0  0  0  0  0
    2.9596   -8.1839    6.9361 O   0  0  0  0  0  0  0  0  0  0  0  0
    1.5276   -7.4770    4.9212 C   0  0  2  0  0  0  0  0  0  0  0  0
    0.5551   -8.7331    5.0465 C   0  0  0  0  0  0  0  0  0  0  0  0
    0.4216   -9.3097    6.4808 C   0  0  0  0  0  0  0  0  0  0  0  0
   -0.9089   -8.3746    4.6602 C   0  0  0  0  0  0  0  0  0  0  0  0
    1.0930   -9.8629    4.1461 C   0  0  0  0  0  0  0  0  0  0  0  0
    1.1794   -9.4500    2.6772 C   0  0  0  0  0  0  0  0  0  0  0  0
    2.0081   -8.1761    2.4689 C   0  0  0  0  0  0  0  0  0  0  0  0
    2.7885   -8.1516    1.5335 O   0  0  0  0  0  0  0  0  0  0  0  0
    1.7899   -6.9384    3.4145 C   0  0  1  0  0  0  0  0  0  0  0  0
    0.4956   -6.2637    2.9025 C   0  0  0  0  0  0  0  0  0  0  0  0
    3.0327   -5.8634    3.3657 C   0  0  1  0  0  0  0  0  0  0  0  0
    4.2255   -6.6397    3.3087 O   0  0  0  0  0  0  0  0  0  0  0  0
    4.5981   -1.4873   -4.1179 H   0  0  0  0  0  0  0  0  0  0  0  0
    3.5954   -0.4712   -2.9465 H   0  0  0  0  0  0  0  0  0  0  0  0
    5.7232   -3.8717   -1.9634 H   0  0  0  0  0  0  0  0  0  0  0  0
    6.9717   -2.6203   -2.0100 H   0  0  0  0  0  0  0  0  0  0  0  0
    6.0830   -3.0912   -3.4758 H   0  0  0  0  0  0  0  0  0  0  0  0
    3.8174   -0.8170   -0.6520 H   0  0  0  0  0  0  0  0  0  0  0  0
    6.7102   -1.0284   -0.2667 H   0  0  0  0  0  0  0  0  0  0  0  0
    5.5948    0.1141    0.4381 H   0  0  0  0  0  0  0  0  0  0  0  0
    6.7746   -1.7293    2.0244 H   0  0  0  0  0  0  0  0  0  0  0  0
    5.1120   -1.2296    2.2882 H   0  0  0  0  0  0  0  0  0  0  0  0
    6.1770   -4.7841    0.0780 H   0  0  0  0  0  0  0  0  0  0  0  0
    7.1871   -4.2183    1.3607 H   0  0  0  0  0  0  0  0  0  0  0  0
    7.0352   -3.2667   -0.1105 H   0  0  0  0  0  0  0  0  0  0  0  0
    3.4808   -2.1336    0.9097 H   0  0  0  0  0  0  0  0  0  0  0  0
    2.2524   -3.3969   -0.4441 H   0  0  0  0  0  0  0  0  0  0  0  0
    3.5600   -4.1996   -1.2321 H   0  0  0  0  0  0  0  0  0  0  0  0
    2.0780   -5.4809    0.5443 H   0  0  0  0  0  0  0  0  0  0  0  0
    3.8277   -6.1932   -0.5734 H   0  0  0  0  0  0  0  0  0  0  0  0
    2.0181   -2.7612    2.0504 H   0  0  0  0  0  0  0  0  0  0  0  0
    1.2836   -3.8959    3.0302 H   0  0  0  0  0  0  0  0  0  0  0  0
    3.1249   -3.3613    6.4879 H   0  0  0  0  0  0  0  0  0  0  0  0
    5.3852   -2.6394    3.9617 H   0  0  0  0  0  0  0  0  0  0  0  0
    5.7342   -4.3099    4.3411 H   0  0  0  0  0  0  0  0  0  0  0  0
    5.3525   -4.9281    2.3229 H   0  0  0  0  0  0  0  0  0  0  0  0
    1.9964   -4.9081    4.9983 H   0  0  0  0  0  0  0  0  0  0  0  0
    4.5705   -6.1348    5.9912 H   0  0  0  0  0  0  0  0  0  0  0  0
    3.2321   -6.1953    7.8066 H   0  0  0  0  0  0  0  0  0  0  0  0
    3.5938   -8.1198    5.0830 H   0  0  0  0  0  0  0  0  0  0  0  0
    2.7620   -9.1020    6.7846 H   0  0  0  0  0  0  0  0  0  0  0  0
    0.9593   -6.7130    5.4592 H   0  0  0  0  0  0  0  0  0  0  0  0
   -0.4435   -9.9709    6.5800 H   0  0  0  0  0  0  0  0  0  0  0  0
    0.3128   -8.5198    7.2278 H   0  0  0  0  0  0  0  0  0  0  0  0
    1.2587   -9.9475    6.7513 H   0  0  0  0  0  0  0  0  0  0  0  0
   -1.6228   -9.0516    5.1191 H   0  0  0  0  0  0  0  0  0  0  0  0
   -1.1306   -8.4783    3.6011 H   0  0  0  0  0  0  0  0  0  0  0  0
   -1.1819   -7.3556    4.9654 H   0  0  0  0  0  0  0  0  0  0  0  0
    2.0857  -10.1482    4.4804 H   0  0  0  0  0  0  0  0  0  0  0  0
    0.4731  -10.7612    4.2486 H   0  0  0  0  0  0  0  0  0  0  0  0
    1.6410  -10.2557    2.1055 H   0  0  0  0  0  0  0  0  0  0  0  0
    0.1967   -9.3096    2.2404 H   0  0  0  0  0  0  0  0  0  0  0  0
    0.0331   -5.6485    3.6743 H   0  0  0  0  0  0  0  0  0  0  0  0
   -0.2459   -6.9642    2.5426 H   0  0  0  0  0  0  0  0  0  0  0  0
    0.6592   -5.6375    2.0393 H   0  0  0  0  0  0  0  0  0  0  0  0
    4.2247   -7.0862    2.4639 H   0  0  0  0  0  0  0  0  0  0  0  0
  1  2  2  0
  1 37  1  0
  1 38  1  0
  2  3  1  0
  2  4  1  0
  3 39  1  0
  3 40  1  0
  3 41  1  0
  4  9  1  0
  4  5  1  0
  4 42  1  6
  5  6  1  0
  5 43  1  0
  5 44  1  0
  6  7  1  0
  6 45  1  0
  6 46  1  0
  7 19  1  0
  7  8  1  6
  7  9  1  0
  8 47  1  0
  8 48  1  0
  8 49  1  0
  9 10  1  0
  9 50  1  1
 10 11  1  0
 10 51  1  0
 10 52  1  0
 11 12  1  0
 11 13  1  0
 11 53  1  1
 12 54  1  0
 13 19  1  0
 13 35  1  0
 13 14  1  1
 14 15  1  0
 14 55  1  0
 14 56  1  0
 15 16  1  0
 16 17  1  1
 16 18  1  0
 16 20  1  0
 17 57  1  0
 18 19  1  0
 18 58  1  0
 18 59  1  0
 19 60  1  6
 20 35  1  0
 20 21  1  0
 20 61  1  1
 21 22  1  0
 21 23  1  0
 21 62  1  1
 22 63  1  0
 23 24  1  0
 23 25  1  0
 23 64  1  6
 24 65  1  0
 25 33  1  0
 25 26  1  0
 25 66  1  1
 26 27  1  0
 26 28  1  0
 26 29  1  0
 27 67  1  0
 27 68  1  0
 27 69  1  0
 28 70  1  0
 28 71  1  0
 28 72  1  0
 29 30  1  0
 29 73  1  0
 29 74  1  0
 30 31  1  0
 30 75  1  0
 30 76  1  0
 31 32  2  0
 31 33  1  0
 33 34  1  6
 33 35  1  0
 34 77  1  0
 34 78  1  0
 34 79  1  0
 35 36  1  1
 36 80  1  0
M  END
>  <i_m_ct_stereo_status>  (324) 
1

>  <s_m_source_file>  (324) 
/var/tmp/pbs.5076255.sched01/tmpvuzdko10/1206lwnzxed.sdf

>  <i_m_source_file_index>  (324) 
27

>  <i_lp_mmshare_version>  (324) 
48012

>  <i_f3d_flags>  (324) 
0

>  <s_epik_input>  (324) 
W0NIMl09QyhbQ0gzXSlbQ0BIXShbQ0gyXVtDSDJdMSlbQ0BASF0oW0NIMl1bQ0BIXTJbT0hdKVtDQF0xKFtDSDNdKVtDQEhdKFtDQF0yMzQpW0NIMl1bQ0BAXShbT0hdKShPW0NIMl0zKVtDQEhdNVtDQEBdNChbT0hdKVtDQF02KFtDSDNdKVtDQEhdKFtDQEhdKFtPSF0pW0NAQEhdNVtPSF0pQyhbQ0gzXSkoW0NIM10pW0NIMl1bQ0gyXUM2PU8=

>  <s_epik_cmdline>  (324) 
J2VwaWtfcHl0aG9uJywgJy1waHQnLCAnMi4wJywgJy1waCcsICc3LjAnLCAnLXRuJywgJzgnLCAnLW1hJywgJzIwMCcsICctaW1hZScsICc8aW5maWxlLm1hZT4nLCAnLW9tYWUnLCAnPG91dGZpbGUubWFlPic=

>  <r_lp_tautomer_probability>  (324) 
1

>  <r_epik_Ionization_Penalty>  (324) 
9.72156e-07

>  <r_epik_Ionization_Penalty_Charging>  (324) 
0

>  <r_epik_Ionization_Penalty_Neutral>  (324) 
9.72156e-07

>  <r_epik_State_Penalty>  (324) 
-0

>  <r_epik_Charging_Adjusted_Penalty>  (324) 
0

>  <i_epik_Tot_Q>  (324) 
0

>  <i_epik_Tot_abs_Q>  (324) 
0

>  <s_lp_Force_Field>  (324) 
OPLS3e

>  <r_lp_Energy>  (324) 
123.054

>  <b_lp_Chiralities_Consistent>  (324) 
1

>  <s_lp_Variant>  (324) 
107:0-1

>  <s_i_glide_gridfile>  (324) 
pfpi4k_grid

>  <i_i_glide_lignum>  (324) 
27

>  <i_i_glide_rotatable_bonds>  (324) 
6

>  <r_i_docking_score>  (324) 
-3.76228

>  <r_i_glide_ligand_efficiency>  (324) 
-0.104508

>  <r_i_glide_ligand_efficiency_sa>  (324) 
-0.345077

>  <r_i_glide_ligand_efficiency_ln>  (324) 
-0.820828

>  <r_i_glide_gscore>  (324) 
-3.76228

>  <r_i_glide_lipo>  (324) 
-0.634985

>  <r_i_glide_hbond>  (324) 
0

>  <r_i_glide_metal>  (324) 
-0

>  <r_i_glide_rewards>  (324) 
-1

>  <r_i_glide_evdw>  (324) 
-34.628

>  <r_i_glide_ecoul>  (324) 
-3.08368

>  <r_i_glide_erotb>  (324) 
0.0802903

>  <r_i_glide_esite>  (324) 
-0.0136325

>  <r_i_glide_emodel>  (324) 
-57.2195

>  <r_i_glide_energy>  (324) 
-37.7117

>  <r_i_glide_einternal>  (324) 
1.07524

>  <r_i_glide_intrahb_reward>  (324) 
-1

>  <i_i_glide_confnum>  (324) 
1

>  <i_i_glide_posenum>  (324) 
3

>  <r_i_glide_eff_state_penalty>  (324) 
0

>  <ligand_id>  (324) 
107

>  <original_smiles>  (324) 
C=C(C)C1CCC2(C)C1CC(O)C13COC(O)(CC21)C1C(O)C(O)C2C(C)(C)CCC(=O)C2(C)C13O

>  <smiles>  (324) 
[H]OC1([H])C([H])(O[H])C2([H])C(C([H])([H])[H])(C(=O)C([H])([H])C([H])([H])C2(C([H])([H])[H])C([H])([H])[H])C2(O[H])C1([H])C1(O[H])OC([H])([H])C23C([H])(O[H])C([H])([H])C2([H])C([H])(C(=C([H])[H])C([H])([H])[H])C([H])([H])C([H])([H])C2(C([H])([H])[H])C3([H])C1([H])[H]

$$$$
107:0:1
     RDKit          3D

 80 85  0  0  1  0  0  0  0  0999 V2000
    0.1581    1.4149    5.9055 C   0  0  0  0  0  0  0  0  0  0  0  0
    0.9648    0.4562    6.4442 C   0  0  0  0  0  0  0  0  0  0  0  0
    2.4501    0.6065    6.2371 C   0  0  0  0  0  0  0  0  0  0  0  0
    0.3879   -0.7202    7.2414 C   0  0  2  0  0  0  0  0  0  0  0  0
    0.8283   -0.8430    8.7201 C   0  0  0  0  0  0  0  0  0  0  0  0
    1.2098   -2.3324    8.9564 C   0  0  0  0  0  0  0  0  0  0  0  0
    1.6861   -2.8700    7.5893 C   0  0  2  0  0  0  0  0  0  0  0  0
    3.1585   -2.3705    7.4392 C   0  0  0  0  0  0  0  0  0  0  0  0
    0.6254   -2.1574    6.7217 C   0  0  2  0  0  0  0  0  0  0  0  0
    0.6347   -2.4818    5.2126 C   0  0  0  0  0  0  0  0  0  0  0  0
    1.0982   -3.9296    4.8818 C   0  0  1  0  0  0  0  0  0  0  0  0
    2.4616   -3.8103    4.5588 O   0  0  0  0  0  0  0  0  0  0  0  0
    0.8944   -4.9910    6.0366 C   0  0  2  0  0  0  0  0  0  0  0  0
   -0.5922   -5.1247    6.5134 C   0  0  0  0  0  0  0  0  0  0  0  0
   -0.6425   -5.6817    7.8362 O   0  0  0  0  0  0  0  0  0  0  0  0
    0.4850   -6.4354    8.1926 C   0  0  2  0  0  0  0  0  0  0  0  0
    0.1987   -7.1835    9.3497 O   0  0  0  0  0  0  0  0  0  0  0  0
    1.5561   -5.3862    8.5232 C   0  0  0  0  0  0  0  0  0  0  0  0
    1.6808   -4.4308    7.3089 C   0  0  2  0  0  0  0  0  0  0  0  0
    0.8207   -7.3638    6.9617 C   0  0  2  0  0  0  0  0  0  0  0  0
    1.6290   -8.6708    7.2094 C   0  0  1  0  0  0  0  0  0  0  0  0
    0.7443   -9.5475    7.8818 O   0  0  0  0  0  0  0  0  0  0  0  0
    2.0517   -9.3322    5.8551 C   0  0  1  0  0  0  0  0  0  0  0  0
    2.5414  -10.6492    6.0780 O   0  0  0  0  0  0  0  0  0  0  0  0
    0.9964   -9.0071    4.7197 C   0  0  2  0  0  0  0  0  0  0  0  0
    0.9881   -9.9531    3.4400 C   0  0  0  0  0  0  0  0  0  0  0  0
    1.1044  -11.4525    3.7736 C   0  0  0  0  0  0  0  0  0  0  0  0
   -0.3468   -9.8553    2.6569 C   0  0  0  0  0  0  0  0  0  0  0  0
    2.1773   -9.5767    2.5336 C   0  0  0  0  0  0  0  0  0  0  0  0
    2.1309   -8.1190    2.0677 C   0  0  0  0  0  0  0  0  0  0  0  0
    2.0109   -7.1198    3.2236 C   0  0  0  0  0  0  0  0  0  0  0  0
    2.6532   -6.0812    3.1449 O   0  0  0  0  0  0  0  0  0  0  0  0
    1.0222   -7.4077    4.4083 C   0  0  1  0  0  0  0  0  0  0  0  0
   -0.3699   -7.0005    3.8567 C   0  0  0  0  0  0  0  0  0  0  0  0
    1.3644   -6.5252    5.7539 C   0  0  1  0  0  0  0  0  0  0  0  0
    2.7876   -6.5021    5.8894 O   0  0  0  0  0  0  0  0  0  0  0  0
    0.6148    2.2151    5.3565 H   0  0  0  0  0  0  0  0  0  0  0  0
   -0.9067    1.3965    6.0190 H   0  0  0  0  0  0  0  0  0  0  0  0
    2.8389   -0.2841    5.7452 H   0  0  0  0  0  0  0  0  0  0  0  0
    2.9455    0.7523    7.2029 H   0  0  0  0  0  0  0  0  0  0  0  0
    2.7018    1.4569    5.5934 H   0  0  0  0  0  0  0  0  0  0  0  0
   -0.6874   -0.5442    7.2357 H   0  0  0  0  0  0  0  0  0  0  0  0
    1.6693   -0.1819    8.9175 H   0  0  0  0  0  0  0  0  0  0  0  0
    0.0444   -0.5396    9.4135 H   0  0  0  0  0  0  0  0  0  0  0  0
    1.9693   -2.4417    9.7322 H   0  0  0  0  0  0  0  0  0  0  0  0
    0.3191   -2.8700    9.2922 H   0  0  0  0  0  0  0  0  0  0  0  0
    3.4926   -2.4138    6.4028 H   0  0  0  0  0  0  0  0  0  0  0  0
    3.8456   -3.0261    7.9939 H   0  0  0  0  0  0  0  0  0  0  0  0
    3.3070   -1.3599    7.8242 H   0  0  0  0  0  0  0  0  0  0  0  0
   -0.3125   -2.5785    7.0724 H   0  0  0  0  0  0  0  0  0  0  0  0
   -0.3896   -2.3682    4.8584 H   0  0  0  0  0  0  0  0  0  0  0  0
    1.2013   -1.7420    4.6427 H   0  0  0  0  0  0  0  0  0  0  0  0
    0.6029   -4.2294    3.9620 H   0  0  0  0  0  0  0  0  0  0  0  0
    2.7589   -4.6624    4.2543 H   0  0  0  0  0  0  0  0  0  0  0  0
   -1.1924   -4.2274    6.4744 H   0  0  0  0  0  0  0  0  0  0  0  0
   -1.1724   -5.7935    5.8894 H   0  0  0  0  0  0  0  0  0  0  0  0
    0.9068   -7.7931    9.4994 H   0  0  0  0  0  0  0  0  0  0  0  0
    1.2422   -4.8675    9.4264 H   0  0  0  0  0  0  0  0  0  0  0  0
    2.5089   -5.8739    8.7435 H   0  0  0  0  0  0  0  0  0  0  0  0
    2.7225   -4.5796    7.0567 H   0  0  0  0  0  0  0  0  0  0  0  0
   -0.1719   -7.7117    6.6729 H   0  0  0  0  0  0  0  0  0  0  0  0
    2.5170   -8.4720    7.8123 H   0  0  0  0  0  0  0  0  0  0  0  0
    1.1226  -10.4215    7.8996 H   0  0  0  0  0  0  0  0  0  0  0  0
    2.9732   -8.8801    5.4998 H   0  0  0  0  0  0  0  0  0  0  0  0
    1.8811  -11.2221    6.4903 H   0  0  0  0  0  0  0  0  0  0  0  0
    0.0286   -9.2438    5.1712 H   0  0  0  0  0  0  0  0  0  0  0  0
    0.8162  -12.0836    2.9296 H   0  0  0  0  0  0  0  0  0  0  0  0
    0.4703  -11.7285    4.6186 H   0  0  0  0  0  0  0  0  0  0  0  0
    2.1332  -11.7499    3.9802 H   0  0  0  0  0  0  0  0  0  0  0  0
   -0.5157  -10.7362    2.0413 H   0  0  0  0  0  0  0  0  0  0  0  0
   -0.3747   -9.0494    1.9315 H   0  0  0  0  0  0  0  0  0  0  0  0
   -1.2058   -9.7583    3.3250 H   0  0  0  0  0  0  0  0  0  0  0  0
    3.1116   -9.7300    3.0726 H   0  0  0  0  0  0  0  0  0  0  0  0
    2.2276  -10.2356    1.6628 H   0  0  0  0  0  0  0  0  0  0  0  0
    3.0315   -7.8990    1.4891 H   0  0  0  0  0  0  0  0  0  0  0  0
    1.3008   -7.9561    1.3869 H   0  0  0  0  0  0  0  0  0  0  0  0
   -1.1808   -7.4813    4.4030 H   0  0  0  0  0  0  0  0  0  0  0  0
   -0.5010   -7.2285    2.8071 H   0  0  0  0  0  0  0  0  0  0  0  0
   -0.5493   -5.9351    3.8862 H   0  0  0  0  0  0  0  0  0  0  0  0
    3.1371   -7.3745    5.8433 H   0  0  0  0  0  0  0  0  0  0  0  0
  1  2  2  0
  1 37  1  0
  1 38  1  0
  2  3  1  0
  2  4  1  0
  3 39  1  0
  3 40  1  0
  3 41  1  0
  4  9  1  0
  4  5  1  0
  4 42  1  1
  5  6  1  0
  5 43  1  0
  5 44  1  0
  6  7  1  0
  6 45  1  0
  6 46  1  0
  7 19  1  0
  7  8  1  6
  7  9  1  0
  8 47  1  0
  8 48  1  0
  8 49  1  0
  9 10  1  0
  9 50  1  1
 10 11  1  0
 10 51  1  0
 10 52  1  0
 11 12  1  0
 11 13  1  0
 11 53  1  6
 12 54  1  0
 13 19  1  0
 13 35  1  0
 13 14  1  1
 14 15  1  0
 14 55  1  0
 14 56  1  0
 15 16  1  0
 16 17  1  1
 16 18  1  0
 16 20  1  0
 17 57  1  0
 18 19  1  0
 18 58  1  0
 18 59  1  0
 19 60  1  6
 20 35  1  0
 20 21  1  0
 20 61  1  6
 21 22  1  0
 21 23  1  0
 21 62  1  1
 22 63  1  0
 23 24  1  0
 23 25  1  0
 23 64  1  6
 24 65  1  0
 25 33  1  0
 25 26  1  0
 25 66  1  1
 26 27  1  0
 26 28  1  0
 26 29  1  0
 27 67  1  0
 27 68  1  0
 27 69  1  0
 28 70  1  0
 28 71  1  0
 28 72  1  0
 29 30  1  0
 29 73  1  0
 29 74  1  0
 30 31  1  0
 30 75  1  0
 30 76  1  0
 31 32  2  0
 31 33  1  0
 33 34  1  6
 33 35  1  0
 34 77  1  0
 34 78  1  0
 34 79  1  0
 35 36  1  1
 36 80  1  0
M  END
>  <i_m_ct_stereo_status>  (325) 
1

>  <s_m_source_file>  (325) 
/var/tmp/pbs.5076255.sched01/tmpvuzdko10/1206lwnzxed.sdf

>  <i_m_source_file_index>  (325) 
27

>  <i_lp_mmshare_version>  (325) 
48012

>  <i_f3d_flags>  (325) 
0

>  <s_epik_input>  (325) 
W0NIMl09QyhbQ0gzXSlbQ0BIXShbQ0gyXVtDSDJdMSlbQ0BASF0oW0NIMl1bQ0BIXTJbT0hdKVtDQF0xKFtDSDNdKVtDQEhdKFtDQF0yMzQpW0NIMl1bQ0BAXShbT0hdKShPW0NIMl0zKVtDQEhdNVtDQEBdNChbT0hdKVtDQF02KFtDSDNdKVtDQEhdKFtDQEhdKFtPSF0pW0NAQEhdNVtPSF0pQyhbQ0gzXSkoW0NIM10pW0NIMl1bQ0gyXUM2PU8=

>  <s_epik_cmdline>  (325) 
J2VwaWtfcHl0aG9uJywgJy1waHQnLCAnMi4wJywgJy1waCcsICc3LjAnLCAnLXRuJywgJzgnLCAnLW1hJywgJzIwMCcsICctaW1hZScsICc8aW5maWxlLm1hZT4nLCAnLW9tYWUnLCAnPG91dGZpbGUubWFlPic=

>  <r_lp_tautomer_probability>  (325) 
1

>  <r_epik_Ionization_Penalty>  (325) 
9.72156e-07

>  <r_epik_Ionization_Penalty_Charging>  (325) 
0

>  <r_epik_Ionization_Penalty_Neutral>  (325) 
9.72156e-07

>  <r_epik_State_Penalty>  (325) 
-0

>  <r_epik_Charging_Adjusted_Penalty>  (325) 
0

>  <i_epik_Tot_Q>  (325) 
0

>  <i_epik_Tot_abs_Q>  (325) 
0

>  <s_lp_Force_Field>  (325) 
OPLS3e

>  <r_lp_Energy>  (325) 
123.054

>  <b_lp_Chiralities_Consistent>  (325) 
1

>  <s_lp_Variant>  (325) 
107:0-1

>  <s_i_glide_gridfile>  (325) 
pfpi4k_grid

>  <i_i_glide_lignum>  (325) 
27

>  <i_i_glide_rotatable_bonds>  (325) 
6

>  <r_i_docking_score>  (325) 
-3.59034

>  <r_i_glide_ligand_efficiency>  (325) 
-0.0997316

>  <r_i_glide_ligand_efficiency_sa>  (325) 
-0.329307

>  <r_i_glide_ligand_efficiency_ln>  (325) 
-0.783315

>  <r_i_glide_gscore>  (325) 
-3.59034

>  <r_i_glide_lipo>  (325) 
-0.344458

>  <r_i_glide_hbond>  (325) 
0

>  <r_i_glide_metal>  (325) 
-0

>  <r_i_glide_rewards>  (325) 
-0.5

>  <r_i_glide_evdw>  (325) 
-26.7601

>  <r_i_glide_ecoul>  (325) 
-9.80261

>  <r_i_glide_erotb>  (325) 
0.0802903

>  <r_i_glide_esite>  (325) 
-0.0177757

>  <r_i_glide_emodel>  (325) 
-49.5817

>  <r_i_glide_energy>  (325) 
-36.5627

>  <r_i_glide_einternal>  (325) 
3.00914

>  <r_i_glide_intrahb_reward>  (325) 
-0.5

>  <i_i_glide_confnum>  (325) 
4

>  <i_i_glide_posenum>  (325) 
2

>  <r_i_glide_eff_state_penalty>  (325) 
0

>  <ligand_id>  (325) 
107

>  <original_smiles>  (325) 
C=C(C)C1CCC2(C)C1CC(O)C13COC(O)(CC21)C1C(O)C(O)C2C(C)(C)CCC(=O)C2(C)C13O

>  <smiles>  (325) 
[H]OC1([H])C([H])(O[H])C2([H])C(C([H])([H])[H])(C(=O)C([H])([H])C([H])([H])C2(C([H])([H])[H])C([H])([H])[H])C2(O[H])C1([H])C1(O[H])OC([H])([H])C23C([H])(O[H])C([H])([H])C2([H])C([H])(C(=C([H])[H])C([H])([H])[H])C([H])([H])C([H])([H])C2(C([H])([H])[H])C3([H])C1([H])[H]

$$$$
107:0:2
     RDKit          3D

 80 85  0  0  1  0  0  0  0  0999 V2000
    1.2098    0.1490    1.6832 C   0  0  0  0  0  0  0  0  0  0  0  0
    1.5747   -0.5110    2.7987 C   0  0  0  0  0  0  0  0  0  0  0  0
    0.5955   -0.6099    3.9629 C   0  0  0  0  0  0  0  0  0  0  0  0
    2.9655   -1.1295    3.0373 C   0  0  2  0  0  0  0  0  0  0  0  0
    4.1371   -0.7050    2.1015 C   0  0  0  0  0  0  0  0  0  0  0  0
    4.8703   -2.0086    1.6941 C   0  0  0  0  0  0  0  0  0  0  0  0
    3.8028   -3.1245    1.7547 C   0  0  2  0  0  0  0  0  0  0  0  0
    2.9217   -2.9563    0.4868 C   0  0  0  0  0  0  0  0  0  0  0  0
    3.0909   -2.6742    3.0374 C   0  0  2  0  0  0  0  0  0  0  0  0
    1.9752   -3.6205    3.5437 C   0  0  0  0  0  0  0  0  0  0  0  0
    2.2111   -5.1318    3.2589 C   0  0  1  0  0  0  0  0  0  0  0  0
    1.4530   -5.4429    2.1051 O   0  0  0  0  0  0  0  0  0  0  0  0
    3.7171   -5.5384    3.0657 C   0  0  2  0  0  0  0  0  0  0  0  0
    4.6279   -5.1957    4.3038 C   0  0  0  0  0  0  0  0  0  0  0  0
    6.0100   -5.1518    3.9137 O   0  0  0  0  0  0  0  0  0  0  0  0
    6.2949   -5.8596    2.7327 C   0  0  2  0  0  0  0  0  0  0  0  0
    7.6842   -6.0159    2.5917 O   0  0  0  0  0  0  0  0  0  0  0  0
    5.7686   -4.9642    1.5937 C   0  0  0  0  0  0  0  0  0  0  0  0
    4.2745   -4.6387    1.8622 C   0  0  2  0  0  0  0  0  0  0  0  0
    5.5693   -7.2510    2.8665 C   0  0  2  0  0  0  0  0  0  0  0  0
    6.1223   -8.4483    2.0487 C   0  0  1  0  0  0  0  0  0  0  0  0
    7.3666   -8.8094    2.6325 O   0  0  0  0  0  0  0  0  0  0  0  0
    5.1357   -9.6573    2.1293 C   0  0  1  0  0  0  0  0  0  0  0  0
    5.8314  -10.7976    1.6791 O   0  0  0  0  0  0  0  0  0  0  0  0
    4.3799   -9.6726    3.5160 C   0  0  2  0  0  0  0  0  0  0  0  0
    3.7546  -11.0545    4.0087 C   0  0  0  0  0  0  0  0  0  0  0  0
    4.6775  -12.2887    3.8009 C   0  0  0  0  0  0  0  0  0  0  0  0
    3.4674  -11.0750    5.5430 C   0  0  0  0  0  0  0  0  0  0  0  0
    2.4621  -11.2934    3.2201 C   0  0  0  0  0  0  0  0  0  0  0  0
    1.4202  -10.1944    3.4013 C   0  0  0  0  0  0  0  0  0  0  0  0
    1.9658   -8.8084    3.0674 C   0  0  0  0  0  0  0  0  0  0  0  0
    1.2357   -8.0483    2.4454 O   0  0  0  0  0  0  0  0  0  0  0  0
    3.3877   -8.3846    3.5821 C   0  0  1  0  0  0  0  0  0  0  0  0
    3.1756   -8.0133    5.0753 C   0  0  0  0  0  0  0  0  0  0  0  0
    4.0160   -7.1053    2.7609 C   0  0  1  0  0  0  0  0  0  0  0  0
    3.6854   -7.2788    1.3827 O   0  0  0  0  0  0  0  0  0  0  0  0
    0.2234    0.5819    1.5977 H   0  0  0  0  0  0  0  0  0  0  0  0
    1.8543    0.2899    0.8317 H   0  0  0  0  0  0  0  0  0  0  0  0
    0.9985   -0.0971    4.8366 H   0  0  0  0  0  0  0  0  0  0  0  0
    0.3655   -1.6335    4.2503 H   0  0  0  0  0  0  0  0  0  0  0  0
   -0.3501   -0.1286    3.7101 H   0  0  0  0  0  0  0  0  0  0  0  0
    3.2340   -0.7728    4.0327 H   0  0  0  0  0  0  0  0  0  0  0  0
    3.8163   -0.1856    1.2003 H   0  0  0  0  0  0  0  0  0  0  0  0
    4.8225   -0.0221    2.6086 H   0  0  0  0  0  0  0  0  0  0  0  0
    5.3347   -1.9249    0.7108 H   0  0  0  0  0  0  0  0  0  0  0  0
    5.6637   -2.1976    2.4201 H   0  0  0  0  0  0  0  0  0  0  0  0
    2.0137   -3.5473    0.5253 H   0  0  0  0  0  0  0  0  0  0  0  0
    3.4597   -3.2656   -0.4079 H   0  0  0  0  0  0  0  0  0  0  0  0
    2.6139   -1.9327    0.3088 H   0  0  0  0  0  0  0  0  0  0  0  0
    3.8652   -2.7443    3.7920 H   0  0  0  0  0  0  0  0  0  0  0  0
    1.9153   -3.4838    4.6257 H   0  0  0  0  0  0  0  0  0  0  0  0
    1.0028   -3.3374    3.1421 H   0  0  0  0  0  0  0  0  0  0  0  0
    1.7358   -5.6867    4.0627 H   0  0  0  0  0  0  0  0  0  0  0  0
    1.5874   -6.3739    1.9250 H   0  0  0  0  0  0  0  0  0  0  0  0
    4.3802   -4.3008    4.8580 H   0  0  0  0  0  0  0  0  0  0  0  0
    4.5706   -5.9408    5.0874 H   0  0  0  0  0  0  0  0  0  0  0  0
    7.9844   -6.5488    3.3224 H   0  0  0  0  0  0  0  0  0  0  0  0
    6.3921   -4.0776    1.5576 H   0  0  0  0  0  0  0  0  0  0  0  0
    5.8934   -5.4791    0.6407 H   0  0  0  0  0  0  0  0  0  0  0  0
    3.8045   -5.0367    0.9679 H   0  0  0  0  0  0  0  0  0  0  0  0
    5.7869   -7.5093    3.9030 H   0  0  0  0  0  0  0  0  0  0  0  0
    6.2789   -8.1668    1.0070 H   0  0  0  0  0  0  0  0  0  0  0  0
    8.0337   -8.2350    2.2726 H   0  0  0  0  0  0  0  0  0  0  0  0
    4.3763   -9.5883    1.3564 H   0  0  0  0  0  0  0  0  0  0  0  0
    5.2064  -11.3588    1.2214 H   0  0  0  0  0  0  0  0  0  0  0  0
    5.1727   -9.5293    4.2539 H   0  0  0  0  0  0  0  0  0  0  0  0
    4.3474  -13.1508    4.3841 H   0  0  0  0  0  0  0  0  0  0  0  0
    5.7076  -12.0736    4.0943 H   0  0  0  0  0  0  0  0  0  0  0  0
    4.6651  -12.6453    2.7709 H   0  0  0  0  0  0  0  0  0  0  0  0
    3.4282  -12.0890    5.9505 H   0  0  0  0  0  0  0  0  0  0  0  0
    2.4937  -10.6718    5.8112 H   0  0  0  0  0  0  0  0  0  0  0  0
    4.2343  -10.5374    6.1056 H   0  0  0  0  0  0  0  0  0  0  0  0
    2.7123  -11.3687    2.1632 H   0  0  0  0  0  0  0  0  0  0  0  0
    2.0172  -12.2504    3.5016 H   0  0  0  0  0  0  0  0  0  0  0  0
    0.5691  -10.4099    2.7541 H   0  0  0  0  0  0  0  0  0  0  0  0
    1.0271  -10.1884    4.4142 H   0  0  0  0  0  0  0  0  0  0  0  0
    4.1002   -8.0676    5.6468 H   0  0  0  0  0  0  0  0  0  0  0  0
    2.4456   -8.6359    5.5769 H   0  0  0  0  0  0  0  0  0  0  0  0
    2.7679   -7.0244    5.2219 H   0  0  0  0  0  0  0  0  0  0  0  0
    3.8626   -8.1735    1.1252 H   0  0  0  0  0  0  0  0  0  0  0  0
  1  2  2  0
  1 37  1  0
  1 38  1  0
  2  3  1  0
  2  4  1  0
  3 39  1  0
  3 40  1  0
  3 41  1  0
  4  9  1  0
  4  5  1  0
  4 42  1  1
  5  6  1  0
  5 43  1  0
  5 44  1  0
  6  7  1  0
  6 45  1  0
  6 46  1  0
  7 19  1  0
  7  8  1  6
  7  9  1  0
  8 47  1  0
  8 48  1  0
  8 49  1  0
  9 10  1  0
  9 50  1  1
 10 11  1  0
 10 51  1  0
 10 52  1  0
 11 12  1  0
 11 13  1  0
 11 53  1  1
 12 54  1  0
 13 19  1  0
 13 35  1  0
 13 14  1  1
 14 15  1  0
 14 55  1  0
 14 56  1  0
 15 16  1  0
 16 17  1  6
 16 18  1  0
 16 20  1  0
 17 57  1  0
 18 19  1  0
 18 58  1  0
 18 59  1  0
 19 60  1  6
 20 35  1  0
 20 21  1  0
 20 61  1  1
 21 22  1  0
 21 23  1  0
 21 62  1  6
 22 63  1  0
 23 24  1  0
 23 25  1  0
 23 64  1  6
 24 65  1  0
 25 33  1  0
 25 26  1  0
 25 66  1  1
 26 27  1  0
 26 28  1  0
 26 29  1  0
 27 67  1  0
 27 68  1  0
 27 69  1  0
 28 70  1  0
 28 71  1  0
 28 72  1  0
 29 30  1  0
 29 73  1  0
 29 74  1  0
 30 31  1  0
 30 75  1  0
 30 76  1  0
 31 32  2  0
 31 33  1  0
 33 34  1  1
 33 35  1  0
 34 77  1  0
 34 78  1  0
 34 79  1  0
 35 36  1  6
 36 80  1  0
M  END
>  <i_m_ct_stereo_status>  (326) 
1

>  <s_m_source_file>  (326) 
/var/tmp/pbs.5076255.sched01/tmpvuzdko10/1206lwnzxed.sdf

>  <i_m_source_file_index>  (326) 
27

>  <i_lp_mmshare_version>  (326) 
48012

>  <i_f3d_flags>  (326) 
0

>  <s_epik_input>  (326) 
W0NIMl09QyhbQ0gzXSlbQ0BIXShbQ0gyXVtDSDJdMSlbQ0BASF0oW0NIMl1bQ0BIXTJbT0hdKVtDQF0xKFtDSDNdKVtDQEhdKFtDQF0yMzQpW0NIMl1bQ0BAXShbT0hdKShPW0NIMl0zKVtDQEhdNVtDQEBdNChbT0hdKVtDQF02KFtDSDNdKVtDQEhdKFtDQEhdKFtPSF0pW0NAQEhdNVtPSF0pQyhbQ0gzXSkoW0NIM10pW0NIMl1bQ0gyXUM2PU8=

>  <s_epik_cmdline>  (326) 
J2VwaWtfcHl0aG9uJywgJy1waHQnLCAnMi4wJywgJy1waCcsICc3LjAnLCAnLXRuJywgJzgnLCAnLW1hJywgJzIwMCcsICctaW1hZScsICc8aW5maWxlLm1hZT4nLCAnLW9tYWUnLCAnPG91dGZpbGUubWFlPic=

>  <r_lp_tautomer_probability>  (326) 
1

>  <r_epik_Ionization_Penalty>  (326) 
9.72156e-07

>  <r_epik_Ionization_Penalty_Charging>  (326) 
0

>  <r_epik_Ionization_Penalty_Neutral>  (326) 
9.72156e-07

>  <r_epik_State_Penalty>  (326) 
-0

>  <r_epik_Charging_Adjusted_Penalty>  (326) 
0

>  <i_epik_Tot_Q>  (326) 
0

>  <i_epik_Tot_abs_Q>  (326) 
0

>  <s_lp_Force_Field>  (326) 
OPLS3e

>  <r_lp_Energy>  (326) 
123.054

>  <b_lp_Chiralities_Consistent>  (326) 
1

>  <s_lp_Variant>  (326) 
107:0-1

>  <s_i_glide_gridfile>  (326) 
pfpi4k_grid

>  <i_i_glide_lignum>  (326) 
27

>  <i_i_glide_rotatable_bonds>  (326) 
6

>  <r_i_docking_score>  (326) 
-3.36564

>  <r_i_glide_ligand_efficiency>  (326) 
-0.09349

>  <r_i_glide_ligand_efficiency_sa>  (326) 
-0.308697

>  <r_i_glide_ligand_efficiency_ln>  (326) 
-0.734291

>  <r_i_glide_gscore>  (326) 
-3.36564

>  <r_i_glide_lipo>  (326) 
-0.341392

>  <r_i_glide_hbond>  (326) 
0

>  <r_i_glide_metal>  (326) 
-0

>  <r_i_glide_rewards>  (326) 
-0.524073

>  <r_i_glide_evdw>  (326) 
-29.1469

>  <r_i_glide_ecoul>  (326) 
-7.4518

>  <r_i_glide_erotb>  (326) 
0.0802903

>  <r_i_glide_esite>  (326) 
-0.00534672

>  <r_i_glide_emodel>  (326) 
-49.328

>  <r_i_glide_energy>  (326) 
-36.5987

>  <r_i_glide_einternal>  (326) 
1.85479

>  <r_i_glide_intrahb_reward>  (326) 
-0.5

>  <i_i_glide_confnum>  (326) 
1

>  <i_i_glide_posenum>  (326) 
38

>  <r_i_glide_eff_state_penalty>  (326) 
0

>  <ligand_id>  (326) 
107

>  <original_smiles>  (326) 
C=C(C)C1CCC2(C)C1CC(O)C13COC(O)(CC21)C1C(O)C(O)C2C(C)(C)CCC(=O)C2(C)C13O

>  <smiles>  (326) 
[H]OC1([H])C([H])(O[H])C2([H])C(C([H])([H])[H])(C(=O)C([H])([H])C([H])([H])C2(C([H])([H])[H])C([H])([H])[H])C2(O[H])C1([H])C1(O[H])OC([H])([H])C23C([H])(O[H])C([H])([H])C2([H])C([H])(C(=C([H])[H])C([H])([H])[H])C([H])([H])C([H])([H])C2(C([H])([H])[H])C3([H])C1([H])[H]

$$$$
108:0:0
     RDKit          3D

 53 58  0  0  1  0  0  0  0  0999 V2000
    3.4640   -2.7335   -0.5084 C   0  0  0  0  0  0  0  0  0  0  0  0
    3.6190   -3.1833    0.9377 C   0  0  0  0  0  0  0  0  0  0  0  0
    2.9413   -4.2134    1.4860 C   0  0  0  0  0  0  0  0  0  0  0  0
    3.0514   -4.6281    2.9555 C   0  0  0  0  0  0  0  0  0  0  0  0
    4.4498   -5.1532    3.3747 C   0  0  2  0  0  0  0  0  0  0  0  0
    5.0518   -4.1924    4.4712 C   0  0  0  0  0  0  0  0  0  0  0  0
    5.4151   -5.0893    2.1585 C   0  0  0  0  0  0  0  0  0  0  0  0
    5.8601   -3.8845    1.6720 C   0  0  0  0  0  0  0  0  0  0  0  0
    6.9346   -3.7613    0.5889 C   0  0  0  0  0  0  0  0  0  0  0  0
    4.8891   -2.7163    1.5723 C   0  0  1  0  0  0  0  0  0  0  0  0
    5.3550   -1.2718    1.4793 C   0  0  0  0  0  0  0  0  0  0  0  0
    4.7692   -1.7962    2.6667 O   0  0  0  0  0  0  0  0  0  0  0  0
    5.2812   -6.2139    1.1123 C   0  0  2  0  0  0  0  0  0  0  0  0
    4.0627   -6.0843    0.1224 C   0  0  0  0  0  0  0  0  0  0  0  0
    2.7574   -5.3888    0.6154 C   0  0  0  0  0  0  0  0  0  0  0  0
    1.6550   -5.8598    0.3331 O   0  0  0  0  0  0  0  0  0  0  0  0
    5.6407   -7.6135    1.6197 C   0  0  0  0  0  0  0  0  0  0  0  0
    6.7893   -7.8573    1.9924 O   0  0  0  0  0  0  0  0  0  0  0  0
    4.5690   -8.7041    1.6401 C   0  0  0  0  0  0  0  0  0  0  0  0
    3.3222   -8.3309    2.4704 C   0  0  1  0  0  0  0  0  0  0  0  0
    2.3882   -9.5574    2.5156 C   0  0  0  0  0  0  0  0  0  0  0  0
    3.6984   -7.8390    3.8727 C   0  0  2  0  0  0  0  0  0  0  0  0
    3.9012   -8.9190    4.8165 O   0  0  0  0  0  0  0  0  0  0  0  0
    2.9950   -7.8571    5.2031 C   0  0  1  0  0  0  0  0  0  0  0  0
    3.5817   -6.5147    5.4958 C   0  0  1  0  0  0  0  0  0  0  0  0
    4.2549   -6.5146    6.7239 O   0  0  0  0  0  0  0  0  0  0  0  0
    4.4171   -6.5085    4.1869 C   0  0  2  0  0  0  0  0  0  0  0  0
    3.1617   -1.6858   -0.5033 H   0  0  0  0  0  0  0  0  0  0  0  0
    2.6720   -3.2806   -1.0288 H   0  0  0  0  0  0  0  0  0  0  0  0
    4.3926   -2.8250   -1.0758 H   0  0  0  0  0  0  0  0  0  0  0  0
    2.7815   -3.7496    3.5533 H   0  0  0  0  0  0  0  0  0  0  0  0
    2.2900   -5.3732    3.1761 H   0  0  0  0  0  0  0  0  0  0  0  0
    4.3124   -3.8509    5.1928 H   0  0  0  0  0  0  0  0  0  0  0  0
    5.5725   -3.3035    4.1290 H   0  0  0  0  0  0  0  0  0  0  0  0
    5.8226   -4.6966    5.0412 H   0  0  0  0  0  0  0  0  0  0  0  0
    7.5693   -2.9004    0.8040 H   0  0  0  0  0  0  0  0  0  0  0  0
    6.4998   -3.6402   -0.4064 H   0  0  0  0  0  0  0  0  0  0  0  0
    7.5845   -4.6395    0.5999 H   0  0  0  0  0  0  0  0  0  0  0  0
    6.4135   -1.0145    1.5767 H   0  0  0  0  0  0  0  0  0  0  0  0
    4.7318   -0.5407    0.9680 H   0  0  0  0  0  0  0  0  0  0  0  0
    6.1237   -6.0768    0.4421 H   0  0  0  0  0  0  0  0  0  0  0  0
    4.4025   -5.4902   -0.7231 H   0  0  0  0  0  0  0  0  0  0  0  0
    3.8274   -7.0598   -0.2969 H   0  0  0  0  0  0  0  0  0  0  0  0
    4.3038   -8.9635    0.6143 H   0  0  0  0  0  0  0  0  0  0  0  0
    5.0194   -9.5976    2.0696 H   0  0  0  0  0  0  0  0  0  0  0  0
    2.7574   -7.5588    1.9751 H   0  0  0  0  0  0  0  0  0  0  0  0
    2.8662  -10.3795    3.0516 H   0  0  0  0  0  0  0  0  0  0  0  0
    2.1590   -9.9149    1.5106 H   0  0  0  0  0  0  0  0  0  0  0  0
    1.4513   -9.3158    3.0219 H   0  0  0  0  0  0  0  0  0  0  0  0
    1.8996   -7.9817    5.2375 H   0  0  0  0  0  0  0  0  0  0  0  0
    2.8213   -5.7513    5.5228 H   0  0  0  0  0  0  0  0  0  0  0  0
    4.6686   -7.3635    6.7757 H   0  0  0  0  0  0  0  0  0  0  0  0
    5.4536   -6.7598    4.4253 H   0  0  0  0  0  0  0  0  0  0  0  0
  1  2  1  0
  1 28  1  0
  1 29  1  0
  1 30  1  0
  2 10  1  0
  2  3  2  0
  3 15  1  0
  3  4  1  0
  4  5  1  0
  4 31  1  0
  4 32  1  0
  5 27  1  0
  5  6  1  1
  5  7  1  0
  6 33  1  0
  6 34  1  0
  6 35  1  0
  7  8  2  0
  7 13  1  0
  8  9  1  0
  8 10  1  0
  9 36  1  0
  9 37  1  0
  9 38  1  0
 10 12  1  1
 10 11  1  0
 11 12  1  0
 11 39  1  0
 11 40  1  0
 13 14  1  0
 13 17  1  0
 13 41  1  6
 14 15  1  0
 14 42  1  0
 14 43  1  0
 15 16  2  0
 17 18  2  0
 17 19  1  0
 19 20  1  0
 19 44  1  0
 19 45  1  0
 20 21  1  0
 20 22  1  0
 20 46  1  6
 21 47  1  0
 21 48  1  0
 21 49  1  0
 22 24  1  0
 22 27  1  0
 22 23  1  1
 23 24  1  0
 24 25  1  0
 24 50  1  6
 25 26  1  0
 25 27  1  0
 25 51  1  1
 26 52  1  0
 27 53  1  1
M  END
>  <i_m_ct_stereo_status>  (327) 
1

>  <s_m_source_file>  (327) 
/var/tmp/pbs.5076255.sched01/tmpvuzdko10/1206lwnzxed.sdf

>  <i_m_source_file_index>  (327) 
28

>  <i_lp_mmshare_version>  (327) 
48012

>  <i_f3d_flags>  (327) 
0

>  <s_epik_input>  (327) 
TzFbQ0gyXVtDQF0xMkMoW0NIM10pPUMzW0NIMl1bQ0BdNChbQ0gzXSlDKD1DMltDSDNdKVtDQEhdKFtDSDJdQzM9TylDKD1PKVtDSDJdW0NAQEhdKFtDSDNdKVtDQEBdNTZbQ0BASF0oTzUpW0NAQEhdKFtPSF0pW0NASF00Ng==

>  <s_epik_cmdline>  (327) 
J2VwaWtfcHl0aG9uJywgJy1waHQnLCAnMi4wJywgJy1waCcsICc3LjAnLCAnLXRuJywgJzgnLCAnLW1hJywgJzIwMCcsICctaW1hZScsICc8aW5maWxlLm1hZT4nLCAnLW9tYWUnLCAnPG91dGZpbGUubWFlPic=

>  <r_lp_tautomer_probability>  (327) 
1

>  <r_epik_Ionization_Penalty>  (327) 
1.28148e-07

>  <r_epik_Ionization_Penalty_Charging>  (327) 
0

>  <r_epik_Ionization_Penalty_Neutral>  (327) 
1.28148e-07

>  <r_epik_State_Penalty>  (327) 
-0

>  <r_epik_Charging_Adjusted_Penalty>  (327) 
0

>  <i_epik_Tot_Q>  (327) 
0

>  <i_epik_Tot_abs_Q>  (327) 
0

>  <s_lp_Force_Field>  (327) 
OPLS3e

>  <r_lp_Energy>  (327) 
114.397

>  <b_lp_Chiralities_Consistent>  (327) 
1

>  <s_lp_Variant>  (327) 
108:0-1

>  <s_i_glide_gridfile>  (327) 
pfpi4k_grid

>  <i_i_glide_lignum>  (327) 
28

>  <i_i_glide_rotatable_bonds>  (327) 
1

>  <r_i_docking_score>  (327) 
-3.2243

>  <r_i_glide_ligand_efficiency>  (327) 
-0.119419

>  <r_i_glide_ligand_efficiency_sa>  (327) 
-0.358256

>  <r_i_glide_ligand_efficiency_ln>  (327) 
-0.750565

>  <r_i_glide_gscore>  (327) 
-3.2243

>  <r_i_glide_lipo>  (327) 
-0.505674

>  <r_i_glide_hbond>  (327) 
-0.103539

>  <r_i_glide_metal>  (327) 
-0

>  <r_i_glide_rewards>  (327) 
-0.994275

>  <r_i_glide_evdw>  (327) 
-23.4273

>  <r_i_glide_ecoul>  (327) 
-2.76234

>  <r_i_glide_erotb>  (327) 
0

>  <r_i_glide_esite>  (327) 
-0.0351015

>  <r_i_glide_emodel>  (327) 
-30.7216

>  <r_i_glide_energy>  (327) 
-26.1896

>  <r_i_glide_einternal>  (327) 
0.00467899

>  <r_i_glide_intrahb_reward>  (327) 
-0

>  <i_i_glide_confnum>  (327) 
1

>  <i_i_glide_posenum>  (327) 
10

>  <r_i_glide_eff_state_penalty>  (327) 
0

>  <ligand_id>  (327) 
108

>  <original_smiles>  (327) 
CC1=C2CC3(C)C(=C(C)C14CO4)C(CC2=O)C(=O)CC(C)C12OC1C(O)C32

>  <smiles>  (327) 
[H]OC1([H])C2([H])OC23C([H])(C([H])([H])[H])C([H])([H])C(=O)C2([H])C4=C(C([H])([H])[H])C5(OC5([H])[H])C(C([H])([H])[H])=C(C(=O)C2([H])[H])C([H])([H])C4(C([H])([H])[H])C13[H]

$$$$
108:0:1
     RDKit          3D

 53 58  0  0  1  0  0  0  0  0999 V2000
    3.4626   -2.7368   -0.3959 C   0  0  0  0  0  0  0  0  0  0  0  0
    3.6753   -3.2020    1.0365 C   0  0  0  0  0  0  0  0  0  0  0  0
    3.0167   -4.2372    1.5956 C   0  0  0  0  0  0  0  0  0  0  0  0
    3.1826   -4.6711    3.0565 C   0  0  0  0  0  0  0  0  0  0  0  0
    4.5952   -5.2036    3.4112 C   0  0  2  0  0  0  0  0  0  0  0  0
    5.2430   -4.2581    4.4963 C   0  0  0  0  0  0  0  0  0  0  0  0
    5.5074   -5.1228    2.1593 C   0  0  0  0  0  0  0  0  0  0  0  0
    5.9369   -3.9115    1.6702 C   0  0  0  0  0  0  0  0  0  0  0  0
    6.9703   -3.7754    0.5471 C   0  0  0  0  0  0  0  0  0  0  0  0
    4.9659   -2.7437    1.6227 C   0  0  1  0  0  0  0  0  0  0  0  0
    5.4301   -1.2988    1.5303 C   0  0  0  0  0  0  0  0  0  0  0  0
    4.8939   -1.8357    2.7348 O   0  0  0  0  0  0  0  0  0  0  0  0
    5.3340   -6.2338    1.1052 C   0  0  2  0  0  0  0  0  0  0  0  0
    4.0757   -6.0941    0.1665 C   0  0  0  0  0  0  0  0  0  0  0  0
    2.8002   -5.4011    0.7237 C   0  0  0  0  0  0  0  0  0  0  0  0
    1.6761   -5.8615    0.4789 O   0  0  0  0  0  0  0  0  0  0  0  0
    5.7120   -7.6377    1.5836 C   0  0  0  0  0  0  0  0  0  0  0  0
    6.8794   -7.8860    1.9053 O   0  0  0  0  0  0  0  0  0  0  0  0
    4.6441   -8.7293    1.6368 C   0  0  0  0  0  0  0  0  0  0  0  0
    3.4337   -8.3645    2.5206 C   0  0  1  0  0  0  0  0  0  0  0  0
    2.4977   -9.5942    2.5869 C   0  0  0  0  0  0  0  0  0  0  0  0
    3.8725   -7.8982    3.9132 C   0  0  2  0  0  0  0  0  0  0  0  0
    4.1006   -8.9895    4.8298 O   0  0  0  0  0  0  0  0  0  0  0  0
    3.2187   -7.9270    5.2628 C   0  0  1  0  0  0  0  0  0  0  0  0
    3.8225   -6.5926    5.5555 C   0  0  1  0  0  0  0  0  0  0  0  0
    4.5540   -6.6182    6.7684 O   0  0  0  0  0  0  0  0  0  0  0  0
    4.5959   -6.5664    4.2076 C   0  0  2  0  0  0  0  0  0  0  0  0
    3.1657   -1.6853   -0.3633 H   0  0  0  0  0  0  0  0  0  0  0  0
    2.6442   -3.2736   -0.8923 H   0  0  0  0  0  0  0  0  0  0  0  0
    4.3653   -2.8231   -1.0053 H   0  0  0  0  0  0  0  0  0  0  0  0
    2.9375   -3.7988    3.6752 H   0  0  0  0  0  0  0  0  0  0  0  0
    2.4273   -5.4162    3.2995 H   0  0  0  0  0  0  0  0  0  0  0  0
    4.5350   -3.9196    5.2465 H   0  0  0  0  0  0  0  0  0  0  0  0
    5.7490   -3.3654    4.1408 H   0  0  0  0  0  0  0  0  0  0  0  0
    6.0383   -4.7657    5.0174 H   0  0  0  0  0  0  0  0  0  0  0  0
    7.6060   -2.9134    0.7462 H   0  0  0  0  0  0  0  0  0  0  0  0
    6.4959   -3.6458   -0.4271 H   0  0  0  0  0  0  0  0  0  0  0  0
    7.6216   -4.6514    0.5263 H   0  0  0  0  0  0  0  0  0  0  0  0
    6.4927   -1.0371    1.5921 H   0  0  0  0  0  0  0  0  0  0  0  0
    4.7898   -0.5559    1.0617 H   0  0  0  0  0  0  0  0  0  0  0  0
    6.1518   -6.0872    0.4075 H   0  0  0  0  0  0  0  0  0  0  0  0
    4.3814   -5.4937   -0.6878 H   0  0  0  0  0  0  0  0  0  0  0  0
    3.8130   -7.0629   -0.2483 H   0  0  0  0  0  0  0  0  0  0  0  0
    4.3348   -8.9741    0.6206 H   0  0  0  0  0  0  0  0  0  0  0  0
    5.1109   -9.6271    2.0381 H   0  0  0  0  0  0  0  0  0  0  0  0
    2.8527   -7.5792    2.0718 H   0  0  0  0  0  0  0  0  0  0  0  0
    3.0010  -10.4197    3.0919 H   0  0  0  0  0  0  0  0  0  0  0  0
    2.2323   -9.9355    1.5844 H   0  0  0  0  0  0  0  0  0  0  0  0
    1.5851   -9.3541    3.1350 H   0  0  0  0  0  0  0  0  0  0  0  0
    2.1167   -8.0365    5.3254 H   0  0  0  0  0  0  0  0  0  0  0  0
    3.0568   -5.8510    5.6170 H   0  0  0  0  0  0  0  0  0  0  0  0
    4.8718   -5.7391    6.9027 H   0  0  0  0  0  0  0  0  0  0  0  0
    5.6413   -6.8212    4.4074 H   0  0  0  0  0  0  0  0  0  0  0  0
  1  2  1  0
  1 28  1  0
  1 29  1  0
  1 30  1  0
  2 10  1  0
  2  3  2  0
  3 15  1  0
  3  4  1  0
  4  5  1  0
  4 31  1  0
  4 32  1  0
  5 27  1  0
  5  6  1  1
  5  7  1  0
  6 33  1  0
  6 34  1  0
  6 35  1  0
  7  8  2  0
  7 13  1  0
  8  9  1  0
  8 10  1  0
  9 36  1  0
  9 37  1  0
  9 38  1  0
 10 12  1  1
 10 11  1  0
 11 12  1  0
 11 39  1  0
 11 40  1  0
 13 14  1  0
 13 17  1  0
 13 41  1  6
 14 15  1  0
 14 42  1  0
 14 43  1  0
 15 16  2  0
 17 18  2  0
 17 19  1  0
 19 20  1  0
 19 44  1  0
 19 45  1  0
 20 21  1  0
 20 22  1  0
 20 46  1  6
 21 47  1  0
 21 48  1  0
 21 49  1  0
 22 24  1  0
 22 27  1  0
 22 23  1  1
 23 24  1  0
 24 25  1  0
 24 50  1  6
 25 26  1  0
 25 27  1  0
 25 51  1  1
 26 52  1  0
 27 53  1  1
M  END
>  <i_m_ct_stereo_status>  (328) 
1

>  <s_m_source_file>  (328) 
/var/tmp/pbs.5076255.sched01/tmpvuzdko10/1206lwnzxed.sdf

>  <i_m_source_file_index>  (328) 
28

>  <i_lp_mmshare_version>  (328) 
48012

>  <i_f3d_flags>  (328) 
0

>  <s_epik_input>  (328) 
TzFbQ0gyXVtDQF0xMkMoW0NIM10pPUMzW0NIMl1bQ0BdNChbQ0gzXSlDKD1DMltDSDNdKVtDQEhdKFtDSDJdQzM9TylDKD1PKVtDSDJdW0NAQEhdKFtDSDNdKVtDQEBdNTZbQ0BASF0oTzUpW0NAQEhdKFtPSF0pW0NASF00Ng==

>  <s_epik_cmdline>  (328) 
J2VwaWtfcHl0aG9uJywgJy1waHQnLCAnMi4wJywgJy1waCcsICc3LjAnLCAnLXRuJywgJzgnLCAnLW1hJywgJzIwMCcsICctaW1hZScsICc8aW5maWxlLm1hZT4nLCAnLW9tYWUnLCAnPG91dGZpbGUubWFlPic=

>  <r_lp_tautomer_probability>  (328) 
1

>  <r_epik_Ionization_Penalty>  (328) 
1.28148e-07

>  <r_epik_Ionization_Penalty_Charging>  (328) 
0

>  <r_epik_Ionization_Penalty_Neutral>  (328) 
1.28148e-07

>  <r_epik_State_Penalty>  (328) 
-0

>  <r_epik_Charging_Adjusted_Penalty>  (328) 
0

>  <i_epik_Tot_Q>  (328) 
0

>  <i_epik_Tot_abs_Q>  (328) 
0

>  <s_lp_Force_Field>  (328) 
OPLS3e

>  <r_lp_Energy>  (328) 
114.397

>  <b_lp_Chiralities_Consistent>  (328) 
1

>  <s_lp_Variant>  (328) 
108:0-1

>  <s_i_glide_gridfile>  (328) 
pfpi4k_grid

>  <i_i_glide_lignum>  (328) 
28

>  <i_i_glide_rotatable_bonds>  (328) 
1

>  <r_i_docking_score>  (328) 
-3.20489

>  <r_i_glide_ligand_efficiency>  (328) 
-0.1187

>  <r_i_glide_ligand_efficiency_sa>  (328) 
-0.356099

>  <r_i_glide_ligand_efficiency_ln>  (328) 
-0.746045

>  <r_i_glide_gscore>  (328) 
-3.20489

>  <r_i_glide_lipo>  (328) 
-0.522239

>  <r_i_glide_hbond>  (328) 
-0.104971

>  <r_i_glide_metal>  (328) 
-0

>  <r_i_glide_rewards>  (328) 
-1.00132

>  <r_i_glide_evdw>  (328) 
-23.3318

>  <r_i_glide_ecoul>  (328) 
-2.53087

>  <r_i_glide_erotb>  (328) 
0

>  <r_i_glide_esite>  (328) 
-0.0301399

>  <r_i_glide_emodel>  (328) 
-30.2792

>  <r_i_glide_energy>  (328) 
-25.8626

>  <r_i_glide_einternal>  (328) 
0.0193581

>  <r_i_glide_intrahb_reward>  (328) 
-0

>  <i_i_glide_confnum>  (328) 
1

>  <i_i_glide_posenum>  (328) 
1

>  <r_i_glide_eff_state_penalty>  (328) 
0

>  <ligand_id>  (328) 
108

>  <original_smiles>  (328) 
CC1=C2CC3(C)C(=C(C)C14CO4)C(CC2=O)C(=O)CC(C)C12OC1C(O)C32

>  <smiles>  (328) 
[H]OC1([H])C2([H])OC23C([H])(C([H])([H])[H])C([H])([H])C(=O)C2([H])C4=C(C([H])([H])[H])C5(OC5([H])[H])C(C([H])([H])[H])=C(C(=O)C2([H])[H])C([H])([H])C4(C([H])([H])[H])C13[H]

$$$$
108:0:2
     RDKit          3D

 53 58  0  0  1  0  0  0  0  0999 V2000
    2.7390   -3.3770   -1.8459 C   0  0  0  0  0  0  0  0  0  0  0  0
    3.0849   -2.9998   -0.4162 C   0  0  0  0  0  0  0  0  0  0  0  0
    2.6619   -3.6860    0.6741 C   0  0  0  0  0  0  0  0  0  0  0  0
    2.9372   -3.2458    2.1079 C   0  0  0  0  0  0  0  0  0  0  0  0
    4.4358   -3.2716    2.5071 C   0  0  2  0  0  0  0  0  0  0  0  0
    4.9003   -1.8068    2.8656 C   0  0  0  0  0  0  0  0  0  0  0  0
    5.2897   -3.7255    1.2938 C   0  0  0  0  0  0  0  0  0  0  0  0
    5.4616   -2.8954    0.2096 C   0  0  0  0  0  0  0  0  0  0  0  0
    6.4185   -3.1993   -0.9386 C   0  0  0  0  0  0  0  0  0  0  0  0
    4.2725   -2.1081   -0.3005 C   0  0  1  0  0  0  0  0  0  0  0  0
    4.4353   -0.8948   -1.1962 C   0  0  0  0  0  0  0  0  0  0  0  0
    4.0495   -0.7716    0.1725 O   0  0  0  0  0  0  0  0  0  0  0  0
    5.3197   -5.2351    0.9838 C   0  0  2  0  0  0  0  0  0  0  0  0
    4.0356   -5.8226    0.2792 C   0  0  0  0  0  0  0  0  0  0  0  0
    2.6550   -5.1531    0.5298 C   0  0  0  0  0  0  0  0  0  0  0  0
    1.6454   -5.8522    0.6393 O   0  0  0  0  0  0  0  0  0  0  0  0
    5.9847   -6.0937    2.0590 C   0  0  0  0  0  0  0  0  0  0  0  0
    7.1750   -5.9289    2.3275 O   0  0  0  0  0  0  0  0  0  0  0  0
    5.1513   -7.1471    2.7933 C   0  0  0  0  0  0  0  0  0  0  0  0
    3.9056   -6.5771    3.4993 C   0  0  1  0  0  0  0  0  0  0  0  0
    3.2386   -7.7126    4.3078 C   0  0  0  0  0  0  0  0  0  0  0  0
    4.2583   -5.3793    4.3962 C   0  0  2  0  0  0  0  0  0  0  0  0
    4.7198   -5.7663    5.6979 O   0  0  0  0  0  0  0  0  0  0  0  0
    3.6601   -4.8017    5.6314 C   0  0  1  0  0  0  0  0  0  0  0  0
    3.9923   -3.4282    5.1305 C   0  0  1  0  0  0  0  0  0  0  0  0
    4.7302   -2.6976    6.0897 O   0  0  0  0  0  0  0  0  0  0  0  0
    4.7187   -3.9924    3.8794 C   0  0  2  0  0  0  0  0  0  0  0  0
    2.2466   -2.5256   -2.3176 H   0  0  0  0  0  0  0  0  0  0  0  0
    2.0280   -4.2044   -1.8888 H   0  0  0  0  0  0  0  0  0  0  0  0
    3.6271   -3.6336   -2.4298 H   0  0  0  0  0  0  0  0  0  0  0  0
    2.5341   -2.2340    2.2121 H   0  0  0  0  0  0  0  0  0  0  0  0
    2.3511   -3.8605    2.7875 H   0  0  0  0  0  0  0  0  0  0  0  0
    4.1518   -1.2421    3.4194 H   0  0  0  0  0  0  0  0  0  0  0  0
    5.2155   -1.1623    2.0519 H   0  0  0  0  0  0  0  0  0  0  0  0
    5.7919   -1.8241    3.4861 H   0  0  0  0  0  0  0  0  0  0  0  0
    6.8799   -2.2749   -1.2951 H   0  0  0  0  0  0  0  0  0  0  0  0
    5.9040   -3.6778   -1.7795 H   0  0  0  0  0  0  0  0  0  0  0  0
    7.2329   -3.8403   -0.5951 H   0  0  0  0  0  0  0  0  0  0  0  0
    5.4166   -0.4699   -1.4085 H   0  0  0  0  0  0  0  0  0  0  0  0
    3.6404   -0.6448   -1.8903 H   0  0  0  0  0  0  0  0  0  0  0  0
    6.0699   -5.3481    0.2080 H   0  0  0  0  0  0  0  0  0  0  0  0
    4.2157   -5.7061   -0.7875 H   0  0  0  0  0  0  0  0  0  0  0  0
    3.9514   -6.9014    0.4450 H   0  0  0  0  0  0  0  0  0  0  0  0
    4.8804   -7.9386    2.0907 H   0  0  0  0  0  0  0  0  0  0  0  0
    5.7987   -7.6098    3.5375 H   0  0  0  0  0  0  0  0  0  0  0  0
    3.1666   -6.2646    2.7830 H   0  0  0  0  0  0  0  0  0  0  0  0
    3.9008   -8.0570    5.1041 H   0  0  0  0  0  0  0  0  0  0  0  0
    3.0216   -8.5767    3.6726 H   0  0  0  0  0  0  0  0  0  0  0  0
    2.3052   -7.3745    4.7601 H   0  0  0  0  0  0  0  0  0  0  0  0
    2.6136   -5.0336    5.9197 H   0  0  0  0  0  0  0  0  0  0  0  0
    3.0882   -2.8823    4.8927 H   0  0  0  0  0  0  0  0  0  0  0  0
    4.8491   -1.8339    5.7332 H   0  0  0  0  0  0  0  0  0  0  0  0
    5.7927   -3.9418    4.0555 H   0  0  0  0  0  0  0  0  0  0  0  0
  1  2  1  0
  1 28  1  0
  1 29  1  0
  1 30  1  0
  2 10  1  0
  2  3  2  0
  3 15  1  0
  3  4  1  0
  4  5  1  0
  4 31  1  0
  4 32  1  0
  5 27  1  0
  5  6  1  1
  5  7  1  0
  6 33  1  0
  6 34  1  0
  6 35  1  0
  7  8  2  0
  7 13  1  0
  8  9  1  0
  8 10  1  0
  9 36  1  0
  9 37  1  0
  9 38  1  0
 10 12  1  1
 10 11  1  0
 11 12  1  0
 11 39  1  0
 11 40  1  0
 13 14  1  0
 13 17  1  0
 13 41  1  6
 14 15  1  0
 14 42  1  0
 14 43  1  0
 15 16  2  0
 17 18  2  0
 17 19  1  0
 19 20  1  0
 19 44  1  0
 19 45  1  0
 20 21  1  0
 20 22  1  0
 20 46  1  6
 21 47  1  0
 21 48  1  0
 21 49  1  0
 22 24  1  0
 22 27  1  0
 22 23  1  1
 23 24  1  0
 24 25  1  0
 24 50  1  1
 25 26  1  0
 25 27  1  0
 25 51  1  6
 26 52  1  0
 27 53  1  1
M  END
>  <i_m_ct_stereo_status>  (329) 
1

>  <s_m_source_file>  (329) 
/var/tmp/pbs.5076255.sched01/tmpvuzdko10/1206lwnzxed.sdf

>  <i_m_source_file_index>  (329) 
28

>  <i_lp_mmshare_version>  (329) 
48012

>  <i_f3d_flags>  (329) 
0

>  <s_epik_input>  (329) 
TzFbQ0gyXVtDQF0xMkMoW0NIM10pPUMzW0NIMl1bQ0BdNChbQ0gzXSlDKD1DMltDSDNdKVtDQEhdKFtDSDJdQzM9TylDKD1PKVtDSDJdW0NAQEhdKFtDSDNdKVtDQEBdNTZbQ0BASF0oTzUpW0NAQEhdKFtPSF0pW0NASF00Ng==

>  <s_epik_cmdline>  (329) 
J2VwaWtfcHl0aG9uJywgJy1waHQnLCAnMi4wJywgJy1waCcsICc3LjAnLCAnLXRuJywgJzgnLCAnLW1hJywgJzIwMCcsICctaW1hZScsICc8aW5maWxlLm1hZT4nLCAnLW9tYWUnLCAnPG91dGZpbGUubWFlPic=

>  <r_lp_tautomer_probability>  (329) 
1

>  <r_epik_Ionization_Penalty>  (329) 
1.28148e-07

>  <r_epik_Ionization_Penalty_Charging>  (329) 
0

>  <r_epik_Ionization_Penalty_Neutral>  (329) 
1.28148e-07

>  <r_epik_State_Penalty>  (329) 
-0

>  <r_epik_Charging_Adjusted_Penalty>  (329) 
0

>  <i_epik_Tot_Q>  (329) 
0

>  <i_epik_Tot_abs_Q>  (329) 
0

>  <s_lp_Force_Field>  (329) 
OPLS3e

>  <r_lp_Energy>  (329) 
114.397

>  <b_lp_Chiralities_Consistent>  (329) 
1

>  <s_lp_Variant>  (329) 
108:0-1

>  <s_i_glide_gridfile>  (329) 
pfpi4k_grid

>  <i_i_glide_lignum>  (329) 
28

>  <i_i_glide_rotatable_bonds>  (329) 
1

>  <r_i_docking_score>  (329) 
-3.13914

>  <r_i_glide_ligand_efficiency>  (329) 
-0.116264

>  <r_i_glide_ligand_efficiency_sa>  (329) 
-0.348793

>  <r_i_glide_ligand_efficiency_ln>  (329) 
-0.730739

>  <r_i_glide_gscore>  (329) 
-3.13914

>  <r_i_glide_lipo>  (329) 
-0.508389

>  <r_i_glide_hbond>  (329) 
-0.121039

>  <r_i_glide_metal>  (329) 
-0

>  <r_i_glide_rewards>  (329) 
-0.940532

>  <r_i_glide_evdw>  (329) 
-22.5538

>  <r_i_glide_ecoul>  (329) 
-2.67695

>  <r_i_glide_erotb>  (329) 
0

>  <r_i_glide_esite>  (329) 
-0.0399434

>  <r_i_glide_emodel>  (329) 
-29.592

>  <r_i_glide_energy>  (329) 
-25.2308

>  <r_i_glide_einternal>  (329) 
0.0201595

>  <r_i_glide_intrahb_reward>  (329) 
-0

>  <i_i_glide_confnum>  (329) 
1

>  <i_i_glide_posenum>  (329) 
15

>  <r_i_glide_eff_state_penalty>  (329) 
0

>  <ligand_id>  (329) 
108

>  <original_smiles>  (329) 
CC1=C2CC3(C)C(=C(C)C14CO4)C(CC2=O)C(=O)CC(C)C12OC1C(O)C32

>  <smiles>  (329) 
[H]OC1([H])C2([H])OC23C([H])(C([H])([H])[H])C([H])([H])C(=O)C2([H])C4=C(C([H])([H])[H])C5(OC5([H])[H])C(C([H])([H])[H])=C(C(=O)C2([H])[H])C([H])([H])C4(C([H])([H])[H])C13[H]

$$$$
109:0:0
     RDKit          3D

 34 38  0  0  1  0  0  0  0  0999 V2000
   -0.8720   -9.4068    2.8798 C   0  0  0  0  0  0  0  0  0  0  0  0
   -1.4992   -8.2056    2.5304 C   0  0  0  0  0  0  0  0  0  0  0  0
   -0.8264   -7.1065    2.1262 N   0  0  0  0  0  0  0  0  0  0  0  0
    0.5206   -7.1554    2.0216 C   0  0  0  0  0  0  0  0  0  0  0  0
    1.1843   -6.0661    1.5840 N   0  0  0  0  0  0  0  0  0  0  0  0
    2.5498   -6.1561    1.5083 C   0  0  0  0  0  0  0  0  0  0  0  0
    3.5490   -4.8143    0.9622 S   0  0  0  0  0  0  0  0  0  0  0  0
    5.0414   -5.7507    1.1888 C   0  0  0  0  0  0  0  0  0  0  0  0
    6.3988   -5.4197    0.9736 C   0  0  0  0  0  0  0  0  0  0  0  0
    6.8576   -4.1811    0.4969 N   0  0  0  0  0  0  0  0  0  0  0  0
    8.2506   -3.9329    0.1633 C   0  0  0  0  0  0  0  0  0  0  0  0
    8.2540   -2.5581   -0.5041 C   0  0  0  0  0  0  0  0  0  0  0  0
    7.0268   -1.8590    0.0836 C   0  0  0  0  0  0  0  0  0  0  0  0
    6.0422   -2.9968    0.3288 C   0  0  0  0  0  0  0  0  0  0  0  0
    7.3493   -6.3420    1.2266 N   0  0  0  0  0  0  0  0  0  0  0  0
    7.0194   -7.5544    1.6730 N   0  0  0  0  0  0  0  0  0  0  0  0
    5.7567   -7.9421    1.8836 N   0  0  0  0  0  0  0  0  0  0  0  0
    4.7669   -7.0678    1.6584 C   0  0  0  0  0  0  0  0  0  0  0  0
    3.3366   -7.2913    1.8402 C   0  0  0  0  0  0  0  0  0  0  0  0
    2.6167   -8.4075    2.2748 C   0  0  0  0  0  0  0  0  0  0  0  0
    1.2193   -8.3455    2.3701 C   0  0  0  0  0  0  0  0  0  0  0  0
    0.5189   -9.4829    2.8060 C   0  0  0  0  0  0  0  0  0  0  0  0
   -1.4428  -10.2512    3.2231 H   0  0  0  0  0  0  0  0  0  0  0  0
   -2.5749   -8.1223    2.5817 H   0  0  0  0  0  0  0  0  0  0  0  0
    8.8565   -3.9287    1.0707 H   0  0  0  0  0  0  0  0  0  0  0  0
    8.6523   -4.6938   -0.5060 H   0  0  0  0  0  0  0  0  0  0  0  0
    9.1803   -2.0105   -0.3224 H   0  0  0  0  0  0  0  0  0  0  0  0
    8.1404   -2.6759   -1.5840 H   0  0  0  0  0  0  0  0  0  0  0  0
    7.2893   -1.3904    1.0330 H   0  0  0  0  0  0  0  0  0  0  0  0
    6.5994   -1.0944   -0.5628 H   0  0  0  0  0  0  0  0  0  0  0  0
    5.3934   -3.1412   -0.5366 H   0  0  0  0  0  0  0  0  0  0  0  0
    5.4423   -2.7931    1.2145 H   0  0  0  0  0  0  0  0  0  0  0  0
    3.1491   -9.3042    2.5340 H   0  0  0  0  0  0  0  0  0  0  0  0
    1.0482  -10.3912    3.0671 H   0  0  0  0  0  0  0  0  0  0  0  0
  1 22  2  0
  1  2  1  0
  1 23  1  0
  2  3  2  0
  2 24  1  0
  3  4  1  0
  4 21  2  0
  4  5  1  0
  5  6  2  0
  6 19  1  0
  6  7  1  0
  7  8  1  0
  8 18  2  0
  8  9  1  0
  9 10  1  0
  9 15  2  0
 10 14  1  0
 10 11  1  0
 11 12  1  0
 11 25  1  0
 11 26  1  0
 12 13  1  0
 12 27  1  0
 12 28  1  0
 13 14  1  0
 13 29  1  0
 13 30  1  0
 14 31  1  0
 14 32  1  0
 15 16  1  0
 16 17  2  0
 17 18  1  0
 18 19  1  0
 19 20  2  0
 20 21  1  0
 20 33  1  0
 21 22  1  0
 22 34  1  0
M  END
>  <i_m_ct_stereo_status>  (330) 
1

>  <s_m_source_file>  (330) 
/var/tmp/pbs.5076255.sched01/tmpvuzdko10/1206lwnzxed.sdf

>  <i_m_source_file_index>  (330) 
29

>  <i_lp_mmshare_version>  (330) 
48012

>  <i_f3d_flags>  (330) 
0

>  <s_epik_input>  (330) 
bjFbY0hdW2NIXVtjSF1jKGMxMilbY0hdYzNjKG4yKXNjNGMzbm5uYzRONVtDSDJdW0NIMl1bQ0gyXVtDSDJdNQ==

>  <s_epik_cmdline>  (330) 
J2VwaWtfcHl0aG9uJywgJy1waHQnLCAnMi4wJywgJy1waCcsICc3LjAnLCAnLXRuJywgJzgnLCAnLW1hJywgJzIwMCcsICctaW1hZScsICc8aW5maWxlLm1hZT4nLCAnLW9tYWUnLCAnPG91dGZpbGUubWFlPic=

>  <r_epik_Ionization_Penalty>  (330) 
0.00116972

>  <r_epik_Ionization_Penalty_Charging>  (330) 
0

>  <r_epik_Ionization_Penalty_Neutral>  (330) 
0.00116972

>  <r_epik_State_Penalty>  (330) 
0.000769031

>  <r_epik_Charging_Adjusted_Penalty>  (330) 
0.000769031

>  <i_epik_Tot_Q>  (330) 
0

>  <i_epik_Tot_abs_Q>  (330) 
0

>  <s_lp_Force_Field>  (330) 
OPLS3e

>  <r_lp_Energy>  (330) 
24.1573

>  <b_lp_Chiralities_Consistent>  (330) 
1

>  <s_lp_Variant>  (330) 
109:0-1

>  <s_i_glide_gridfile>  (330) 
pfpi4k_grid

>  <i_i_glide_lignum>  (330) 
29

>  <i_i_glide_rotatable_bonds>  (330) 
1

>  <r_i_docking_score>  (330) 
-4.37251

>  <r_i_glide_ligand_efficiency>  (330) 
-0.198751

>  <r_i_glide_ligand_efficiency_sa>  (330) 
-0.556907

>  <r_i_glide_ligand_efficiency_ln>  (330) 
-1.0688

>  <r_i_glide_gscore>  (330) 
-4.37251

>  <r_i_glide_lipo>  (330) 
-0.489627

>  <r_i_glide_hbond>  (330) 
-0.288456

>  <r_i_glide_metal>  (330) 
-0

>  <r_i_glide_rewards>  (330) 
-1.48013

>  <r_i_glide_evdw>  (330) 
-29.9245

>  <r_i_glide_ecoul>  (330) 
-4.96779

>  <r_i_glide_erotb>  (330) 
0.194563

>  <r_i_glide_esite>  (330) 
-0.0674709

>  <r_i_glide_emodel>  (330) 
-45.3918

>  <r_i_glide_energy>  (330) 
-34.8923

>  <r_i_glide_einternal>  (330) 
0.120359

>  <r_i_glide_intrahb_reward>  (330) 
-0

>  <i_i_glide_confnum>  (330) 
4

>  <i_i_glide_posenum>  (330) 
28

>  <r_i_glide_eff_state_penalty>  (330) 
0

>  <ligand_id>  (330) 
109

>  <original_smiles>  (330) 
c1cnc2nc3sc4c(N5CCCC5)nnnc4c3cc2c1

>  <smiles>  (330) 
[H]c1nc2nc3sc4c(N5C([H])([H])C([H])([H])C([H])([H])C5([H])[H])nnnc4c3c([H])c2c([H])c1[H]

$$$$
109:0:1
     RDKit          3D

 34 38  0  0  1  0  0  0  0  0999 V2000
    8.0834   -4.1042    0.1398 C   0  0  0  0  0  0  0  0  0  0  0  0
    8.1949   -2.8495   -0.4808 C   0  0  0  0  0  0  0  0  0  0  0  0
    7.2925   -1.8582   -0.3302 N   0  0  0  0  0  0  0  0  0  0  0  0
    6.1987   -2.0463    0.4419 C   0  0  0  0  0  0  0  0  0  0  0  0
    5.2987   -1.0506    0.5840 N   0  0  0  0  0  0  0  0  0  0  0  0
    4.2113   -1.2927    1.3810 C   0  0  0  0  0  0  0  0  0  0  0  0
    2.9696   -0.0798    1.6849 S   0  0  0  0  0  0  0  0  0  0  0  0
    2.0511   -1.1923    2.7206 C   0  0  0  0  0  0  0  0  0  0  0  0
    0.8470   -1.0246    3.4406 C   0  0  0  0  0  0  0  0  0  0  0  0
    0.0822    0.1514    3.4563 N   0  0  0  0  0  0  0  0  0  0  0  0
   -0.9817    0.3906    4.4191 C   0  0  0  0  0  0  0  0  0  0  0  0
   -1.3988    1.8441    4.1889 C   0  0  0  0  0  0  0  0  0  0  0  0
   -1.0501    2.0914    2.7215 C   0  0  0  0  0  0  0  0  0  0  0  0
    0.1734    1.2112    2.4719 C   0  0  0  0  0  0  0  0  0  0  0  0
    0.3777   -2.0435    4.1898 N   0  0  0  0  0  0  0  0  0  0  0  0
    1.0302   -3.2057    4.2418 N   0  0  0  0  0  0  0  0  0  0  0  0
    2.1741   -3.4363    3.5868 N   0  0  0  0  0  0  0  0  0  0  0  0
    2.6983   -2.4588    2.8360 C   0  0  0  0  0  0  0  0  0  0  0  0
    3.9386   -2.5051    2.0716 C   0  0  0  0  0  0  0  0  0  0  0  0
    4.8916   -3.5148    1.9050 C   0  0  0  0  0  0  0  0  0  0  0  0
    6.0178   -3.2973    1.0970 C   0  0  0  0  0  0  0  0  0  0  0  0
    6.9632   -4.3284    0.9468 C   0  0  0  0  0  0  0  0  0  0  0  0
    8.8228   -4.8785   -0.0006 H   0  0  0  0  0  0  0  0  0  0  0  0
    9.0257   -2.6288   -1.1255 H   0  0  0  0  0  0  0  0  0  0  0  0
   -1.8190   -0.2853    4.2400 H   0  0  0  0  0  0  0  0  0  0  0  0
   -0.6322    0.2353    5.4395 H   0  0  0  0  0  0  0  0  0  0  0  0
   -2.4523    2.0254    4.4061 H   0  0  0  0  0  0  0  0  0  0  0  0
   -0.8023    2.5014    4.8232 H   0  0  0  0  0  0  0  0  0  0  0  0
   -1.8700    1.7624    2.0821 H   0  0  0  0  0  0  0  0  0  0  0  0
   -0.8495    3.1392    2.5003 H   0  0  0  0  0  0  0  0  0  0  0  0
    1.0877    1.7765    2.6548 H   0  0  0  0  0  0  0  0  0  0  0  0
    0.1854    0.8244    1.4510 H   0  0  0  0  0  0  0  0  0  0  0  0
    4.7448   -4.4519    2.4094 H   0  0  0  0  0  0  0  0  0  0  0  0
    6.8225   -5.2783    1.4471 H   0  0  0  0  0  0  0  0  0  0  0  0
  1 22  2  0
  1  2  1  0
  1 23  1  0
  2  3  2  0
  2 24  1  0
  3  4  1  0
  4 21  2  0
  4  5  1  0
  5  6  2  0
  6 19  1  0
  6  7  1  0
  7  8  1  0
  8 18  2  0
  8  9  1  0
  9 10  1  0
  9 15  2  0
 10 14  1  0
 10 11  1  0
 11 12  1  0
 11 25  1  0
 11 26  1  0
 12 13  1  0
 12 27  1  0
 12 28  1  0
 13 14  1  0
 13 29  1  0
 13 30  1  0
 14 31  1  0
 14 32  1  0
 15 16  1  0
 16 17  2  0
 17 18  1  0
 18 19  1  0
 19 20  2  0
 20 21  1  0
 20 33  1  0
 21 22  1  0
 22 34  1  0
M  END
>  <i_m_ct_stereo_status>  (331) 
1

>  <s_m_source_file>  (331) 
/var/tmp/pbs.5076255.sched01/tmpvuzdko10/1206lwnzxed.sdf

>  <i_m_source_file_index>  (331) 
29

>  <i_lp_mmshare_version>  (331) 
48012

>  <i_f3d_flags>  (331) 
0

>  <s_epik_input>  (331) 
bjFbY0hdW2NIXVtjSF1jKGMxMilbY0hdYzNjKG4yKXNjNGMzbm5uYzRONVtDSDJdW0NIMl1bQ0gyXVtDSDJdNQ==

>  <s_epik_cmdline>  (331) 
J2VwaWtfcHl0aG9uJywgJy1waHQnLCAnMi4wJywgJy1waCcsICc3LjAnLCAnLXRuJywgJzgnLCAnLW1hJywgJzIwMCcsICctaW1hZScsICc8aW5maWxlLm1hZT4nLCAnLW9tYWUnLCAnPG91dGZpbGUubWFlPic=

>  <r_epik_Ionization_Penalty>  (331) 
0.00116972

>  <r_epik_Ionization_Penalty_Charging>  (331) 
0

>  <r_epik_Ionization_Penalty_Neutral>  (331) 
0.00116972

>  <r_epik_State_Penalty>  (331) 
0.000769031

>  <r_epik_Charging_Adjusted_Penalty>  (331) 
0.000769031

>  <i_epik_Tot_Q>  (331) 
0

>  <i_epik_Tot_abs_Q>  (331) 
0

>  <s_lp_Force_Field>  (331) 
OPLS3e

>  <r_lp_Energy>  (331) 
24.1573

>  <b_lp_Chiralities_Consistent>  (331) 
1

>  <s_lp_Variant>  (331) 
109:0-1

>  <s_i_glide_gridfile>  (331) 
pfpi4k_grid

>  <i_i_glide_lignum>  (331) 
29

>  <i_i_glide_rotatable_bonds>  (331) 
1

>  <r_i_docking_score>  (331) 
-3.47266

>  <r_i_glide_ligand_efficiency>  (331) 
-0.157848

>  <r_i_glide_ligand_efficiency_sa>  (331) 
-0.442297

>  <r_i_glide_ligand_efficiency_ln>  (331) 
-0.848845

>  <r_i_glide_gscore>  (331) 
-3.47266

>  <r_i_glide_lipo>  (331) 
-0.416284

>  <r_i_glide_hbond>  (331) 
-0.151483

>  <r_i_glide_metal>  (331) 
-0

>  <r_i_glide_rewards>  (331) 
-1.40951

>  <r_i_glide_evdw>  (331) 
-27.0656

>  <r_i_glide_ecoul>  (331) 
-2.10232

>  <r_i_glide_erotb>  (331) 
0.194563

>  <r_i_glide_esite>  (331) 
-0.0213195

>  <r_i_glide_emodel>  (331) 
-37.3148

>  <r_i_glide_energy>  (331) 
-29.168

>  <r_i_glide_einternal>  (331) 
0.372673

>  <r_i_glide_intrahb_reward>  (331) 
-0

>  <i_i_glide_confnum>  (331) 
4

>  <i_i_glide_posenum>  (331) 
10

>  <r_i_glide_eff_state_penalty>  (331) 
0

>  <ligand_id>  (331) 
109

>  <original_smiles>  (331) 
c1cnc2nc3sc4c(N5CCCC5)nnnc4c3cc2c1

>  <smiles>  (331) 
[H]c1nc2nc3sc4c(N5C([H])([H])C([H])([H])C([H])([H])C5([H])[H])nnnc4c3c([H])c2c([H])c1[H]

$$$$
109:0:2
     RDKit          3D

 34 38  0  0  1  0  0  0  0  0999 V2000
    7.2859   -3.9000    0.1115 C   0  0  0  0  0  0  0  0  0  0  0  0
    7.4687   -2.6603   -0.5195 C   0  0  0  0  0  0  0  0  0  0  0  0
    6.6469   -1.6071   -0.3332 N   0  0  0  0  0  0  0  0  0  0  0  0
    5.5813   -1.7091    0.4926 C   0  0  0  0  0  0  0  0  0  0  0  0
    4.7717   -0.6465    0.6759 N   0  0  0  0  0  0  0  0  0  0  0  0
    3.7070   -0.8010    1.5198 C   0  0  0  0  0  0  0  0  0  0  0  0
    2.5631    0.4956    1.8497 S   0  0  0  0  0  0  0  0  0  0  0  0
    1.6268   -0.5272    2.9590 C   0  0  0  0  0  0  0  0  0  0  0  0
    0.4700   -0.2671    3.7282 C   0  0  0  0  0  0  0  0  0  0  0  0
   -0.2044    0.9625    3.7709 N   0  0  0  0  0  0  0  0  0  0  0  0
    0.2220    2.1725    3.0996 C   0  0  0  0  0  0  0  0  0  0  0  0
   -0.6765    3.2781    3.6483 C   0  0  0  0  0  0  0  0  0  0  0  0
   -1.9458    2.5455    4.0727 C   0  0  0  0  0  0  0  0  0  0  0  0
   -1.4416    1.1660    4.5082 C   0  0  0  0  0  0  0  0  0  0  0  0
   -0.0503   -1.2529    4.4901 N   0  0  0  0  0  0  0  0  0  0  0  0
    0.5203   -2.4576    4.5260 N   0  0  0  0  0  0  0  0  0  0  0  0
    1.6198   -2.7724    3.8313 N   0  0  0  0  0  0  0  0  0  0  0  0
    2.1799   -1.8405    3.0520 C   0  0  0  0  0  0  0  0  0  0  0  0
    3.3748   -1.9861    2.2317 C   0  0  0  0  0  0  0  0  0  0  0  0
    4.2375   -3.0674    2.0239 C   0  0  0  0  0  0  0  0  0  0  0  0
    5.3365   -2.9395    1.1613 C   0  0  0  0  0  0  0  0  0  0  0  0
    6.1892   -4.0399    0.9695 C   0  0  0  0  0  0  0  0  0  0  0  0
    7.9618   -4.7262   -0.0549 H   0  0  0  0  0  0  0  0  0  0  0  0
    8.2972   -2.5102   -1.1956 H   0  0  0  0  0  0  0  0  0  0  0  0
    1.2654    2.3995    3.3124 H   0  0  0  0  0  0  0  0  0  0  0  0
    0.0842    2.0492    2.0233 H   0  0  0  0  0  0  0  0  0  0  0  0
   -0.1967    3.7359    4.5139 H   0  0  0  0  0  0  0  0  0  0  0  0
   -0.8528    4.0537    2.9037 H   0  0  0  0  0  0  0  0  0  0  0  0
   -2.4962    3.0673    4.8579 H   0  0  0  0  0  0  0  0  0  0  0  0
   -2.6066    2.4363    3.2115 H   0  0  0  0  0  0  0  0  0  0  0  0
   -2.1758    0.3895    4.2903 H   0  0  0  0  0  0  0  0  0  0  0  0
   -1.2384    1.1485    5.5811 H   0  0  0  0  0  0  0  0  0  0  0  0
    4.0397   -3.9903    2.5373 H   0  0  0  0  0  0  0  0  0  0  0  0
    5.9978   -4.9746    1.4803 H   0  0  0  0  0  0  0  0  0  0  0  0
  1 22  2  0
  1  2  1  0
  1 23  1  0
  2  3  2  0
  2 24  1  0
  3  4  1  0
  4 21  2  0
  4  5  1  0
  5  6  2  0
  6 19  1  0
  6  7  1  0
  7  8  1  0
  8 18  2  0
  8  9  1  0
  9 10  1  0
  9 15  2  0
 10 14  1  0
 10 11  1  0
 11 12  1  0
 11 25  1  0
 11 26  1  0
 12 13  1  0
 12 27  1  0
 12 28  1  0
 13 14  1  0
 13 29  1  0
 13 30  1  0
 14 31  1  0
 14 32  1  0
 15 16  1  0
 16 17  2  0
 17 18  1  0
 18 19  1  0
 19 20  2  0
 20 21  1  0
 20 33  1  0
 21 22  1  0
 22 34  1  0
M  END
>  <i_m_ct_stereo_status>  (332) 
1

>  <s_m_source_file>  (332) 
/var/tmp/pbs.5076255.sched01/tmpvuzdko10/1206lwnzxed.sdf

>  <i_m_source_file_index>  (332) 
29

>  <i_lp_mmshare_version>  (332) 
48012

>  <i_f3d_flags>  (332) 
0

>  <s_epik_input>  (332) 
bjFbY0hdW2NIXVtjSF1jKGMxMilbY0hdYzNjKG4yKXNjNGMzbm5uYzRONVtDSDJdW0NIMl1bQ0gyXVtDSDJdNQ==

>  <s_epik_cmdline>  (332) 
J2VwaWtfcHl0aG9uJywgJy1waHQnLCAnMi4wJywgJy1waCcsICc3LjAnLCAnLXRuJywgJzgnLCAnLW1hJywgJzIwMCcsICctaW1hZScsICc8aW5maWxlLm1hZT4nLCAnLW9tYWUnLCAnPG91dGZpbGUubWFlPic=

>  <r_epik_Ionization_Penalty>  (332) 
0.00116972

>  <r_epik_Ionization_Penalty_Charging>  (332) 
0

>  <r_epik_Ionization_Penalty_Neutral>  (332) 
0.00116972

>  <r_epik_State_Penalty>  (332) 
0.000769031

>  <r_epik_Charging_Adjusted_Penalty>  (332) 
0.000769031

>  <i_epik_Tot_Q>  (332) 
0

>  <i_epik_Tot_abs_Q>  (332) 
0

>  <s_lp_Force_Field>  (332) 
OPLS3e

>  <r_lp_Energy>  (332) 
24.1573

>  <b_lp_Chiralities_Consistent>  (332) 
1

>  <s_lp_Variant>  (332) 
109:0-1

>  <s_i_glide_gridfile>  (332) 
pfpi4k_grid

>  <i_i_glide_lignum>  (332) 
29

>  <i_i_glide_rotatable_bonds>  (332) 
1

>  <r_i_docking_score>  (332) 
-3.23394

>  <r_i_glide_ligand_efficiency>  (332) 
-0.146997

>  <r_i_glide_ligand_efficiency_sa>  (332) 
-0.411892

>  <r_i_glide_ligand_efficiency_ln>  (332) 
-0.790492

>  <r_i_glide_gscore>  (332) 
-3.23394

>  <r_i_glide_lipo>  (332) 
-0.283126

>  <r_i_glide_hbond>  (332) 
-0.127299

>  <r_i_glide_metal>  (332) 
-0

>  <r_i_glide_rewards>  (332) 
-1.40917

>  <r_i_glide_evdw>  (332) 
-26.5895

>  <r_i_glide_ecoul>  (332) 
-1.61412

>  <r_i_glide_erotb>  (332) 
0.194563

>  <r_i_glide_esite>  (332) 
-0.0373148

>  <r_i_glide_emodel>  (332) 
-35.8901

>  <r_i_glide_energy>  (332) 
-28.2036

>  <r_i_glide_einternal>  (332) 
0.228914

>  <r_i_glide_intrahb_reward>  (332) 
-0

>  <i_i_glide_confnum>  (332) 
6

>  <i_i_glide_posenum>  (332) 
4

>  <r_i_glide_eff_state_penalty>  (332) 
0

>  <ligand_id>  (332) 
109

>  <original_smiles>  (332) 
c1cnc2nc3sc4c(N5CCCC5)nnnc4c3cc2c1

>  <smiles>  (332) 
[H]c1nc2nc3sc4c(N5C([H])([H])C([H])([H])C([H])([H])C5([H])[H])nnnc4c3c([H])c2c([H])c1[H]

$$$$
110:0:0
     RDKit          3D

 68 72  0  0  1  0  0  0  0  0999 V2000
    4.6442   -6.2730    0.5434 C   0  0  0  0  0  0  0  0  0  0  0  0
    3.9142   -7.4335    1.2159 C   0  0  0  0  0  0  0  0  0  0  0  0
    2.7508   -7.2791    1.8837 C   0  0  0  0  0  0  0  0  0  0  0  0
    2.6699   -6.3868    3.1304 C   0  0  2  0  0  0  0  0  0  0  0  0
    4.1274   -6.3303    3.8009 C   0  0  1  0  0  0  0  0  0  0  0  0
    4.3415   -5.2564    4.8947 C   0  0  0  0  0  0  0  0  0  0  0  0
    4.8202   -7.6962    4.1786 C   0  0  2  0  0  0  0  0  0  0  0  0
    6.0259   -7.5165    5.1181 C   0  0  0  0  0  0  0  0  0  0  0  0
    5.0286   -8.7251    3.2112 C   0  0  2  0  0  0  0  0  0  0  0  0
    4.8044   -8.4893    1.7043 C   0  0  0  0  0  0  0  0  0  0  0  0
    5.4942   -9.1379    0.9141 O   0  0  0  0  0  0  0  0  0  0  0  0
    3.8886   -8.9816    4.2752 C   0  0  2  0  0  0  0  0  0  0  0  0
    3.4202   -8.6599    5.7188 C   0  0  0  0  0  0  0  0  0  0  0  0
    2.2519   -9.6073    6.0575 C   0  0  1  0  0  0  0  0  0  0  0  0
    2.2290   -9.8742    7.4446 O   0  0  0  0  0  0  0  0  0  0  0  0
    0.8715   -8.9832    5.6226 C   0  0  1  0  0  0  0  0  0  0  0  0
    0.2074   -8.3055    6.6815 O   0  0  0  0  0  0  0  0  0  0  0  0
    0.8990   -8.1645    4.3133 C   0  0  1  0  0  0  0  0  0  0  0  0
   -0.3725   -7.8935    3.5330 C   0  0  0  0  0  0  0  0  0  0  0  0
   -0.6994   -8.8536    2.3768 C   0  0  0  0  0  0  0  0  0  0  0  0
   -1.6672   -7.6275    4.3083 C   0  0  0  0  0  0  0  0  0  0  0  0
    0.2128   -6.6459    3.0105 O   0  0  0  0  0  0  0  0  0  0  0  0
    1.3322   -6.6623    4.0040 C   0  0  2  0  0  0  0  0  0  0  0  0
    0.8884   -5.4191    4.8938 C   0  0  0  0  0  0  0  0  0  0  0  0
    1.0007   -4.0100    4.2616 C   0  0  0  0  0  0  0  0  0  0  0  0
    1.3832   -5.3344    6.3940 C   0  0  0  0  0  0  0  0  0  0  0  0
    2.7093  -10.8937    5.3109 C   0  0  1  0  0  0  0  0  0  0  0  0
    1.7092  -11.4233    4.4635 O   0  0  0  0  0  0  0  0  0  0  0  0
    3.9866  -10.5093    4.5140 C   0  0  1  0  0  0  0  0  0  0  0  0
    4.2132  -11.4126    3.2686 C   0  0  0  0  0  0  0  0  0  0  0  0
    4.6503   -6.4350   -0.5389 H   0  0  0  0  0  0  0  0  0  0  0  0
    5.6826   -6.2016    0.8833 H   0  0  0  0  0  0  0  0  0  0  0  0
    4.1432   -5.3290    0.7427 H   0  0  0  0  0  0  0  0  0  0  0  0
    2.3144   -8.2395    2.0783 H   0  0  0  0  0  0  0  0  0  0  0  0
    2.5462   -5.4010    2.6773 H   0  0  0  0  0  0  0  0  0  0  0  0
    4.7785   -5.9123    3.0538 H   0  0  0  0  0  0  0  0  0  0  0  0
    4.0137   -5.6438    5.8212 H   0  0  0  0  0  0  0  0  0  0  0  0
    3.8698   -4.3033    4.5916 H   0  0  0  0  0  0  0  0  0  0  0  0
    5.3775   -5.0029    5.0560 H   0  0  0  0  0  0  0  0  0  0  0  0
    6.5018   -8.4726    5.3385 H   0  0  0  0  0  0  0  0  0  0  0  0
    5.7466   -7.1012    6.0854 H   0  0  0  0  0  0  0  0  0  0  0  0
    6.7912   -6.8725    4.6736 H   0  0  0  0  0  0  0  0  0  0  0  0
    5.9651   -9.2624    3.3704 H   0  0  0  0  0  0  0  0  0  0  0  0
    4.2213   -8.8434    6.4383 H   0  0  0  0  0  0  0  0  0  0  0  0
    3.0971   -7.6358    5.8648 H   0  0  0  0  0  0  0  0  0  0  0  0
    1.8773  -10.7454    7.5746 H   0  0  0  0  0  0  0  0  0  0  0  0
    0.1747   -9.8116    5.4816 H   0  0  0  0  0  0  0  0  0  0  0  0
    0.1836   -8.8993    7.4107 H   0  0  0  0  0  0  0  0  0  0  0  0
    1.4353   -8.8294    3.6648 H   0  0  0  0  0  0  0  0  0  0  0  0
   -1.0303   -9.8268    2.7472 H   0  0  0  0  0  0  0  0  0  0  0  0
    0.1630   -9.0449    1.7437 H   0  0  0  0  0  0  0  0  0  0  0  0
   -1.4935   -8.4803    1.7258 H   0  0  0  0  0  0  0  0  0  0  0  0
   -2.0824   -8.5600    4.6967 H   0  0  0  0  0  0  0  0  0  0  0  0
   -2.4361   -7.1540    3.6986 H   0  0  0  0  0  0  0  0  0  0  0  0
   -1.5172   -7.0024    5.1808 H   0  0  0  0  0  0  0  0  0  0  0  0
   -0.1715   -5.4981    5.0219 H   0  0  0  0  0  0  0  0  0  0  0  0
    1.9836   -3.5450    4.3173 H   0  0  0  0  0  0  0  0  0  0  0  0
    0.3545   -3.3139    4.7973 H   0  0  0  0  0  0  0  0  0  0  0  0
    0.6924   -3.9685    3.2102 H   0  0  0  0  0  0  0  0  0  0  0  0
    2.3809   -5.0341    6.5590 H   0  0  0  0  0  0  0  0  0  0  0  0
    1.2306   -6.2714    6.9216 H   0  0  0  0  0  0  0  0  0  0  0  0
    0.8223   -4.5643    6.8953 H   0  0  0  0  0  0  0  0  0  0  0  0
    2.9859  -11.6856    6.0268 H   0  0  0  0  0  0  0  0  0  0  0  0
    1.9383  -12.3177    4.2446 H   0  0  0  0  0  0  0  0  0  0  0  0
    4.8423  -10.6817    5.1635 H   0  0  0  0  0  0  0  0  0  0  0  0
    3.4955  -11.1979    2.4795 H   0  0  0  0  0  0  0  0  0  0  0  0
    4.1096  -12.4677    3.5275 H   0  0  0  0  0  0  0  0  0  0  0  0
    5.2100  -11.3104    2.8425 H   0  0  0  0  0  0  0  0  0  0  0  0
  1  2  1  0
  1 31  1  0
  1 32  1  0
  1 33  1  0
  2 10  1  0
  2  3  2  0
  3  4  1  0
  3 34  1  0
  4 23  1  0
  4  5  1  0
  4 35  1  6
  5  6  1  0
  5  7  1  0
  5 36  1  6
  6 37  1  0
  6 38  1  0
  6 39  1  0
  7 12  1  0
  7  8  1  1
  7  9  1  0
  8 40  1  0
  8 41  1  0
  8 42  1  0
  9 10  1  0
  9 12  1  0
  9 43  1  6
 10 11  2  0
 12 29  1  0
 12 13  1  6
 13 14  1  0
 13 44  1  0
 13 45  1  0
 14 15  1  1
 14 16  1  0
 14 27  1  0
 15 46  1  0
 16 17  1  0
 16 18  1  0
 16 47  1  6
 17 48  1  0
 18 23  1  0
 18 19  1  0
 18 49  1  6
 19 20  1  0
 19 21  1  0
 19 22  1  0
 20 50  1  0
 20 51  1  0
 20 52  1  0
 21 53  1  0
 21 54  1  0
 21 55  1  0
 22 23  1  0
 23 24  1  1
 24 25  1  0
 24 26  1  0
 24 56  1  0
 25 57  1  0
 25 58  1  0
 25 59  1  0
 26 60  1  0
 26 61  1  0
 26 62  1  0
 27 28  1  0
 27 29  1  0
 27 63  1  1
 28 64  1  0
 29 30  1  0
 29 65  1  1
 30 66  1  0
 30 67  1  0
 30 68  1  0
M  END
>  <i_m_ct_stereo_status>  (333) 
1

>  <s_m_source_file>  (333) 
/var/tmp/pbs.5076255.sched01/tmpvuzdko10/1206lwnzxed.sdf

>  <i_m_source_file_index>  (333) 
30

>  <i_lp_mmshare_version>  (333) 
48012

>  <i_f3d_flags>  (333) 
0

>  <s_epik_input>  (333) 
W0NIM11bQ0BdMShbQ0BAXTIzNClbQ0BASF0yQyg9TylDKFtDSDNdKT1bQ0hdW0NASF0oW0NASF0xW0NIM10pW0NAXTUoW0NIXShbQ0gzXSlbQ0gzXSlbQ0BIXShDKE81KShbQ0gzXSlbQ0gzXSlbQ0BIXShbT0hdKVtDQEBdKFtDSDJdMykoW09IXSlbQ0BASF0oW09IXSlbQ0BIXTRbQ0gzXQ==

>  <s_epik_cmdline>  (333) 
J2VwaWtfcHl0aG9uJywgJy1waHQnLCAnMi4wJywgJy1waCcsICc3LjAnLCAnLXRuJywgJzgnLCAnLW1hJywgJzIwMCcsICctaW1hZScsICc8aW5maWxlLm1hZT4nLCAnLW9tYWUnLCAnPG91dGZpbGUubWFlPic=

>  <r_lp_tautomer_probability>  (333) 
1

>  <r_epik_Ionization_Penalty>  (333) 
3.88678e-07

>  <r_epik_Ionization_Penalty_Charging>  (333) 
0

>  <r_epik_Ionization_Penalty_Neutral>  (333) 
3.88678e-07

>  <r_epik_State_Penalty>  (333) 
-0

>  <r_epik_Charging_Adjusted_Penalty>  (333) 
0

>  <i_epik_Tot_Q>  (333) 
0

>  <i_epik_Tot_abs_Q>  (333) 
0

>  <s_lp_Force_Field>  (333) 
OPLS3e

>  <r_lp_Energy>  (333) 
175.363

>  <b_lp_Chiralities_Consistent>  (333) 
1

>  <s_lp_Variant>  (333) 
110:0-1

>  <s_i_glide_gridfile>  (333) 
pfpi4k_grid

>  <i_i_glide_lignum>  (333) 
30

>  <i_i_glide_rotatable_bonds>  (333) 
4

>  <r_i_docking_score>  (333) 
-3.34114

>  <r_i_glide_ligand_efficiency>  (333) 
-0.111371

>  <r_i_glide_ligand_efficiency_sa>  (333) 
-0.346057

>  <r_i_glide_ligand_efficiency_ln>  (333) 
-0.759144

>  <r_i_glide_gscore>  (333) 
-3.34114

>  <r_i_glide_lipo>  (333) 
-0.250298

>  <r_i_glide_hbond>  (333) 
-0.0484573

>  <r_i_glide_metal>  (333) 
-0

>  <r_i_glide_rewards>  (333) 
-0.55523

>  <r_i_glide_evdw>  (333) 
-21.4852

>  <r_i_glide_ecoul>  (333) 
-9.40587

>  <r_i_glide_erotb>  (333) 
0

>  <r_i_glide_esite>  (333) 
-0.00201914

>  <r_i_glide_emodel>  (333) 
-34.904

>  <r_i_glide_energy>  (333) 
-30.891

>  <r_i_glide_einternal>  (333) 
1.31818

>  <r_i_glide_intrahb_reward>  (333) 
-0

>  <i_i_glide_confnum>  (333) 
2

>  <i_i_glide_posenum>  (333) 
19

>  <r_i_glide_eff_state_penalty>  (333) 
0

>  <ligand_id>  (333) 
110

>  <original_smiles>  (333) 
CC1=CC2C(C)C3(C)C(C1=O)C31CC(O)(C(O)C3C(C)(C)OC23C(C)C)C(O)C1C

>  <smiles>  (333) 
[H]OC1([H])C2([H])C(C([H])([H])[H])(C([H])([H])[H])OC2(C([H])(C([H])([H])[H])C([H])([H])[H])C2([H])C([H])=C(C([H])([H])[H])C(=O)C3([H])C(C([H])([H])[H])(C2([H])C([H])([H])[H])C32C([H])([H])C1(O[H])C([H])(O[H])C2([H])C([H])([H])[H]

$$$$
110:0:1
     RDKit          3D

 68 72  0  0  1  0  0  0  0  0999 V2000
    7.7321   -9.8795    3.7863 C   0  0  0  0  0  0  0  0  0  0  0  0
    6.2463   -9.7763    4.1129 C   0  0  0  0  0  0  0  0  0  0  0  0
    5.4092   -8.9799    3.4598 C   0  0  0  0  0  0  0  0  0  0  0  0
    5.5959   -7.4427    3.4264 C   0  0  2  0  0  0  0  0  0  0  0  0
    6.4053   -7.0211    4.7616 C   0  0  1  0  0  0  0  0  0  0  0  0
    6.9498   -5.5948    4.7912 C   0  0  0  0  0  0  0  0  0  0  0  0
    5.7913   -7.4485    6.1294 C   0  0  2  0  0  0  0  0  0  0  0  0
    6.4364   -6.7027    7.3245 C   0  0  0  0  0  0  0  0  0  0  0  0
    5.5035   -8.8072    6.4466 C   0  0  2  0  0  0  0  0  0  0  0  0
    5.9593   -9.9850    5.5612 C   0  0  0  0  0  0  0  0  0  0  0  0
    6.1694  -11.0664    6.0857 O   0  0  0  0  0  0  0  0  0  0  0  0
    4.2711   -7.8768    6.1694 C   0  0  2  0  0  0  0  0  0  0  0  0
    3.7526   -6.4212    6.2379 C   0  0  0  0  0  0  0  0  0  0  0  0
    2.2380   -6.4428    6.0145 C   0  0  1  0  0  0  0  0  0  0  0  0
    1.6681   -5.3568    6.7304 O   0  0  0  0  0  0  0  0  0  0  0  0
    1.8761   -6.3229    4.4877 C   0  0  1  0  0  0  0  0  0  0  0  0
    1.6020   -4.9958    4.0803 O   0  0  0  0  0  0  0  0  0  0  0  0
    2.8512   -7.0583    3.5409 C   0  0  1  0  0  0  0  0  0  0  0  0
    2.4451   -7.4564    2.1254 C   0  0  0  0  0  0  0  0  0  0  0  0
    1.9044   -8.8834    1.9311 C   0  0  0  0  0  0  0  0  0  0  0  0
    1.5356   -6.4885    1.3380 C   0  0  0  0  0  0  0  0  0  0  0  0
    3.8497   -7.3710    1.7028 O   0  0  0  0  0  0  0  0  0  0  0  0
    4.2724   -6.6604    2.9374 C   0  0  2  0  0  0  0  0  0  0  0  0
    4.5740   -5.2168    2.3121 C   0  0  0  0  0  0  0  0  0  0  0  0
    5.8016   -5.1276    1.3672 C   0  0  0  0  0  0  0  0  0  0  0  0
    4.5496   -3.9605    3.2223 C   0  0  0  0  0  0  0  0  0  0  0  0
    1.8573   -7.7625    6.7323 C   0  0  1  0  0  0  0  0  0  0  0  0
    1.0951   -8.6340    5.9111 O   0  0  0  0  0  0  0  0  0  0  0  0
    3.2032   -8.4249    7.1480 C   0  0  1  0  0  0  0  0  0  0  0  0
    3.0850   -9.9674    7.2969 C   0  0  0  0  0  0  0  0  0  0  0  0
    7.9572  -10.8838    3.4414 H   0  0  0  0  0  0  0  0  0  0  0  0
    8.3713   -9.6791    4.6413 H   0  0  0  0  0  0  0  0  0  0  0  0
    8.0121   -9.1913    2.9896 H   0  0  0  0  0  0  0  0  0  0  0  0
    4.3990   -9.2181    3.7377 H   0  0  0  0  0  0  0  0  0  0  0  0
    6.3319   -7.3551    2.6310 H   0  0  0  0  0  0  0  0  0  0  0  0
    7.3388   -7.5598    4.7118 H   0  0  0  0  0  0  0  0  0  0  0  0
    6.1978   -4.9157    5.1113 H   0  0  0  0  0  0  0  0  0  0  0  0
    7.3613   -5.3640    3.8249 H   0  0  0  0  0  0  0  0  0  0  0  0
    7.8017   -5.4935    5.4662 H   0  0  0  0  0  0  0  0  0  0  0  0
    6.0149   -7.0384    8.2713 H   0  0  0  0  0  0  0  0  0  0  0  0
    6.2516   -5.6365    7.2758 H   0  0  0  0  0  0  0  0  0  0  0  0
    7.5122   -6.8715    7.3594 H   0  0  0  0  0  0  0  0  0  0  0  0
    5.6924   -9.0509    7.4989 H   0  0  0  0  0  0  0  0  0  0  0  0
    3.9472   -5.9882    7.2243 H   0  0  0  0  0  0  0  0  0  0  0  0
    4.2145   -5.7503    5.5124 H   0  0  0  0  0  0  0  0  0  0  0  0
    1.9657   -4.5600    6.3265 H   0  0  0  0  0  0  0  0  0  0  0  0
    0.8921   -6.7711    4.3508 H   0  0  0  0  0  0  0  0  0  0  0  0
    2.4100   -4.5203    4.0682 H   0  0  0  0  0  0  0  0  0  0  0  0
    2.9290   -8.0206    4.0259 H   0  0  0  0  0  0  0  0  0  0  0  0
    0.8960   -8.9949    2.3430 H   0  0  0  0  0  0  0  0  0  0  0  0
    2.5231   -9.6437    2.4150 H   0  0  0  0  0  0  0  0  0  0  0  0
    1.8417   -9.1565    0.8738 H   0  0  0  0  0  0  0  0  0  0  0  0
    0.4972   -6.5734    1.6752 H   0  0  0  0  0  0  0  0  0  0  0  0
    1.5513   -6.6808    0.2606 H   0  0  0  0  0  0  0  0  0  0  0  0
    1.7989   -5.4426    1.4735 H   0  0  0  0  0  0  0  0  0  0  0  0
    3.7920   -5.0399    1.6060 H   0  0  0  0  0  0  0  0  0  0  0  0
    6.7602   -4.9844    1.8782 H   0  0  0  0  0  0  0  0  0  0  0  0
    5.7037   -4.2382    0.7299 H   0  0  0  0  0  0  0  0  0  0  0  0
    5.9195   -5.9765    0.6933 H   0  0  0  0  0  0  0  0  0  0  0  0
    5.3878   -3.8065    3.8424 H   0  0  0  0  0  0  0  0  0  0  0  0
    3.6647   -3.8997    3.8396 H   0  0  0  0  0  0  0  0  0  0  0  0
    4.4990   -3.0896    2.5850 H   0  0  0  0  0  0  0  0  0  0  0  0
    1.2693   -7.5645    7.6362 H   0  0  0  0  0  0  0  0  0  0  0  0
    0.9995   -9.4608    6.3583 H   0  0  0  0  0  0  0  0  0  0  0  0
    3.4474   -8.0440    8.1425 H   0  0  0  0  0  0  0  0  0  0  0  0
    2.9943  -10.4611    6.3289 H   0  0  0  0  0  0  0  0  0  0  0  0
    2.2113  -10.2376    7.8920 H   0  0  0  0  0  0  0  0  0  0  0  0
    3.9382  -10.4013    7.8127 H   0  0  0  0  0  0  0  0  0  0  0  0
  1  2  1  0
  1 31  1  0
  1 32  1  0
  1 33  1  0
  2 10  1  0
  2  3  2  0
  3  4  1  0
  3 34  1  0
  4 23  1  0
  4  5  1  0
  4 35  1  6
  5  6  1  0
  5  7  1  0
  5 36  1  6
  6 37  1  0
  6 38  1  0
  6 39  1  0
  7 12  1  0
  7  8  1  1
  7  9  1  0
  8 40  1  0
  8 41  1  0
  8 42  1  0
  9 10  1  0
  9 12  1  0
  9 43  1  1
 10 11  2  0
 12 29  1  0
 12 13  1  6
 13 14  1  0
 13 44  1  0
 13 45  1  0
 14 15  1  1
 14 16  1  0
 14 27  1  0
 15 46  1  0
 16 17  1  0
 16 18  1  0
 16 47  1  1
 17 48  1  0
 18 23  1  0
 18 19  1  0
 18 49  1  1
 19 20  1  0
 19 21  1  0
 19 22  1  0
 20 50  1  0
 20 51  1  0
 20 52  1  0
 21 53  1  0
 21 54  1  0
 21 55  1  0
 22 23  1  0
 23 24  1  6
 24 25  1  0
 24 26  1  0
 24 56  1  0
 25 57  1  0
 25 58  1  0
 25 59  1  0
 26 60  1  0
 26 61  1  0
 26 62  1  0
 27 28  1  0
 27 29  1  0
 27 63  1  1
 28 64  1  0
 29 30  1  0
 29 65  1  1
 30 66  1  0
 30 67  1  0
 30 68  1  0
M  END
>  <i_m_ct_stereo_status>  (334) 
1

>  <s_m_source_file>  (334) 
/var/tmp/pbs.5076255.sched01/tmpvuzdko10/1206lwnzxed.sdf

>  <i_m_source_file_index>  (334) 
30

>  <i_lp_mmshare_version>  (334) 
48012

>  <i_f3d_flags>  (334) 
0

>  <s_epik_input>  (334) 
W0NIM11bQ0BdMShbQ0BAXTIzNClbQ0BASF0yQyg9TylDKFtDSDNdKT1bQ0hdW0NASF0oW0NASF0xW0NIM10pW0NAXTUoW0NIXShbQ0gzXSlbQ0gzXSlbQ0BIXShDKE81KShbQ0gzXSlbQ0gzXSlbQ0BIXShbT0hdKVtDQEBdKFtDSDJdMykoW09IXSlbQ0BASF0oW09IXSlbQ0BIXTRbQ0gzXQ==

>  <s_epik_cmdline>  (334) 
J2VwaWtfcHl0aG9uJywgJy1waHQnLCAnMi4wJywgJy1waCcsICc3LjAnLCAnLXRuJywgJzgnLCAnLW1hJywgJzIwMCcsICctaW1hZScsICc8aW5maWxlLm1hZT4nLCAnLW9tYWUnLCAnPG91dGZpbGUubWFlPic=

>  <r_lp_tautomer_probability>  (334) 
1

>  <r_epik_Ionization_Penalty>  (334) 
3.88678e-07

>  <r_epik_Ionization_Penalty_Charging>  (334) 
0

>  <r_epik_Ionization_Penalty_Neutral>  (334) 
3.88678e-07

>  <r_epik_State_Penalty>  (334) 
-0

>  <r_epik_Charging_Adjusted_Penalty>  (334) 
0

>  <i_epik_Tot_Q>  (334) 
0

>  <i_epik_Tot_abs_Q>  (334) 
0

>  <s_lp_Force_Field>  (334) 
OPLS3e

>  <r_lp_Energy>  (334) 
175.363

>  <b_lp_Chiralities_Consistent>  (334) 
1

>  <s_lp_Variant>  (334) 
110:0-1

>  <s_i_glide_gridfile>  (334) 
pfpi4k_grid

>  <i_i_glide_lignum>  (334) 
30

>  <i_i_glide_rotatable_bonds>  (334) 
4

>  <r_i_docking_score>  (334) 
-1.42449

>  <r_i_glide_ligand_efficiency>  (334) 
-0.0474831

>  <r_i_glide_ligand_efficiency_sa>  (334) 
-0.147541

>  <r_i_glide_ligand_efficiency_ln>  (334) 
-0.32366

>  <r_i_glide_gscore>  (334) 
-1.42449

>  <r_i_glide_lipo>  (334) 
-0.118531

>  <r_i_glide_hbond>  (334) 
0

>  <r_i_glide_metal>  (334) 
-0

>  <r_i_glide_rewards>  (334) 
-0.55523

>  <r_i_glide_evdw>  (334) 
-13.428

>  <r_i_glide_ecoul>  (334) 
-0.527225

>  <r_i_glide_erotb>  (334) 
0

>  <r_i_glide_esite>  (334) 
-0.000245227

>  <r_i_glide_emodel>  (334) 
-14.4585

>  <r_i_glide_energy>  (334) 
-13.9553

>  <r_i_glide_einternal>  (334) 
0.449094

>  <r_i_glide_intrahb_reward>  (334) 
-0

>  <i_i_glide_confnum>  (334) 
2

>  <i_i_glide_posenum>  (334) 
9

>  <r_i_glide_eff_state_penalty>  (334) 
0

>  <ligand_id>  (334) 
110

>  <original_smiles>  (334) 
CC1=CC2C(C)C3(C)C(C1=O)C31CC(O)(C(O)C3C(C)(C)OC23C(C)C)C(O)C1C

>  <smiles>  (334) 
[H]OC1([H])C2([H])C(C([H])([H])[H])(C([H])([H])[H])OC2(C([H])(C([H])([H])[H])C([H])([H])[H])C2([H])C([H])=C(C([H])([H])[H])C(=O)C3([H])C(C([H])([H])[H])(C2([H])C([H])([H])[H])C32C([H])([H])C1(O[H])C([H])(O[H])C2([H])C([H])([H])[H]

$$$$
111:0:0
     RDKit          3D

 28 30  0  0  1  0  0  0  0  0999 V2000
   -6.5806   -4.2559   -4.3861 N   0  0  0  0  0  0  0  0  0  0  0  0
   -6.6256   -5.4427   -5.1187 C   0  0  0  0  0  0  0  0  0  0  0  0
   -5.7556   -6.5102   -4.7884 C   0  0  0  0  0  0  0  0  0  0  0  0
   -5.7844   -7.7229   -5.5157 C   0  0  0  0  0  0  0  0  0  0  0  0
   -6.7109   -7.8434   -6.5668 C   0  0  0  0  0  0  0  0  0  0  0  0
   -7.5610   -6.7952   -6.8953 C   0  0  0  0  0  0  0  0  0  0  0  0
   -7.5401   -5.5811   -6.1832 C   0  0  0  0  0  0  0  0  0  0  0  0
   -8.4358   -7.1332   -8.0672 C   0  0  0  0  0  0  0  0  0  0  0  0
   -7.9562   -8.5436   -8.5145 C   0  0  2  0  0  0  0  0  0  0  0  0
   -9.0628   -9.6066   -8.4751 C   0  0  0  0  0  0  0  0  0  0  0  0
   -8.9572  -10.2111   -7.1387 N   0  0  0  0  0  0  0  0  0  0  0  0
   -7.5180  -10.2756   -6.8358 C   0  0  0  0  0  0  0  0  0  0  0  0
   -6.8897   -9.0279   -7.4890 C   0  0  2  0  0  0  0  0  0  0  0  0
   -5.9371   -4.1145   -3.6200 H   0  0  0  0  0  0  0  0  0  0  0  0
   -7.1827   -3.4710   -4.5938 H   0  0  0  0  0  0  0  0  0  0  0  0
   -5.0614   -6.3970   -3.9736 H   0  0  0  0  0  0  0  0  0  0  0  0
   -5.1059   -8.5293   -5.2649 H   0  0  0  0  0  0  0  0  0  0  0  0
   -8.2018   -4.7729   -6.4535 H   0  0  0  0  0  0  0  0  0  0  0  0
   -9.4782   -7.1306   -7.7446 H   0  0  0  0  0  0  0  0  0  0  0  0
   -8.3272   -6.4005   -8.8684 H   0  0  0  0  0  0  0  0  0  0  0  0
   -7.5173   -8.4783   -9.5138 H   0  0  0  0  0  0  0  0  0  0  0  0
  -10.0619   -9.2181   -8.6844 H   0  0  0  0  0  0  0  0  0  0  0  0
   -8.8493  -10.3809   -9.2151 H   0  0  0  0  0  0  0  0  0  0  0  0
   -9.3947   -9.5860   -6.4754 H   0  0  0  0  0  0  0  0  0  0  0  0
   -7.3091  -10.3774   -5.7697 H   0  0  0  0  0  0  0  0  0  0  0  0
   -7.1323  -11.1658   -7.3346 H   0  0  0  0  0  0  0  0  0  0  0  0
   -5.9380   -9.2650   -7.9689 H   0  0  0  0  0  0  0  0  0  0  0  0
   -9.4022  -11.1171   -7.1002 H   0  0  0  0  0  0  0  0  0  0  0  0
  1  2  1  0
  1 14  1  0
  1 15  1  0
  2  7  2  0
  2  3  1  0
  3  4  2  0
  3 16  1  0
  4  5  1  0
  4 17  1  0
  5 13  1  0
  5  6  2  0
  6  7  1  0
  6  8  1  0
  7 18  1  0
  8  9  1  0
  8 19  1  0
  8 20  1  0
  9 13  1  0
  9 10  1  0
  9 21  1  6
 10 11  1  0
 10 22  1  0
 10 23  1  0
 11 12  1  0
 11 24  1  0
 11 28  1  0
 12 13  1  0
 12 25  1  0
 12 26  1  0
 13 27  1  6
M  CHG  1  11   1
M  END
>  <i_m_ct_stereo_status>  (335) 
1

>  <s_m_source_file>  (335) 
/var/tmp/pbs.5076255.sched01/tmpvuzdko10/1206lwnzxed.sdf

>  <i_m_source_file_index>  (335) 
31

>  <i_lp_mmshare_version>  (335) 
48012

>  <i_f3d_flags>  (335) 
0

>  <s_epik_input>  (335) 
W2NIXTFbY0hdYyhbTkgyXSlbY0hdYyhjMTIpW0NIMl1bQ0BIXTNbQ0BASF0yW0NIMl1bTkhdW0NIMl0z

>  <s_epik_cmdline>  (335) 
J2VwaWtfcHl0aG9uJywgJy1waHQnLCAnMi4wJywgJy1waCcsICc3LjAnLCAnLXRuJywgJzgnLCAnLW1hJywgJzIwMCcsICctaW1hZScsICc8aW5maWxlLm1hZT4nLCAnLW9tYWUnLCAnPG91dGZpbGUubWFlPic=

>  <r_epik_Ionization_Penalty>  (335) 
0.00118066

>  <r_epik_Ionization_Penalty_Charging>  (335) 
0.000113153

>  <r_epik_Ionization_Penalty_Neutral>  (335) 
0.00106751

>  <r_epik_State_Penalty>  (335) 
0.000698941

>  <r_epik_Charging_Adjusted_Penalty>  (335) 
0.000812094

>  <i_epik_Tot_Q>  (335) 
1

>  <i_epik_Tot_abs_Q>  (335) 
1

>  <s_lp_Force_Field>  (335) 
OPLS3e

>  <r_lp_Energy>  (335) 
18.0574

>  <b_lp_Chiralities_Consistent>  (335) 
1

>  <s_lp_Variant>  (335) 
111:0-1

>  <s_i_glide_gridfile>  (335) 
pfpi4k_grid

>  <i_i_glide_lignum>  (335) 
31

>  <i_i_glide_rotatable_bonds>  (335) 
0

>  <r_i_docking_score>  (335) 
-6.03923

>  <r_i_glide_ligand_efficiency>  (335) 
-0.464556

>  <r_i_glide_ligand_efficiency_sa>  (335) 
-1.09233

>  <r_i_glide_ligand_efficiency_ln>  (335) 
-1.69406

>  <r_i_glide_gscore>  (335) 
-6.03923

>  <r_i_glide_lipo>  (335) 
-2.18149

>  <r_i_glide_hbond>  (335) 
0

>  <r_i_glide_metal>  (335) 
-0

>  <r_i_glide_rewards>  (335) 
-2.6642

>  <r_i_glide_evdw>  (335) 
-20.7722

>  <r_i_glide_ecoul>  (335) 
-1.03287

>  <r_i_glide_erotb>  (335) 
0

>  <r_i_glide_esite>  (335) 
0

>  <r_i_glide_emodel>  (335) 
-32.1648

>  <r_i_glide_energy>  (335) 
-21.8051

>  <r_i_glide_einternal>  (335) 
0

>  <r_i_glide_intrahb_reward>  (335) 
-0

>  <i_i_glide_confnum>  (335) 
2

>  <i_i_glide_posenum>  (335) 
12

>  <r_i_glide_eff_state_penalty>  (335) 
0

>  <ligand_id>  (335) 
111

>  <original_smiles>  (335) 
Nc1ccc2c(c1)CC1CNCC21

>  <smiles>  (335) 
[H]c1c([H])c2c(c([H])c1N([H])[H])C([H])([H])C1([H])C2([H])C([H])([H])[N+]([H])([H])C1([H])[H]

$$$$
111:0:1
     RDKit          3D

 28 30  0  0  1  0  0  0  0  0999 V2000
   -6.2003   -4.2301   -4.3203 N   0  0  0  0  0  0  0  0  0  0  0  0
   -6.9632   -4.9104   -5.2658 C   0  0  0  0  0  0  0  0  0  0  0  0
   -8.0805   -4.2764   -5.8657 C   0  0  0  0  0  0  0  0  0  0  0  0
   -8.8470   -4.9390   -6.8494 C   0  0  0  0  0  0  0  0  0  0  0  0
   -8.4683   -6.2436   -7.2174 C   0  0  0  0  0  0  0  0  0  0  0  0
   -7.3844   -6.8722   -6.6159 C   0  0  0  0  0  0  0  0  0  0  0  0
   -6.6126   -6.2270   -5.6343 C   0  0  0  0  0  0  0  0  0  0  0  0
   -7.1958   -8.2716   -7.1248 C   0  0  0  0  0  0  0  0  0  0  0  0
   -8.4002   -8.4973   -8.0811 C   0  0  2  0  0  0  0  0  0  0  0  0
   -7.9813   -8.8318   -9.5174 C   0  0  0  0  0  0  0  0  0  0  0  0
   -7.9311   -7.5321  -10.2055 N   0  0  0  0  0  0  0  0  0  0  0  0
   -9.0559   -6.7479   -9.6689 C   0  0  0  0  0  0  0  0  0  0  0  0
   -9.1794   -7.1549   -8.1907 C   0  0  2  0  0  0  0  0  0  0  0  0
   -6.4294   -3.2897   -4.0232 H   0  0  0  0  0  0  0  0  0  0  0  0
   -5.4014   -4.6436   -3.8633 H   0  0  0  0  0  0  0  0  0  0  0  0
   -8.3521   -3.2765   -5.5669 H   0  0  0  0  0  0  0  0  0  0  0  0
   -9.7165   -4.4619   -7.2832 H   0  0  0  0  0  0  0  0  0  0  0  0
   -5.7728   -6.7261   -5.1738 H   0  0  0  0  0  0  0  0  0  0  0  0
   -6.2354   -8.3336   -7.6389 H   0  0  0  0  0  0  0  0  0  0  0  0
   -7.1910   -8.9955   -6.3077 H   0  0  0  0  0  0  0  0  0  0  0  0
   -9.0465   -9.2816   -7.6743 H   0  0  0  0  0  0  0  0  0  0  0  0
   -7.0420   -9.3812   -9.5846 H   0  0  0  0  0  0  0  0  0  0  0  0
   -8.7551   -9.4372   -9.9921 H   0  0  0  0  0  0  0  0  0  0  0  0
   -7.0669   -7.0731   -9.9517 H   0  0  0  0  0  0  0  0  0  0  0  0
   -8.9462   -5.6750   -9.8289 H   0  0  0  0  0  0  0  0  0  0  0  0
   -9.9508   -7.0732  -10.2002 H   0  0  0  0  0  0  0  0  0  0  0  0
  -10.2275   -7.2676   -7.9000 H   0  0  0  0  0  0  0  0  0  0  0  0
   -7.9896   -7.6396  -11.2071 H   0  0  0  0  0  0  0  0  0  0  0  0
  1  2  1  0
  1 14  1  0
  1 15  1  0
  2  7  2  0
  2  3  1  0
  3  4  2  0
  3 16  1  0
  4  5  1  0
  4 17  1  0
  5 13  1  0
  5  6  2  0
  6  7  1  0
  6  8  1  0
  7 18  1  0
  8  9  1  0
  8 19  1  0
  8 20  1  0
  9 13  1  0
  9 10  1  0
  9 21  1  1
 10 11  1  0
 10 22  1  0
 10 23  1  0
 11 12  1  0
 11 24  1  0
 11 28  1  0
 12 13  1  0
 12 25  1  0
 12 26  1  0
 13 27  1  1
M  CHG  1  11   1
M  END
>  <i_m_ct_stereo_status>  (336) 
1

>  <s_m_source_file>  (336) 
/var/tmp/pbs.5076255.sched01/tmpvuzdko10/1206lwnzxed.sdf

>  <i_m_source_file_index>  (336) 
31

>  <i_lp_mmshare_version>  (336) 
48012

>  <i_f3d_flags>  (336) 
0

>  <s_epik_input>  (336) 
W2NIXTFbY0hdYyhbTkgyXSlbY0hdYyhjMTIpW0NIMl1bQ0BIXTNbQ0BASF0yW0NIMl1bTkhdW0NIMl0z

>  <s_epik_cmdline>  (336) 
J2VwaWtfcHl0aG9uJywgJy1waHQnLCAnMi4wJywgJy1waCcsICc3LjAnLCAnLXRuJywgJzgnLCAnLW1hJywgJzIwMCcsICctaW1hZScsICc8aW5maWxlLm1hZT4nLCAnLW9tYWUnLCAnPG91dGZpbGUubWFlPic=

>  <r_epik_Ionization_Penalty>  (336) 
0.00118066

>  <r_epik_Ionization_Penalty_Charging>  (336) 
0.000113153

>  <r_epik_Ionization_Penalty_Neutral>  (336) 
0.00106751

>  <r_epik_State_Penalty>  (336) 
0.000698941

>  <r_epik_Charging_Adjusted_Penalty>  (336) 
0.000812094

>  <i_epik_Tot_Q>  (336) 
1

>  <i_epik_Tot_abs_Q>  (336) 
1

>  <s_lp_Force_Field>  (336) 
OPLS3e

>  <r_lp_Energy>  (336) 
18.0574

>  <b_lp_Chiralities_Consistent>  (336) 
1

>  <s_lp_Variant>  (336) 
111:0-1

>  <s_i_glide_gridfile>  (336) 
pfpi4k_grid

>  <i_i_glide_lignum>  (336) 
31

>  <i_i_glide_rotatable_bonds>  (336) 
0

>  <r_i_docking_score>  (336) 
-5.95457

>  <r_i_glide_ligand_efficiency>  (336) 
-0.458044

>  <r_i_glide_ligand_efficiency_sa>  (336) 
-1.07701

>  <r_i_glide_ligand_efficiency_ln>  (336) 
-1.67031

>  <r_i_glide_gscore>  (336) 
-5.95457

>  <r_i_glide_lipo>  (336) 
-2.18183

>  <r_i_glide_hbond>  (336) 
0

>  <r_i_glide_metal>  (336) 
-0

>  <r_i_glide_rewards>  (336) 
-2.74202

>  <r_i_glide_evdw>  (336) 
-20.107

>  <r_i_glide_ecoul>  (336) 
-0.169125

>  <r_i_glide_erotb>  (336) 
0

>  <r_i_glide_esite>  (336) 
0

>  <r_i_glide_emodel>  (336) 
-30.4807

>  <r_i_glide_energy>  (336) 
-20.2761

>  <r_i_glide_einternal>  (336) 
0

>  <r_i_glide_intrahb_reward>  (336) 
-0

>  <i_i_glide_confnum>  (336) 
1

>  <i_i_glide_posenum>  (336) 
3

>  <r_i_glide_eff_state_penalty>  (336) 
0

>  <ligand_id>  (336) 
111

>  <original_smiles>  (336) 
Nc1ccc2c(c1)CC1CNCC21

>  <smiles>  (336) 
[H]c1c([H])c2c(c([H])c1N([H])[H])C([H])([H])C1([H])C2([H])C([H])([H])[N+]([H])([H])C1([H])[H]

$$$$
111:0:2
     RDKit          3D

 28 30  0  0  1  0  0  0  0  0999 V2000
    1.5064   -4.0789    5.0110 N   0  0  0  0  0  0  0  0  0  0  0  0
    1.3899   -2.6941    4.8627 C   0  0  0  0  0  0  0  0  0  0  0  0
    2.5417   -1.8704    4.9711 C   0  0  0  0  0  0  0  0  0  0  0  0
    2.4494   -0.4694    4.8083 C   0  0  0  0  0  0  0  0  0  0  0  0
    1.1854    0.0868    4.5344 C   0  0  0  0  0  0  0  0  0  0  0  0
    0.0532   -0.7197    4.4463 C   0  0  0  0  0  0  0  0  0  0  0  0
    0.1305   -2.1132    4.6009 C   0  0  0  0  0  0  0  0  0  0  0  0
   -1.1827    0.0901    4.1885 C   0  0  0  0  0  0  0  0  0  0  0  0
   -0.6980    1.5632    4.2122 C   0  0  2  0  0  0  0  0  0  0  0  0
   -0.9560    2.3065    2.8938 C   0  0  0  0  0  0  0  0  0  0  0  0
    0.2708    2.1363    2.1087 N   0  0  0  0  0  0  0  0  0  0  0  0
    1.3794    2.1937    3.0713 C   0  0  0  0  0  0  0  0  0  0  0  0
    0.8502    1.5499    4.3709 C   0  0  2  0  0  0  0  0  0  0  0  0
    2.3919   -4.5252    5.2079 H   0  0  0  0  0  0  0  0  0  0  0  0
    0.7153   -4.7037    4.9532 H   0  0  0  0  0  0  0  0  0  0  0  0
    3.4992   -2.3197    5.1834 H   0  0  0  0  0  0  0  0  0  0  0  0
    3.3278    0.1598    4.9128 H   0  0  0  0  0  0  0  0  0  0  0  0
   -0.7554   -2.7268    4.5202 H   0  0  0  0  0  0  0  0  0  0  0  0
   -1.5828   -0.1874    3.2171 H   0  0  0  0  0  0  0  0  0  0  0  0
   -1.9591   -0.1039    4.9303 H   0  0  0  0  0  0  0  0  0  0  0  0
   -1.1692    2.0847    5.0511 H   0  0  0  0  0  0  0  0  0  0  0  0
   -1.8535    1.9861    2.3620 H   0  0  0  0  0  0  0  0  0  0  0  0
   -1.0658    3.3694    3.0994 H   0  0  0  0  0  0  0  0  0  0  0  0
    0.2545    1.2351    1.6642 H   0  0  0  0  0  0  0  0  0  0  0  0
    2.3089    1.7564    2.7000 H   0  0  0  0  0  0  0  0  0  0  0  0
    1.5728    3.2460    3.2609 H   0  0  0  0  0  0  0  0  0  0  0  0
    1.1752    2.1030    5.2573 H   0  0  0  0  0  0  0  0  0  0  0  0
    0.3217    2.8932    1.4154 H   0  0  0  0  0  0  0  0  0  0  0  0
  1  2  1  0
  1 14  1  0
  1 15  1  0
  2  7  2  0
  2  3  1  0
  3  4  2  0
  3 16  1  0
  4  5  1  0
  4 17  1  0
  5 13  1  0
  5  6  2  0
  6  7  1  0
  6  8  1  0
  7 18  1  0
  8  9  1  0
  8 19  1  0
  8 20  1  0
  9 13  1  0
  9 10  1  0
  9 21  1  1
 10 11  1  0
 10 22  1  0
 10 23  1  0
 11 12  1  0
 11 24  1  0
 11 28  1  0
 12 13  1  0
 12 25  1  0
 12 26  1  0
 13 27  1  1
M  CHG  1  11   1
M  END
>  <i_m_ct_stereo_status>  (337) 
1

>  <s_m_source_file>  (337) 
/var/tmp/pbs.5076255.sched01/tmpvuzdko10/1206lwnzxed.sdf

>  <i_m_source_file_index>  (337) 
31

>  <i_lp_mmshare_version>  (337) 
48012

>  <i_f3d_flags>  (337) 
0

>  <s_epik_input>  (337) 
W2NIXTFbY0hdYyhbTkgyXSlbY0hdYyhjMTIpW0NIMl1bQ0BIXTNbQ0BASF0yW0NIMl1bTkhdW0NIMl0z

>  <s_epik_cmdline>  (337) 
J2VwaWtfcHl0aG9uJywgJy1waHQnLCAnMi4wJywgJy1waCcsICc3LjAnLCAnLXRuJywgJzgnLCAnLW1hJywgJzIwMCcsICctaW1hZScsICc8aW5maWxlLm1hZT4nLCAnLW9tYWUnLCAnPG91dGZpbGUubWFlPic=

>  <r_epik_Ionization_Penalty>  (337) 
0.00118066

>  <r_epik_Ionization_Penalty_Charging>  (337) 
0.000113153

>  <r_epik_Ionization_Penalty_Neutral>  (337) 
0.00106751

>  <r_epik_State_Penalty>  (337) 
0.000698941

>  <r_epik_Charging_Adjusted_Penalty>  (337) 
0.000812094

>  <i_epik_Tot_Q>  (337) 
1

>  <i_epik_Tot_abs_Q>  (337) 
1

>  <s_lp_Force_Field>  (337) 
OPLS3e

>  <r_lp_Energy>  (337) 
18.0574

>  <b_lp_Chiralities_Consistent>  (337) 
1

>  <s_lp_Variant>  (337) 
111:0-1

>  <s_i_glide_gridfile>  (337) 
pfpi4k_grid

>  <i_i_glide_lignum>  (337) 
31

>  <i_i_glide_rotatable_bonds>  (337) 
0

>  <r_i_docking_score>  (337) 
-3.88499

>  <r_i_glide_ligand_efficiency>  (337) 
-0.298846

>  <r_i_glide_ligand_efficiency_sa>  (337) 
-0.702686

>  <r_i_glide_ligand_efficiency_ln>  (337) 
-1.08977

>  <r_i_glide_gscore>  (337) 
-3.88499

>  <r_i_glide_lipo>  (337) 
-0.0404442

>  <r_i_glide_hbond>  (337) 
-0.2

>  <r_i_glide_metal>  (337) 
-0

>  <r_i_glide_rewards>  (337) 
-2.2142

>  <r_i_glide_evdw>  (337) 
-10.2094

>  <r_i_glide_ecoul>  (337) 
-5.49894

>  <r_i_glide_erotb>  (337) 
0

>  <r_i_glide_esite>  (337) 
-0.0950359

>  <r_i_glide_emodel>  (337) 
-22.3302

>  <r_i_glide_energy>  (337) 
-15.7083

>  <r_i_glide_einternal>  (337) 
0

>  <r_i_glide_intrahb_reward>  (337) 
-0

>  <i_i_glide_confnum>  (337) 
1

>  <i_i_glide_posenum>  (337) 
14

>  <r_i_glide_eff_state_penalty>  (337) 
0

>  <ligand_id>  (337) 
111

>  <original_smiles>  (337) 
Nc1ccc2c(c1)CC1CNCC21

>  <smiles>  (337) 
[H]c1c([H])c2c(c([H])c1N([H])[H])C([H])([H])C1([H])C2([H])C([H])([H])[N+]([H])([H])C1([H])[H]

$$$$
112:0:0
     RDKit          3D

 32 35  0  0  1  0  0  0  0  0999 V2000
    3.5204   -0.6068   -2.9841 C   0  0  0  0  0  0  0  0  0  0  0  0
    3.9562   -1.6165   -2.0145 N   0  0  0  0  0  0  0  0  0  0  0  0
    3.4139   -2.7433   -1.7218 C   0  0  0  0  0  0  0  0  0  0  0  0
    2.2012   -3.3852   -2.2920 C   0  0  0  0  0  0  0  0  0  0  0  0
    1.4681   -4.1378   -1.3071 O   0  0  0  0  0  0  0  0  0  0  0  0
    2.1641   -4.8177   -0.3125 C   0  0  0  0  0  0  0  0  0  0  0  0
    1.4422   -5.7820    0.2963 N   0  0  0  0  0  0  0  0  0  0  0  0
    2.0448   -6.4333    1.2924 C   0  0  0  0  0  0  0  0  0  0  0  0
    3.2657   -6.2090    1.7584 N   0  0  0  0  0  0  0  0  0  0  0  0
    3.9922   -5.2449    1.1690 C   0  0  0  0  0  0  0  0  0  0  0  0
    5.2592   -5.0166    1.7094 N   0  0  0  0  0  0  0  0  0  0  0  0
    3.4851   -4.5007    0.0803 C   0  0  0  0  0  0  0  0  0  0  0  0
    4.2232   -3.4002   -0.6578 C   0  0  1  0  0  0  0  0  0  0  0  0
    5.5742   -3.7734   -1.3194 C   0  0  0  0  0  0  0  0  0  0  0  0
    6.2145   -2.3970   -1.6218 C   0  0  0  0  0  0  0  0  0  0  0  0
    5.1120   -1.4356   -1.1349 C   0  0  2  0  0  0  0  0  0  0  0  0
    4.6300   -2.1478    0.1298 C   0  0  0  0  0  0  0  0  0  0  0  0
    4.2041    0.2424   -2.9211 H   0  0  0  0  0  0  0  0  0  0  0  0
    2.5164   -0.2784   -2.7108 H   0  0  0  0  0  0  0  0  0  0  0  0
    3.5253   -1.0242   -3.9924 H   0  0  0  0  0  0  0  0  0  0  0  0
    1.5746   -2.6511   -2.8008 H   0  0  0  0  0  0  0  0  0  0  0  0
    1.4702   -7.1963    1.7867 H   0  0  0  0  0  0  0  0  0  0  0  0
    5.8885   -4.3216    1.3412 H   0  0  0  0  0  0  0  0  0  0  0  0
    6.2328   -4.3101   -0.6422 H   0  0  0  0  0  0  0  0  0  0  0  0
    5.4371   -4.3791   -2.2167 H   0  0  0  0  0  0  0  0  0  0  0  0
    7.1499   -2.2563   -1.0801 H   0  0  0  0  0  0  0  0  0  0  0  0
    6.4025   -2.2840   -2.6873 H   0  0  0  0  0  0  0  0  0  0  0  0
    5.3587   -0.3792   -1.0253 H   0  0  0  0  0  0  0  0  0  0  0  0
    3.7875   -1.6390    0.6068 H   0  0  0  0  0  0  0  0  0  0  0  0
    5.4272   -2.3132    0.8590 H   0  0  0  0  0  0  0  0  0  0  0  0
    5.5842   -5.5678    2.4875 H   0  0  0  0  0  0  0  0  0  0  0  0
    2.5326   -4.0498   -3.0839 H   0  0  0  0  0  0  0  0  0  0  0  0
  1  2  1  0
  1 18  1  0
  1 19  1  0
  1 20  1  0
  2 16  1  0
  2  3  2  0
  3 13  1  0
  3  4  1  0
  4  5  1  0
  4 21  1  0
  4 32  1  0
  5  6  1  0
  6 12  2  0
  6  7  1  0
  7  8  2  0
  8  9  1  0
  8 22  1  0
  9 10  2  0
 10 11  1  0
 10 12  1  0
 11 23  1  0
 11 31  1  0
 12 13  1  0
 13 17  1  0
 13 14  1  6
 14 15  1  0
 14 24  1  0
 14 25  1  0
 15 16  1  0
 15 26  1  0
 15 27  1  0
 16 17  1  0
 16 28  1  1
 17 29  1  0
 17 30  1  0
M  CHG  1   2   1
M  END
>  <i_m_ct_stereo_status>  (338) 
1

>  <s_m_source_file>  (338) 
/var/tmp/pbs.5076255.sched01/tmpvuzdko10/1206lwnzxed.sdf

>  <i_m_source_file_index>  (338) 
32

>  <i_lp_mmshare_version>  (338) 
48012

>  <i_f3d_flags>  (338) 
0

>  <s_epik_input>  (338) 
W0NIMl0xW0NIMl1bQ0BIXShbQ0gyXTIpTihbQ0gzXSlDKFtDQEBdMTIzKT1bQ0hdT2M0YzNjKD1OXFtIXSlcW25IXVtjSF1uNA==

>  <s_epik_cmdline>  (338) 
J2VwaWtfcHl0aG9uJywgJy1waHQnLCAnMi4wJywgJy1waCcsICc3LjAnLCAnLXRuJywgJzgnLCAnLW1hJywgJzIwMCcsICctaW1hZScsICc8aW5maWxlLm1hZT4nLCAnLW9tYWUnLCAnPG91dGZpbGUubWFlPic=

>  <r_lp_tautomer_probability>  (338) 
1

>  <r_epik_Ionization_Penalty>  (338) 
0.152356

>  <r_epik_Ionization_Penalty_Charging>  (338) 
0

>  <r_epik_Ionization_Penalty_Neutral>  (338) 
0.152356

>  <r_epik_State_Penalty>  (338) 
0.0302808

>  <r_epik_Charging_Adjusted_Penalty>  (338) 
0.0302808

>  <i_epik_Tot_Q>  (338) 
1

>  <i_epik_Tot_abs_Q>  (338) 
1

>  <s_epik_Chemistry_Notes>  (338) 
This compound has an imine and may undergo hydrolysis.

>  <s_lp_Force_Field>  (338) 
OPLS3e

>  <r_lp_Energy>  (338) 
54.1266

>  <b_lp_Chiralities_Consistent>  (338) 
1

>  <s_lp_Variant>  (338) 
112:0-1

>  <s_i_glide_gridfile>  (338) 
pfpi4k_grid

>  <i_i_glide_lignum>  (338) 
32

>  <i_i_glide_rotatable_bonds>  (338) 
0

>  <r_i_docking_score>  (338) 
-4.30755

>  <r_i_glide_ligand_efficiency>  (338) 
-0.253385

>  <r_i_glide_ligand_efficiency_sa>  (338) 
-0.651525

>  <r_i_glide_ligand_efficiency_ln>  (338) 
-1.12374

>  <r_i_glide_gscore>  (338) 
-4.30755

>  <r_i_glide_lipo>  (338) 
-0.396801

>  <r_i_glide_hbond>  (338) 
-0.151299

>  <r_i_glide_metal>  (338) 
-0

>  <r_i_glide_rewards>  (338) 
-1.83222

>  <r_i_glide_evdw>  (338) 
-16.0344

>  <r_i_glide_ecoul>  (338) 
-6.85345

>  <r_i_glide_erotb>  (338) 
0

>  <r_i_glide_esite>  (338) 
-0.0974872

>  <r_i_glide_emodel>  (338) 
-29.3682

>  <r_i_glide_energy>  (338) 
-22.8879

>  <r_i_glide_einternal>  (338) 
0

>  <r_i_glide_intrahb_reward>  (338) 
-0

>  <i_i_glide_confnum>  (338) 
2

>  <i_i_glide_posenum>  (338) 
25

>  <r_i_glide_eff_state_penalty>  (338) 
0

>  <ligand_id>  (338) 
112

>  <original_smiles>  (338) 
CN1C2=COc3nc[nH]c(=N)c3C23CCC1C3

>  <smiles>  (338) 
[H]c1nc2c(c(N([H])[H])n1)C13C(=[N+](C([H])([H])[H])C([H])(C([H])([H])C1([H])[H])C3([H])[H])C([H])([H])O2

$$$$
112:0:1
     RDKit          3D

 32 35  0  0  1  0  0  0  0  0999 V2000
    3.0854   -0.6786    3.8304 C   0  0  0  0  0  0  0  0  0  0  0  0
    2.5003    0.6638    3.9805 N   0  0  0  0  0  0  0  0  0  0  0  0
    1.2648    1.0280    3.9990 C   0  0  0  0  0  0  0  0  0  0  0  0
    0.0260    0.2083    3.9109 C   0  0  0  0  0  0  0  0  0  0  0  0
   -0.9986    0.8566    3.1485 O   0  0  0  0  0  0  0  0  0  0  0  0
   -1.1445    2.2302    3.2629 C   0  0  0  0  0  0  0  0  0  0  0  0
   -2.3383    2.6925    2.8662 N   0  0  0  0  0  0  0  0  0  0  0  0
   -2.5085    4.0079    2.8802 C   0  0  0  0  0  0  0  0  0  0  0  0
   -1.6387    4.9304    3.2889 N   0  0  0  0  0  0  0  0  0  0  0  0
   -0.4336    4.4809    3.6953 C   0  0  0  0  0  0  0  0  0  0  0  0
    0.4450    5.4635    4.1549 N   0  0  0  0  0  0  0  0  0  0  0  0
   -0.1230    3.0979    3.7168 C   0  0  0  0  0  0  0  0  0  0  0  0
    1.2089    2.5092    4.1516 C   0  0  1  0  0  0  0  0  0  0  0  0
    1.6948    2.8151    5.5962 C   0  0  0  0  0  0  0  0  0  0  0  0
    3.1884    2.3871    5.5583 C   0  0  0  0  0  0  0  0  0  0  0  0
    3.3210    1.8699    4.1092 C   0  0  2  0  0  0  0  0  0  0  0  0
    2.4553    2.8738    3.3398 C   0  0  0  0  0  0  0  0  0  0  0  0
    4.1717   -0.5919    3.8734 H   0  0  0  0  0  0  0  0  0  0  0  0
    2.7841   -1.0932    2.8668 H   0  0  0  0  0  0  0  0  0  0  0  0
    2.7400   -1.3091    4.6513 H   0  0  0  0  0  0  0  0  0  0  0  0
    0.2400   -0.7832    3.5056 H   0  0  0  0  0  0  0  0  0  0  0  0
   -3.4723    4.3775    2.5694 H   0  0  0  0  0  0  0  0  0  0  0  0
    1.4153    5.2333    4.3159 H   0  0  0  0  0  0  0  0  0  0  0  0
    1.6472    3.8762    5.8292 H   0  0  0  0  0  0  0  0  0  0  0  0
    1.1235    2.2864    6.3619 H   0  0  0  0  0  0  0  0  0  0  0  0
    3.8553    3.2301    5.7447 H   0  0  0  0  0  0  0  0  0  0  0  0
    3.4105    1.6085    6.2878 H   0  0  0  0  0  0  0  0  0  0  0  0
    4.3247    1.6974    3.7319 H   0  0  0  0  0  0  0  0  0  0  0  0
    2.3778    2.6374    2.2743 H   0  0  0  0  0  0  0  0  0  0  0  0
    2.7871    3.9089    3.4536 H   0  0  0  0  0  0  0  0  0  0  0  0
    0.2764    6.4349    3.9242 H   0  0  0  0  0  0  0  0  0  0  0  0
   -0.3614    0.0788    4.9211 H   0  0  0  0  0  0  0  0  0  0  0  0
  1  2  1  0
  1 18  1  0
  1 19  1  0
  1 20  1  0
  2 16  1  0
  2  3  2  0
  3 13  1  0
  3  4  1  0
  4  5  1  0
  4 21  1  0
  4 32  1  0
  5  6  1  0
  6 12  2  0
  6  7  1  0
  7  8  2  0
  8  9  1  0
  8 22  1  0
  9 10  2  0
 10 11  1  0
 10 12  1  0
 11 23  1  0
 11 31  1  0
 12 13  1  0
 13 17  1  0
 13 14  1  1
 14 15  1  0
 14 24  1  0
 14 25  1  0
 15 16  1  0
 15 26  1  0
 15 27  1  0
 16 17  1  0
 16 28  1  6
 17 29  1  0
 17 30  1  0
M  CHG  1   2   1
M  END
>  <i_m_ct_stereo_status>  (339) 
1

>  <s_m_source_file>  (339) 
/var/tmp/pbs.5076255.sched01/tmpvuzdko10/1206lwnzxed.sdf

>  <i_m_source_file_index>  (339) 
32

>  <i_lp_mmshare_version>  (339) 
48012

>  <i_f3d_flags>  (339) 
0

>  <s_epik_input>  (339) 
W0NIMl0xW0NIMl1bQ0BIXShbQ0gyXTIpTihbQ0gzXSlDKFtDQEBdMTIzKT1bQ0hdT2M0YzNjKD1OXFtIXSlcW25IXVtjSF1uNA==

>  <s_epik_cmdline>  (339) 
J2VwaWtfcHl0aG9uJywgJy1waHQnLCAnMi4wJywgJy1waCcsICc3LjAnLCAnLXRuJywgJzgnLCAnLW1hJywgJzIwMCcsICctaW1hZScsICc8aW5maWxlLm1hZT4nLCAnLW9tYWUnLCAnPG91dGZpbGUubWFlPic=

>  <r_lp_tautomer_probability>  (339) 
1

>  <r_epik_Ionization_Penalty>  (339) 
0.152356

>  <r_epik_Ionization_Penalty_Charging>  (339) 
0

>  <r_epik_Ionization_Penalty_Neutral>  (339) 
0.152356

>  <r_epik_State_Penalty>  (339) 
0.0302808

>  <r_epik_Charging_Adjusted_Penalty>  (339) 
0.0302808

>  <i_epik_Tot_Q>  (339) 
1

>  <i_epik_Tot_abs_Q>  (339) 
1

>  <s_epik_Chemistry_Notes>  (339) 
This compound has an imine and may undergo hydrolysis.

>  <s_lp_Force_Field>  (339) 
OPLS3e

>  <r_lp_Energy>  (339) 
54.1266

>  <b_lp_Chiralities_Consistent>  (339) 
1

>  <s_lp_Variant>  (339) 
112:0-1

>  <s_i_glide_gridfile>  (339) 
pfpi4k_grid

>  <i_i_glide_lignum>  (339) 
32

>  <i_i_glide_rotatable_bonds>  (339) 
0

>  <r_i_docking_score>  (339) 
-3.74532

>  <r_i_glide_ligand_efficiency>  (339) 
-0.220313

>  <r_i_glide_ligand_efficiency_sa>  (339) 
-0.566486

>  <r_i_glide_ligand_efficiency_ln>  (339) 
-0.977069

>  <r_i_glide_gscore>  (339) 
-3.74532

>  <r_i_glide_lipo>  (339) 
0

>  <r_i_glide_hbond>  (339) 
-0.16

>  <r_i_glide_metal>  (339) 
-0

>  <r_i_glide_rewards>  (339) 
-1.83222

>  <r_i_glide_evdw>  (339) 
-14.4043

>  <r_i_glide_ecoul>  (339) 
-5.80298

>  <r_i_glide_erotb>  (339) 
0

>  <r_i_glide_esite>  (339) 
-0.162426

>  <r_i_glide_emodel>  (339) 
-25.786

>  <r_i_glide_energy>  (339) 
-20.2073

>  <r_i_glide_einternal>  (339) 
0

>  <r_i_glide_intrahb_reward>  (339) 
-0

>  <i_i_glide_confnum>  (339) 
2

>  <i_i_glide_posenum>  (339) 
14

>  <r_i_glide_eff_state_penalty>  (339) 
0

>  <ligand_id>  (339) 
112

>  <original_smiles>  (339) 
CN1C2=COc3nc[nH]c(=N)c3C23CCC1C3

>  <smiles>  (339) 
[H]c1nc2c(c(N([H])[H])n1)C13C(=[N+](C([H])([H])[H])C([H])(C([H])([H])C1([H])[H])C3([H])[H])C([H])([H])O2

$$$$
112:0:2
     RDKit          3D

 32 35  0  0  1  0  0  0  0  0999 V2000
    2.2216   -3.0569   -2.8638 C   0  0  0  0  0  0  0  0  0  0  0  0
    3.1031   -2.6914   -1.7398 N   0  0  0  0  0  0  0  0  0  0  0  0
    3.2828   -3.2720   -0.6032 C   0  0  0  0  0  0  0  0  0  0  0  0
    2.7050   -4.5369   -0.0621 C   0  0  0  0  0  0  0  0  0  0  0  0
    2.4130   -4.4567    1.3391 O   0  0  0  0  0  0  0  0  0  0  0  0
    3.2795   -3.7531    2.1585 C   0  0  0  0  0  0  0  0  0  0  0  0
    3.1619   -4.0367    3.4675 N   0  0  0  0  0  0  0  0  0  0  0  0
    3.9511   -3.3626    4.3004 C   0  0  0  0  0  0  0  0  0  0  0  0
    4.8232   -2.4085    3.9758 N   0  0  0  0  0  0  0  0  0  0  0  0
    4.9327   -2.0916    2.6736 C   0  0  0  0  0  0  0  0  0  0  0  0
    5.8156   -1.0557    2.3761 N   0  0  0  0  0  0  0  0  0  0  0  0
    4.1811   -2.7630    1.6841 C   0  0  0  0  0  0  0  0  0  0  0  0
    4.2505   -2.4657    0.1942 C   0  0  1  0  0  0  0  0  0  0  0  0
    5.6276   -2.6172   -0.5117 C   0  0  0  0  0  0  0  0  0  0  0  0
    5.3949   -1.9052   -1.8739 C   0  0  0  0  0  0  0  0  0  0  0  0
    3.9172   -1.4717   -1.7532 C   0  0  2  0  0  0  0  0  0  0  0  0
    3.8402   -1.0655   -0.2775 C   0  0  0  0  0  0  0  0  0  0  0  0
    2.3368   -2.3179   -3.6554 H   0  0  0  0  0  0  0  0  0  0  0  0
    1.1905   -3.0701   -2.5124 H   0  0  0  0  0  0  0  0  0  0  0  0
    2.5159   -4.0330   -3.2447 H   0  0  0  0  0  0  0  0  0  0  0  0
    1.8150   -4.8230   -0.6248 H   0  0  0  0  0  0  0  0  0  0  0  0
    3.8804   -3.6082    5.3488 H   0  0  0  0  0  0  0  0  0  0  0  0
    5.9771   -0.7345    1.4340 H   0  0  0  0  0  0  0  0  0  0  0  0
    6.4202   -2.0985    0.0259 H   0  0  0  0  0  0  0  0  0  0  0  0
    5.9342   -3.6583   -0.6286 H   0  0  0  0  0  0  0  0  0  0  0  0
    6.0471   -1.0453   -1.9785 H   0  0  0  0  0  0  0  0  0  0  0  0
    5.5583   -2.5743   -2.7210 H   0  0  0  0  0  0  0  0  0  0  0  0
    3.5409   -0.7476   -2.4766 H   0  0  0  0  0  0  0  0  0  0  0  0
    2.8343   -0.7782    0.0407 H   0  0  0  0  0  0  0  0  0  0  0  0
    4.5345   -0.2671   -0.0075 H   0  0  0  0  0  0  0  0  0  0  0  0
    6.3452   -0.6033    3.1075 H   0  0  0  0  0  0  0  0  0  0  0  0
    3.4458   -5.3249   -0.1915 H   0  0  0  0  0  0  0  0  0  0  0  0
  1  2  1  0
  1 18  1  0
  1 19  1  0
  1 20  1  0
  2 16  1  0
  2  3  2  0
  3 13  1  0
  3  4  1  0
  4  5  1  0
  4 21  1  0
  4 32  1  0
  5  6  1  0
  6 12  2  0
  6  7  1  0
  7  8  2  0
  8  9  1  0
  8 22  1  0
  9 10  2  0
 10 11  1  0
 10 12  1  0
 11 23  1  0
 11 31  1  0
 12 13  1  0
 13 17  1  0
 13 14  1  6
 14 15  1  0
 14 24  1  0
 14 25  1  0
 15 16  1  0
 15 26  1  0
 15 27  1  0
 16 17  1  0
 16 28  1  6
 17 29  1  0
 17 30  1  0
M  CHG  1   2   1
M  END
>  <i_m_ct_stereo_status>  (340) 
1

>  <s_m_source_file>  (340) 
/var/tmp/pbs.5076255.sched01/tmpvuzdko10/1206lwnzxed.sdf

>  <i_m_source_file_index>  (340) 
32

>  <i_lp_mmshare_version>  (340) 
48012

>  <i_f3d_flags>  (340) 
0

>  <s_epik_input>  (340) 
W0NIMl0xW0NIMl1bQ0BIXShbQ0gyXTIpTihbQ0gzXSlDKFtDQEBdMTIzKT1bQ0hdT2M0YzNjKD1OXFtIXSlcW25IXVtjSF1uNA==

>  <s_epik_cmdline>  (340) 
J2VwaWtfcHl0aG9uJywgJy1waHQnLCAnMi4wJywgJy1waCcsICc3LjAnLCAnLXRuJywgJzgnLCAnLW1hJywgJzIwMCcsICctaW1hZScsICc8aW5maWxlLm1hZT4nLCAnLW9tYWUnLCAnPG91dGZpbGUubWFlPic=

>  <r_lp_tautomer_probability>  (340) 
1

>  <r_epik_Ionization_Penalty>  (340) 
0.152356

>  <r_epik_Ionization_Penalty_Charging>  (340) 
0

>  <r_epik_Ionization_Penalty_Neutral>  (340) 
0.152356

>  <r_epik_State_Penalty>  (340) 
0.0302808

>  <r_epik_Charging_Adjusted_Penalty>  (340) 
0.0302808

>  <i_epik_Tot_Q>  (340) 
1

>  <i_epik_Tot_abs_Q>  (340) 
1

>  <s_epik_Chemistry_Notes>  (340) 
This compound has an imine and may undergo hydrolysis.

>  <s_lp_Force_Field>  (340) 
OPLS3e

>  <r_lp_Energy>  (340) 
54.1266

>  <b_lp_Chiralities_Consistent>  (340) 
1

>  <s_lp_Variant>  (340) 
112:0-1

>  <s_i_glide_gridfile>  (340) 
pfpi4k_grid

>  <i_i_glide_lignum>  (340) 
32

>  <i_i_glide_rotatable_bonds>  (340) 
0

>  <r_i_docking_score>  (340) 
-3.52547

>  <r_i_glide_ligand_efficiency>  (340) 
-0.207381

>  <r_i_glide_ligand_efficiency_sa>  (340) 
-0.533234

>  <r_i_glide_ligand_efficiency_ln>  (340) 
-0.919717

>  <r_i_glide_gscore>  (340) 
-3.52547

>  <r_i_glide_lipo>  (340) 
-0.21513

>  <r_i_glide_hbond>  (340) 
0

>  <r_i_glide_metal>  (340) 
-0

>  <r_i_glide_rewards>  (340) 
-1.89882

>  <r_i_glide_evdw>  (340) 
-17.7024

>  <r_i_glide_ecoul>  (340) 
-3.28923

>  <r_i_glide_erotb>  (340) 
0

>  <r_i_glide_esite>  (340) 
-0.0330215

>  <r_i_glide_emodel>  (340) 
-26.2685

>  <r_i_glide_energy>  (340) 
-20.9916

>  <r_i_glide_einternal>  (340) 
0

>  <r_i_glide_intrahb_reward>  (340) 
-0

>  <i_i_glide_confnum>  (340) 
1

>  <i_i_glide_posenum>  (340) 
8

>  <r_i_glide_eff_state_penalty>  (340) 
0

>  <ligand_id>  (340) 
112

>  <original_smiles>  (340) 
CN1C2=COc3nc[nH]c(=N)c3C23CCC1C3

>  <smiles>  (340) 
[H]c1nc2c(c(N([H])[H])n1)C13C(=[N+](C([H])([H])[H])C([H])(C([H])([H])C1([H])[H])C3([H])[H])C([H])([H])O2

$$$$
112:1:0
     RDKit          3D

 31 34  0  0  1  0  0  0  0  0999 V2000
    3.4318    0.1654    3.8316 C   0  0  0  0  0  0  0  0  0  0  0  0
    2.7523    1.2031    4.5859 N   0  0  0  0  0  0  0  0  0  0  0  0
    1.3988    1.4445    4.4364 C   0  0  0  0  0  0  0  0  0  0  0  0
    0.4048    0.5765    4.1902 C   0  0  0  0  0  0  0  0  0  0  0  0
   -0.8899    0.9929    3.9848 O   0  0  0  0  0  0  0  0  0  0  0  0
   -1.1045    2.3293    3.7030 C   0  0  0  0  0  0  0  0  0  0  0  0
   -2.3235    2.6089    3.2261 N   0  0  0  0  0  0  0  0  0  0  0  0
   -2.5797    3.8875    2.9678 C   0  0  0  0  0  0  0  0  0  0  0  0
   -1.7926    4.9356    3.2017 N   0  0  0  0  0  0  0  0  0  0  0  0
   -0.5476    4.6726    3.6643 C   0  0  0  0  0  0  0  0  0  0  0  0
    0.2550    5.7900    3.9035 N   0  0  0  0  0  0  0  0  0  0  0  0
   -0.1432    3.3407    3.9369 C   0  0  0  0  0  0  0  0  0  0  0  0
    1.2124    2.9430    4.4837 C   0  0  1  0  0  0  0  0  0  0  0  0
    1.5331    3.4347    5.9112 C   0  0  0  0  0  0  0  0  0  0  0  0
    3.0459    3.1485    6.0245 C   0  0  0  0  0  0  0  0  0  0  0  0
    3.3619    2.5243    4.6534 C   0  0  2  0  0  0  0  0  0  0  0  0
    2.4751    3.3579    3.7277 C   0  0  0  0  0  0  0  0  0  0  0  0
    2.9349   -0.7959    3.9605 H   0  0  0  0  0  0  0  0  0  0  0  0
    4.4735    0.0610    4.1312 H   0  0  0  0  0  0  0  0  0  0  0  0
    3.4000    0.4160    2.7716 H   0  0  0  0  0  0  0  0  0  0  0  0
    0.5322   -0.4947    4.1215 H   0  0  0  0  0  0  0  0  0  0  0  0
   -3.5714    4.1139    2.6159 H   0  0  0  0  0  0  0  0  0  0  0  0
    1.2375    5.6374    4.0781 H   0  0  0  0  0  0  0  0  0  0  0  0
    1.3522    4.5036    6.0257 H   0  0  0  0  0  0  0  0  0  0  0  0
    0.9536    2.9113    6.6708 H   0  0  0  0  0  0  0  0  0  0  0  0
    3.6027    4.0751    6.1713 H   0  0  0  0  0  0  0  0  0  0  0  0
    3.2814    2.4817    6.8528 H   0  0  0  0  0  0  0  0  0  0  0  0
    4.4177    2.5182    4.4095 H   0  0  0  0  0  0  0  0  0  0  0  0
    2.4983    2.9939    2.6993 H   0  0  0  0  0  0  0  0  0  0  0  0
    2.7050    4.4258    3.7406 H   0  0  0  0  0  0  0  0  0  0  0  0
    0.0683    6.6847    3.4385 H   0  0  0  0  0  0  0  0  0  0  0  0
  1  2  1  0
  1 18  1  0
  1 19  1  0
  1 20  1  0
  2 16  1  0
  2  3  1  0
  3 13  1  0
  3  4  2  0
  4  5  1  0
  4 21  1  0
  5  6  1  0
  6 12  2  0
  6  7  1  0
  7  8  2  0
  8  9  1  0
  8 22  1  0
  9 10  2  0
 10 11  1  0
 10 12  1  0
 11 23  1  0
 11 31  1  0
 12 13  1  0
 13 17  1  0
 13 14  1  1
 14 15  1  0
 14 24  1  0
 14 25  1  0
 15 16  1  0
 15 26  1  0
 15 27  1  0
 16 17  1  0
 16 28  1  6
 17 29  1  0
 17 30  1  0
M  END
>  <i_m_ct_stereo_status>  (341) 
1

>  <s_m_source_file>  (341) 
/var/tmp/pbs.5076255.sched01/tmpvuzdko10/1206lwnzxed.sdf

>  <i_m_source_file_index>  (341) 
33

>  <i_lp_mmshare_version>  (341) 
48012

>  <i_f3d_flags>  (341) 
0

>  <s_epik_input>  (341) 
W0NIMl0xW0NIMl1bQ0BIXShbQ0gyXTIpTihbQ0gzXSlDKFtDQEBdMTIzKT1bQ0hdT2M0YzNjKD1OXFtIXSlcW25IXVtjSF1uNA==

>  <s_epik_cmdline>  (341) 
J2VwaWtfcHl0aG9uJywgJy1waHQnLCAnMi4wJywgJy1waCcsICc3LjAnLCAnLXRuJywgJzgnLCAnLW1hJywgJzIwMCcsICctaW1hZScsICc8aW5maWxlLm1hZT4nLCAnLW9tYWUnLCAnPG91dGZpbGUubWFlPic=

>  <r_epik_Ionization_Penalty>  (341) 
0.88468

>  <r_epik_Ionization_Penalty_Charging>  (341) 
0.882073

>  <r_epik_Ionization_Penalty_Neutral>  (341) 
0.00260705

>  <r_epik_State_Penalty>  (341) 
1.78644

>  <r_epik_Charging_Adjusted_Penalty>  (341) 
2.66852

>  <i_epik_Tot_Q>  (341) 
0

>  <i_epik_Tot_abs_Q>  (341) 
0

>  <s_epik_Chemistry_Notes>  (341) 
This compound has an imine and may undergo hydrolysis.

>  <s_lp_Force_Field>  (341) 
OPLS3e

>  <r_lp_Energy>  (341) 
53.1571

>  <b_lp_Chiralities_Consistent>  (341) 
1

>  <s_lp_Variant>  (341) 
112:0-2

>  <s_i_glide_gridfile>  (341) 
pfpi4k_grid

>  <i_i_glide_lignum>  (341) 
33

>  <i_i_glide_rotatable_bonds>  (341) 
0

>  <r_i_docking_score>  (341) 
-3.66751

>  <r_i_glide_ligand_efficiency>  (341) 
-0.215736

>  <r_i_glide_ligand_efficiency_sa>  (341) 
-0.554718

>  <r_i_glide_ligand_efficiency_ln>  (341) 
-0.956772

>  <r_i_glide_gscore>  (341) 
-3.66751

>  <r_i_glide_lipo>  (341) 
0

>  <r_i_glide_hbond>  (341) 
-0.259099

>  <r_i_glide_metal>  (341) 
-0

>  <r_i_glide_rewards>  (341) 
-1.8391

>  <r_i_glide_evdw>  (341) 
-12.3494

>  <r_i_glide_ecoul>  (341) 
-5.21418

>  <r_i_glide_erotb>  (341) 
0

>  <r_i_glide_esite>  (341) 
-0.16972

>  <r_i_glide_emodel>  (341) 
-21.4998

>  <r_i_glide_energy>  (341) 
-17.5635

>  <r_i_glide_einternal>  (341) 
0

>  <r_i_glide_intrahb_reward>  (341) 
-0

>  <i_i_glide_confnum>  (341) 
2

>  <i_i_glide_posenum>  (341) 
1

>  <r_i_glide_eff_state_penalty>  (341) 
0

>  <ligand_id>  (341) 
112

>  <original_smiles>  (341) 
CN1C2=COc3nc[nH]c(=N)c3C23CCC1C3

>  <smiles>  (341) 
[H]C1=C2N(C([H])([H])[H])C3([H])C([H])([H])C([H])([H])C2(c2c(nc([H])nc2N([H])[H])O1)C3([H])[H]

$$$$
112:1:1
     RDKit          3D

 31 34  0  0  1  0  0  0  0  0999 V2000
    2.6714   -2.5615   -3.6039 C   0  0  0  0  0  0  0  0  0  0  0  0
    3.7471   -2.9160   -2.6926 N   0  0  0  0  0  0  0  0  0  0  0  0
    3.5105   -3.2149   -1.3633 C   0  0  0  0  0  0  0  0  0  0  0  0
    2.4568   -3.8356   -0.8142 C   0  0  0  0  0  0  0  0  0  0  0  0
    2.3286   -3.9892    0.5460 O   0  0  0  0  0  0  0  0  0  0  0  0
    3.1149   -3.2087    1.3711 C   0  0  0  0  0  0  0  0  0  0  0  0
    2.7366   -3.1801    2.6625 N   0  0  0  0  0  0  0  0  0  0  0  0
    3.4975   -2.4666    3.4891 C   0  0  0  0  0  0  0  0  0  0  0  0
    4.5936   -1.7725    3.1760 N   0  0  0  0  0  0  0  0  0  0  0  0
    4.9710   -1.7821    1.8860 C   0  0  0  0  0  0  0  0  0  0  0  0
    6.1191   -1.0561    1.5813 N   0  0  0  0  0  0  0  0  0  0  0  0
    4.2562   -2.5063    0.9097 C   0  0  0  0  0  0  0  0  0  0  0  0
    4.6282   -2.5963   -0.5624 C   0  0  1  0  0  0  0  0  0  0  0  0
    5.9347   -3.3534   -0.8863 C   0  0  0  0  0  0  0  0  0  0  0  0
    6.1653   -2.9821   -2.3698 C   0  0  0  0  0  0  0  0  0  0  0  0
    4.9433   -2.0848   -2.6743 C   0  0  2  0  0  0  0  0  0  0  0  0
    4.8029   -1.3075   -1.3635 C   0  0  0  0  0  0  0  0  0  0  0  0
    1.8905   -3.3217   -3.6011 H   0  0  0  0  0  0  0  0  0  0  0  0
    3.0319   -2.4380   -4.6238 H   0  0  0  0  0  0  0  0  0  0  0  0
    2.2256   -1.6215   -3.2798 H   0  0  0  0  0  0  0  0  0  0  0  0
    1.6324   -4.2497   -1.3745 H   0  0  0  0  0  0  0  0  0  0  0  0
    3.2066   -2.4556    4.5283 H   0  0  0  0  0  0  0  0  0  0  0  0
    6.4598   -1.0054    0.6333 H   0  0  0  0  0  0  0  0  0  0  0  0
    6.7703   -3.0042   -0.2778 H   0  0  0  0  0  0  0  0  0  0  0  0
    5.8338   -4.4302   -0.7330 H   0  0  0  0  0  0  0  0  0  0  0  0
    7.1093   -2.4480   -2.4752 H   0  0  0  0  0  0  0  0  0  0  0  0
    6.2041   -3.8557   -3.0218 H   0  0  0  0  0  0  0  0  0  0  0  0
    5.0150   -1.4707   -3.5686 H   0  0  0  0  0  0  0  0  0  0  0  0
    3.9151   -0.6704   -1.3582 H   0  0  0  0  0  0  0  0  0  0  0  0
    5.6805   -0.7147   -1.1066 H   0  0  0  0  0  0  0  0  0  0  0  0
    6.6244   -0.5360    2.2862 H   0  0  0  0  0  0  0  0  0  0  0  0
  1  2  1  0
  1 18  1  0
  1 19  1  0
  1 20  1  0
  2 16  1  0
  2  3  1  0
  3 13  1  0
  3  4  2  0
  4  5  1  0
  4 21  1  0
  5  6  1  0
  6 12  2  0
  6  7  1  0
  7  8  2  0
  8  9  1  0
  8 22  1  0
  9 10  2  0
 10 11  1  0
 10 12  1  0
 11 23  1  0
 11 31  1  0
 12 13  1  0
 13 17  1  0
 13 14  1  1
 14 15  1  0
 14 24  1  0
 14 25  1  0
 15 16  1  0
 15 26  1  0
 15 27  1  0
 16 17  1  0
 16 28  1  6
 17 29  1  0
 17 30  1  0
M  END
>  <i_m_ct_stereo_status>  (342) 
1

>  <s_m_source_file>  (342) 
/var/tmp/pbs.5076255.sched01/tmpvuzdko10/1206lwnzxed.sdf

>  <i_m_source_file_index>  (342) 
33

>  <i_lp_mmshare_version>  (342) 
48012

>  <i_f3d_flags>  (342) 
0

>  <s_epik_input>  (342) 
W0NIMl0xW0NIMl1bQ0BIXShbQ0gyXTIpTihbQ0gzXSlDKFtDQEBdMTIzKT1bQ0hdT2M0YzNjKD1OXFtIXSlcW25IXVtjSF1uNA==

>  <s_epik_cmdline>  (342) 
J2VwaWtfcHl0aG9uJywgJy1waHQnLCAnMi4wJywgJy1waCcsICc3LjAnLCAnLXRuJywgJzgnLCAnLW1hJywgJzIwMCcsICctaW1hZScsICc8aW5maWxlLm1hZT4nLCAnLW9tYWUnLCAnPG91dGZpbGUubWFlPic=

>  <r_epik_Ionization_Penalty>  (342) 
0.88468

>  <r_epik_Ionization_Penalty_Charging>  (342) 
0.882073

>  <r_epik_Ionization_Penalty_Neutral>  (342) 
0.00260705

>  <r_epik_State_Penalty>  (342) 
1.78644

>  <r_epik_Charging_Adjusted_Penalty>  (342) 
2.66852

>  <i_epik_Tot_Q>  (342) 
0

>  <i_epik_Tot_abs_Q>  (342) 
0

>  <s_epik_Chemistry_Notes>  (342) 
This compound has an imine and may undergo hydrolysis.

>  <s_lp_Force_Field>  (342) 
OPLS3e

>  <r_lp_Energy>  (342) 
53.1571

>  <b_lp_Chiralities_Consistent>  (342) 
1

>  <s_lp_Variant>  (342) 
112:0-2

>  <s_i_glide_gridfile>  (342) 
pfpi4k_grid

>  <i_i_glide_lignum>  (342) 
33

>  <i_i_glide_rotatable_bonds>  (342) 
0

>  <r_i_docking_score>  (342) 
-3.44692

>  <r_i_glide_ligand_efficiency>  (342) 
-0.20276

>  <r_i_glide_ligand_efficiency_sa>  (342) 
-0.521352

>  <r_i_glide_ligand_efficiency_ln>  (342) 
-0.899224

>  <r_i_glide_gscore>  (342) 
-3.44692

>  <r_i_glide_lipo>  (342) 
-0.677987

>  <r_i_glide_hbond>  (342) 
-0.0476623

>  <r_i_glide_metal>  (342) 
-0

>  <r_i_glide_rewards>  (342) 
-1.8391

>  <r_i_glide_evdw>  (342) 
-18.9286

>  <r_i_glide_ecoul>  (342) 
0.519698

>  <r_i_glide_erotb>  (342) 
0

>  <r_i_glide_esite>  (342) 
-0.0136929

>  <r_i_glide_emodel>  (342) 
-22.1977

>  <r_i_glide_energy>  (342) 
-18.4089

>  <r_i_glide_einternal>  (342) 
0

>  <r_i_glide_intrahb_reward>  (342) 
-0

>  <i_i_glide_confnum>  (342) 
1

>  <i_i_glide_posenum>  (342) 
2

>  <r_i_glide_eff_state_penalty>  (342) 
0

>  <ligand_id>  (342) 
112

>  <original_smiles>  (342) 
CN1C2=COc3nc[nH]c(=N)c3C23CCC1C3

>  <smiles>  (342) 
[H]C1=C2N(C([H])([H])[H])C3([H])C([H])([H])C([H])([H])C2(c2c(nc([H])nc2N([H])[H])O1)C3([H])[H]

$$$$
112:1:2
     RDKit          3D

 31 34  0  0  1  0  0  0  0  0999 V2000
    3.1167   -0.8937   -3.1651 C   0  0  0  0  0  0  0  0  0  0  0  0
    3.9554   -1.9465   -2.6225 N   0  0  0  0  0  0  0  0  0  0  0  0
    3.4437   -2.9066   -1.7663 C   0  0  0  0  0  0  0  0  0  0  0  0
    2.2166   -3.4505   -1.7300 C   0  0  0  0  0  0  0  0  0  0  0  0
    1.8286   -4.3277   -0.7467 O   0  0  0  0  0  0  0  0  0  0  0  0
    2.6171   -4.4376    0.3831 C   0  0  0  0  0  0  0  0  0  0  0  0
    2.0479   -5.1063    1.4090 N   0  0  0  0  0  0  0  0  0  0  0  0
    2.7660   -5.2074    2.5256 C   0  0  0  0  0  0  0  0  0  0  0  0
    3.9822   -4.7185    2.7445 N   0  0  0  0  0  0  0  0  0  0  0  0
    4.5634   -4.0543    1.7289 C   0  0  0  0  0  0  0  0  0  0  0  0
    5.8337   -3.5568    1.9784 N   0  0  0  0  0  0  0  0  0  0  0  0
    3.9068   -3.8775    0.4900 C   0  0  0  0  0  0  0  0  0  0  0  0
    4.4978   -3.1565   -0.7120 C   0  0  1  0  0  0  0  0  0  0  0  0
    5.6992   -3.8478   -1.3848 C   0  0  0  0  0  0  0  0  0  0  0  0
    6.2345   -2.7453   -2.3206 C   0  0  0  0  0  0  0  0  0  0  0  0
    5.2474   -1.5914   -2.0512 C   0  0  2  0  0  0  0  0  0  0  0  0
    5.0162   -1.7317   -0.5471 C   0  0  0  0  0  0  0  0  0  0  0  0
    2.2531   -1.3205   -3.6703 H   0  0  0  0  0  0  0  0  0  0  0  0
    3.6575   -0.2528   -3.8625 H   0  0  0  0  0  0  0  0  0  0  0  0
    2.7578   -0.2712   -2.3425 H   0  0  0  0  0  0  0  0  0  0  0  0
    1.4409   -3.2541   -2.4535 H   0  0  0  0  0  0  0  0  0  0  0  0
    2.3044   -5.7279    3.3471 H   0  0  0  0  0  0  0  0  0  0  0  0
    6.3514   -3.0656    1.2652 H   0  0  0  0  0  0  0  0  0  0  0  0
    6.4663   -4.1316   -0.6663 H   0  0  0  0  0  0  0  0  0  0  0  0
    5.3873   -4.7369   -1.9297 H   0  0  0  0  0  0  0  0  0  0  0  0
    7.2581   -2.4782   -2.0569 H   0  0  0  0  0  0  0  0  0  0  0  0
    6.2285   -3.0612   -3.3648 H   0  0  0  0  0  0  0  0  0  0  0  0
    5.5941   -0.6076   -2.3464 H   0  0  0  0  0  0  0  0  0  0  0  0
    4.2587   -1.0334   -0.1853 H   0  0  0  0  0  0  0  0  0  0  0  0
    5.9289   -1.6257    0.0449 H   0  0  0  0  0  0  0  0  0  0  0  0
    6.2874   -3.7238    2.8653 H   0  0  0  0  0  0  0  0  0  0  0  0
  1  2  1  0
  1 18  1  0
  1 19  1  0
  1 20  1  0
  2 16  1  0
  2  3  1  0
  3 13  1  0
  3  4  2  0
  4  5  1  0
  4 21  1  0
  5  6  1  0
  6 12  2  0
  6  7  1  0
  7  8  2  0
  8  9  1  0
  8 22  1  0
  9 10  2  0
 10 11  1  0
 10 12  1  0
 11 23  1  0
 11 31  1  0
 12 13  1  0
 13 17  1  0
 13 14  1  6
 14 15  1  0
 14 24  1  0
 14 25  1  0
 15 16  1  0
 15 26  1  0
 15 27  1  0
 16 17  1  0
 16 28  1  1
 17 29  1  0
 17 30  1  0
M  END
>  <i_m_ct_stereo_status>  (343) 
1

>  <s_m_source_file>  (343) 
/var/tmp/pbs.5076255.sched01/tmpvuzdko10/1206lwnzxed.sdf

>  <i_m_source_file_index>  (343) 
33

>  <i_lp_mmshare_version>  (343) 
48012

>  <i_f3d_flags>  (343) 
0

>  <s_epik_input>  (343) 
W0NIMl0xW0NIMl1bQ0BIXShbQ0gyXTIpTihbQ0gzXSlDKFtDQEBdMTIzKT1bQ0hdT2M0YzNjKD1OXFtIXSlcW25IXVtjSF1uNA==

>  <s_epik_cmdline>  (343) 
J2VwaWtfcHl0aG9uJywgJy1waHQnLCAnMi4wJywgJy1waCcsICc3LjAnLCAnLXRuJywgJzgnLCAnLW1hJywgJzIwMCcsICctaW1hZScsICc8aW5maWxlLm1hZT4nLCAnLW9tYWUnLCAnPG91dGZpbGUubWFlPic=

>  <r_epik_Ionization_Penalty>  (343) 
0.88468

>  <r_epik_Ionization_Penalty_Charging>  (343) 
0.882073

>  <r_epik_Ionization_Penalty_Neutral>  (343) 
0.00260705

>  <r_epik_State_Penalty>  (343) 
1.78644

>  <r_epik_Charging_Adjusted_Penalty>  (343) 
2.66852

>  <i_epik_Tot_Q>  (343) 
0

>  <i_epik_Tot_abs_Q>  (343) 
0

>  <s_epik_Chemistry_Notes>  (343) 
This compound has an imine and may undergo hydrolysis.

>  <s_lp_Force_Field>  (343) 
OPLS3e

>  <r_lp_Energy>  (343) 
53.1571

>  <b_lp_Chiralities_Consistent>  (343) 
1

>  <s_lp_Variant>  (343) 
112:0-2

>  <s_i_glide_gridfile>  (343) 
pfpi4k_grid

>  <i_i_glide_lignum>  (343) 
33

>  <i_i_glide_rotatable_bonds>  (343) 
0

>  <r_i_docking_score>  (343) 
-3.26746

>  <r_i_glide_ligand_efficiency>  (343) 
-0.192204

>  <r_i_glide_ligand_efficiency_sa>  (343) 
-0.49421

>  <r_i_glide_ligand_efficiency_ln>  (343) 
-0.852408

>  <r_i_glide_gscore>  (343) 
-3.26746

>  <r_i_glide_lipo>  (343) 
-0.309676

>  <r_i_glide_hbond>  (343) 
-0.0283866

>  <r_i_glide_metal>  (343) 
-0

>  <r_i_glide_rewards>  (343) 
-1.8391

>  <r_i_glide_evdw>  (343) 
-16.8956

>  <r_i_glide_ecoul>  (343) 
-1.57031

>  <r_i_glide_erotb>  (343) 
0

>  <r_i_glide_esite>  (343) 
-0.00997677

>  <r_i_glide_emodel>  (343) 
-22.0539

>  <r_i_glide_energy>  (343) 
-18.4659

>  <r_i_glide_einternal>  (343) 
0

>  <r_i_glide_intrahb_reward>  (343) 
-0

>  <i_i_glide_confnum>  (343) 
2

>  <i_i_glide_posenum>  (343) 
34

>  <r_i_glide_eff_state_penalty>  (343) 
0

>  <ligand_id>  (343) 
112

>  <original_smiles>  (343) 
CN1C2=COc3nc[nH]c(=N)c3C23CCC1C3

>  <smiles>  (343) 
[H]C1=C2N(C([H])([H])[H])C3([H])C([H])([H])C([H])([H])C2(c2c(nc([H])nc2N([H])[H])O1)C3([H])[H]

$$$$
113:0:0
     RDKit          3D

 45 49  0  0  1  0  0  0  0  0999 V2000
   -1.0642   -0.7053    4.7288 C   0  0  0  0  0  0  0  0  0  0  0  0
    0.0460    0.0431    4.1271 N   0  0  0  0  0  0  0  0  0  0  0  0
    1.2427   -0.6600    3.8343 C   0  0  0  0  0  0  0  0  0  0  0  0
    2.2691   -0.0739    3.2007 C   0  0  0  0  0  0  0  0  0  0  0  0
    2.1906    1.3196    2.8422 C   0  0  0  0  0  0  0  0  0  0  0  0
    1.0502    1.9963    3.1073 C   0  0  0  0  0  0  0  0  0  0  0  0
   -0.0932    1.3478    3.7597 C   0  0  0  0  0  0  0  0  0  0  0  0
   -1.1442    1.9591    3.9846 O   0  0  0  0  0  0  0  0  0  0  0  0
    3.2561   -1.1400    2.7687 C   0  0  2  0  0  0  0  0  0  0  0  0
    2.8129   -1.6704    1.3928 C   0  0  2  0  0  0  0  0  0  0  0  0
    2.7734   -3.2044    1.1688 C   0  0  0  0  0  0  0  0  0  0  0  0
    3.9541   -4.0391    1.6808 C   0  0  0  0  0  0  0  0  0  0  0  0
    4.1321   -3.9728    3.1865 C   0  0  0  0  0  0  0  0  0  0  0  0
    4.2367   -2.6368    3.7980 N   0  0  2  0  0  0  0  0  0  0  0  0
    3.0411   -1.8714    4.0828 C   0  0  2  0  0  0  0  0  0  0  0  0
    1.5432   -2.1351    4.1943 C   0  0  0  0  0  0  0  0  0  0  0  0
    4.7154   -1.3731    3.1286 C   0  0  1  0  0  0  0  0  0  0  0  0
    5.7378   -1.4520    1.9737 C   0  0  0  0  0  0  0  0  0  0  0  0
    5.1990   -1.0945    0.5305 C   0  0  1  0  0  0  0  0  0  0  0  0
    5.8401   -1.9942   -0.5481 C   0  0  0  0  0  0  0  0  0  0  0  0
    7.0673   -1.8553   -0.7208 O   0  0  0  0  0  0  0  0  0  0  0  0
    5.1038   -2.7846   -1.1877 O   0  0  0  0  0  0  0  0  0  0  0  0
    3.6588   -0.9404    0.3621 C   0  0  0  0  0  0  0  0  0  0  0  0
   -1.3343   -1.5471    4.0957 H   0  0  0  0  0  0  0  0  0  0  0  0
   -1.9707   -0.1166    4.8561 H   0  0  0  0  0  0  0  0  0  0  0  0
   -0.7752   -1.0688    5.7115 H   0  0  0  0  0  0  0  0  0  0  0  0
    3.0409    1.8252    2.4224 H   0  0  0  0  0  0  0  0  0  0  0  0
    0.9924    3.0408    2.8549 H   0  0  0  0  0  0  0  0  0  0  0  0
    1.7836   -1.3630    1.2212 H   0  0  0  0  0  0  0  0  0  0  0  0
    1.8681   -3.6335    1.5982 H   0  0  0  0  0  0  0  0  0  0  0  0
    2.6925   -3.3897    0.0979 H   0  0  0  0  0  0  0  0  0  0  0  0
    3.7746   -5.0897    1.4110 H   0  0  0  0  0  0  0  0  0  0  0  0
    4.8845   -3.8098    1.1635 H   0  0  0  0  0  0  0  0  0  0  0  0
    3.3450   -4.5488    3.6758 H   0  0  0  0  0  0  0  0  0  0  0  0
    5.0443   -4.5235    3.4117 H   0  0  0  0  0  0  0  0  0  0  0  0
    3.3510   -1.3038    4.9715 H   0  0  0  0  0  0  0  0  0  0  0  0
    1.1741   -2.4363    5.1801 H   0  0  0  0  0  0  0  0  0  0  0  0
    1.1412   -2.7870    3.4189 H   0  0  0  0  0  0  0  0  0  0  0  0
    5.0527   -0.6745    3.9021 H   0  0  0  0  0  0  0  0  0  0  0  0
    6.5090   -0.7004    2.1647 H   0  0  0  0  0  0  0  0  0  0  0  0
    6.3044   -2.3862    1.9689 H   0  0  0  0  0  0  0  0  0  0  0  0
    5.5747   -0.0943    0.2931 H   0  0  0  0  0  0  0  0  0  0  0  0
    3.3199   -1.2029   -0.6380 H   0  0  0  0  0  0  0  0  0  0  0  0
    3.4156    0.1167    0.4750 H   0  0  0  0  0  0  0  0  0  0  0  0
    4.7367   -2.7664    4.6399 H   0  0  0  0  0  0  0  0  0  0  0  0
  1  2  1  0
  1 24  1  0
  1 25  1  0
  1 26  1  0
  2  7  1  0
  2  3  1  0
  3 16  1  0
  3  4  2  0
  4  5  1  0
  9  4  1  1
  5  6  2  0
  5 27  1  0
  6  7  1  0
  6 28  1  0
  7  8  2  0
  9 15  1  0
  9 17  1  0
  9 10  1  0
 10 23  1  0
 10 11  1  0
 10 29  1  6
 11 12  1  0
 11 30  1  0
 11 31  1  0
 12 13  1  0
 12 32  1  0
 12 33  1  0
 13 14  1  0
 13 34  1  0
 13 35  1  0
 14 15  1  0
 14 17  1  0
 14 45  1  1
 15 16  1  0
 15 36  1  1
 16 37  1  0
 16 38  1  0
 17 18  1  0
 17 39  1  1
 18 19  1  0
 18 40  1  0
 18 41  1  0
 19 20  1  0
 19 23  1  0
 19 42  1  6
 20 21  2  0
 20 22  1  0
 23 43  1  0
 23 44  1  0
M  CHG  2  14   1  22  -1
M  END
>  <i_m_ct_stereo_status>  (344) 
1

>  <s_m_source_file>  (344) 
/var/tmp/pbs.5076255.sched01/tmpvuzdko10/1206lwnzxed.sdf

>  <i_m_source_file_index>  (344) 
34

>  <i_lp_mmshare_version>  (344) 
48012

>  <i_f3d_flags>  (344) 
0

>  <s_epik_input>  (344) 
W2NIXTFbY0hdYyg9TyluKFtDSDNdKWMoYzFbQ0BdMjM0KVtDSDJdW0NASF0zTjVbQ0BIXTRbQ0gyXVtDQEBIXShDKD1PKVtPSF0pW0NIMl1bQ0BASF0yW0NIMl1bQ0gyXVtDSDJdNQ==

>  <s_epik_cmdline>  (344) 
J2VwaWtfcHl0aG9uJywgJy1waHQnLCAnMi4wJywgJy1waCcsICc3LjAnLCAnLXRuJywgJzgnLCAnLW1hJywgJzIwMCcsICctaW1hZScsICc8aW5maWxlLm1hZT4nLCAnLW9tYWUnLCAnPG91dGZpbGUubWFlPic=

>  <r_lp_tautomer_probability>  (344) 
1

>  <r_epik_Ionization_Penalty>  (344) 
0.168238

>  <r_epik_Ionization_Penalty_Charging>  (344) 
0.168238

>  <r_epik_Ionization_Penalty_Neutral>  (344) 
1.49976e-13

>  <r_epik_State_Penalty>  (344) 
0.153774

>  <r_epik_Charging_Adjusted_Penalty>  (344) 
0.322012

>  <i_epik_Tot_Q>  (344) 
0

>  <i_epik_Tot_abs_Q>  (344) 
2

>  <s_lp_Force_Field>  (344) 
OPLS3e

>  <r_lp_Energy>  (344) 
104.27

>  <b_lp_Chiralities_Consistent>  (344) 
1

>  <s_lp_Variant>  (344) 
113:0-1

>  <s_i_glide_gridfile>  (344) 
pfpi4k_grid

>  <i_i_glide_lignum>  (344) 
34

>  <i_i_glide_rotatable_bonds>  (344) 
1

>  <r_i_docking_score>  (344) 
-3.36386

>  <r_i_glide_ligand_efficiency>  (344) 
-0.146255

>  <r_i_glide_ligand_efficiency_sa>  (344) 
-0.415929

>  <r_i_glide_ligand_efficiency_ln>  (344) 
-0.813411

>  <r_i_glide_gscore>  (344) 
-3.36386

>  <r_i_glide_lipo>  (344) 
-0.324929

>  <r_i_glide_hbond>  (344) 
-0.2

>  <r_i_glide_metal>  (344) 
-0

>  <r_i_glide_rewards>  (344) 
-1.2656

>  <r_i_glide_evdw>  (344) 
-18.9508

>  <r_i_glide_ecoul>  (344) 
-3.86447

>  <r_i_glide_erotb>  (344) 
0

>  <r_i_glide_esite>  (344) 
-0.0461213

>  <r_i_glide_emodel>  (344) 
-27.8749

>  <r_i_glide_energy>  (344) 
-22.8152

>  <r_i_glide_einternal>  (344) 
0.0778207

>  <r_i_glide_intrahb_reward>  (344) 
-0

>  <i_i_glide_confnum>  (344) 
2

>  <i_i_glide_posenum>  (344) 
7

>  <r_i_glide_eff_state_penalty>  (344) 
0

>  <ligand_id>  (344) 
113

>  <original_smiles>  (344) 
Cn1c2c(ccc1=O)C13C4CCCN(C1C2)C3CC(C(=O)O)C4

>  <smiles>  (344) 
[H]c1c2c(n(C([H])([H])[H])c(=O)c1[H])C([H])([H])C1([H])C23C2([H])C([H])([H])C([H])([H])C([H])([H])[N+]1([H])C3([H])C([H])([H])C([H])(C(=O)[O-])C2([H])[H]

$$$$
113:0:1
     RDKit          3D

 45 49  0  0  1  0  0  0  0  0999 V2000
    0.9968    4.7952    4.3880 C   0  0  0  0  0  0  0  0  0  0  0  0
    0.3313    3.6329    3.7963 N   0  0  0  0  0  0  0  0  0  0  0  0
    1.1245    2.5019    3.4703 C   0  0  0  0  0  0  0  0  0  0  0  0
    0.5845    1.3631    3.0243 C   0  0  0  0  0  0  0  0  0  0  0  0
   -0.8369    1.2841    2.8099 C   0  0  0  0  0  0  0  0  0  0  0  0
   -1.6032    2.3473    3.1292 C   0  0  0  0  0  0  0  0  0  0  0  0
   -1.0225    3.5828    3.6677 C   0  0  0  0  0  0  0  0  0  0  0  0
   -1.7339    4.5428    3.9960 O   0  0  0  0  0  0  0  0  0  0  0  0
    1.6252    0.2654    3.0633 C   0  0  2  0  0  0  0  0  0  0  0  0
    1.6005   -0.3733    4.4657 C   0  0  2  0  0  0  0  0  0  0  0  0
    2.9546   -0.6030    5.1909 C   0  0  0  0  0  0  0  0  0  0  0  0
    4.1221   -1.1818    4.3827 C   0  0  0  0  0  0  0  0  0  0  0  0
    4.5649   -0.2944    3.2337 C   0  0  0  0  0  0  0  0  0  0  0  0
    3.5339    0.1388    2.2727 N   0  0  2  0  0  0  0  0  0  0  0  0
    2.6744    1.2586    2.5858 C   0  0  2  0  0  0  0  0  0  0  0  0
    2.6676    2.4193    3.5729 C   0  0  0  0  0  0  0  0  0  0  0  0
    2.2468   -0.5741    1.9588 C   0  0  1  0  0  0  0  0  0  0  0  0
    2.1669   -2.1089    2.0971 C   0  0  0  0  0  0  0  0  0  0  0  0
    1.2776   -2.6528    3.2881 C   0  0  1  0  0  0  0  0  0  0  0  0
    1.8731   -3.9258    3.9001 C   0  0  0  0  0  0  0  0  0  0  0  0
    1.8327   -4.9491    3.1817 O   0  0  0  0  0  0  0  0  0  0  0  0
    2.3477   -3.8618    5.0513 O   0  0  0  0  0  0  0  0  0  0  0  0
    0.7724   -1.6411    4.3483 C   0  0  0  0  0  0  0  0  0  0  0  0
    1.5255    4.5082    5.2958 H   0  0  0  0  0  0  0  0  0  0  0  0
    0.3127    5.5919    4.6703 H   0  0  0  0  0  0  0  0  0  0  0  0
    1.6951    5.2222    3.6736 H   0  0  0  0  0  0  0  0  0  0  0  0
   -1.2731    0.4219    2.3416 H   0  0  0  0  0  0  0  0  0  0  0  0
   -2.6628    2.2952    2.9392 H   0  0  0  0  0  0  0  0  0  0  0  0
    1.0541    0.2758    5.1481 H   0  0  0  0  0  0  0  0  0  0  0  0
    3.3029    0.3211    5.6538 H   0  0  0  0  0  0  0  0  0  0  0  0
    2.7811   -1.2812    6.0244 H   0  0  0  0  0  0  0  0  0  0  0  0
    4.9792   -1.3061    5.0579 H   0  0  0  0  0  0  0  0  0  0  0  0
    3.9364   -2.1934    4.0317 H   0  0  0  0  0  0  0  0  0  0  0  0
    5.1018    0.5704    3.6279 H   0  0  0  0  0  0  0  0  0  0  0  0
    5.3254   -0.8563    2.6867 H   0  0  0  0  0  0  0  0  0  0  0  0
    2.4805    1.6696    1.5858 H   0  0  0  0  0  0  0  0  0  0  0  0
    3.1849    3.3310    3.2558 H   0  0  0  0  0  0  0  0  0  0  0  0
    2.9552    2.1452    4.5866 H   0  0  0  0  0  0  0  0  0  0  0  0
    1.9123   -0.2495    0.9666 H   0  0  0  0  0  0  0  0  0  0  0  0
    1.6865   -2.4810    1.1899 H   0  0  0  0  0  0  0  0  0  0  0  0
    3.1445   -2.6004    2.0659 H   0  0  0  0  0  0  0  0  0  0  0  0
    0.3340   -3.0145    2.8849 H   0  0  0  0  0  0  0  0  0  0  0  0
    0.6532   -2.1001    5.3250 H   0  0  0  0  0  0  0  0  0  0  0  0
   -0.2370   -1.3364    4.0676 H   0  0  0  0  0  0  0  0  0  0  0  0
    4.0042    0.3311    1.4232 H   0  0  0  0  0  0  0  0  0  0  0  0
  1  2  1  0
  1 24  1  0
  1 25  1  0
  1 26  1  0
  2  7  1  0
  2  3  1  0
  3 16  1  0
  3  4  2  0
  4  5  1  0
  9  4  1  6
  5  6  2  0
  5 27  1  0
  6  7  1  0
  6 28  1  0
  7  8  2  0
  9 15  1  0
  9 17  1  0
  9 10  1  0
 10 23  1  0
 10 11  1  0
 10 29  1  1
 11 12  1  0
 11 30  1  0
 11 31  1  0
 12 13  1  0
 12 32  1  0
 12 33  1  0
 13 14  1  0
 13 34  1  0
 13 35  1  0
 14 15  1  0
 14 17  1  0
 14 45  1  6
 15 16  1  0
 15 36  1  6
 16 37  1  0
 16 38  1  0
 17 18  1  0
 17 39  1  6
 18 19  1  0
 18 40  1  0
 18 41  1  0
 19 20  1  0
 19 23  1  0
 19 42  1  6
 20 21  2  0
 20 22  1  0
 23 43  1  0
 23 44  1  0
M  CHG  2  14   1  22  -1
M  END
>  <i_m_ct_stereo_status>  (345) 
1

>  <s_m_source_file>  (345) 
/var/tmp/pbs.5076255.sched01/tmpvuzdko10/1206lwnzxed.sdf

>  <i_m_source_file_index>  (345) 
34

>  <i_lp_mmshare_version>  (345) 
48012

>  <i_f3d_flags>  (345) 
0

>  <s_epik_input>  (345) 
W2NIXTFbY0hdYyg9TyluKFtDSDNdKWMoYzFbQ0BdMjM0KVtDSDJdW0NASF0zTjVbQ0BIXTRbQ0gyXVtDQEBIXShDKD1PKVtPSF0pW0NIMl1bQ0BASF0yW0NIMl1bQ0gyXVtDSDJdNQ==

>  <s_epik_cmdline>  (345) 
J2VwaWtfcHl0aG9uJywgJy1waHQnLCAnMi4wJywgJy1waCcsICc3LjAnLCAnLXRuJywgJzgnLCAnLW1hJywgJzIwMCcsICctaW1hZScsICc8aW5maWxlLm1hZT4nLCAnLW9tYWUnLCAnPG91dGZpbGUubWFlPic=

>  <r_lp_tautomer_probability>  (345) 
1

>  <r_epik_Ionization_Penalty>  (345) 
0.168238

>  <r_epik_Ionization_Penalty_Charging>  (345) 
0.168238

>  <r_epik_Ionization_Penalty_Neutral>  (345) 
1.49976e-13

>  <r_epik_State_Penalty>  (345) 
0.153774

>  <r_epik_Charging_Adjusted_Penalty>  (345) 
0.322012

>  <i_epik_Tot_Q>  (345) 
0

>  <i_epik_Tot_abs_Q>  (345) 
2

>  <s_lp_Force_Field>  (345) 
OPLS3e

>  <r_lp_Energy>  (345) 
104.27

>  <b_lp_Chiralities_Consistent>  (345) 
1

>  <s_lp_Variant>  (345) 
113:0-1

>  <s_i_glide_gridfile>  (345) 
pfpi4k_grid

>  <i_i_glide_lignum>  (345) 
34

>  <i_i_glide_rotatable_bonds>  (345) 
1

>  <r_i_docking_score>  (345) 
-3.30162

>  <r_i_glide_ligand_efficiency>  (345) 
-0.143549

>  <r_i_glide_ligand_efficiency_sa>  (345) 
-0.408233

>  <r_i_glide_ligand_efficiency_ln>  (345) 
-0.798362

>  <r_i_glide_gscore>  (345) 
-3.30162

>  <r_i_glide_lipo>  (345) 
-0.133547

>  <r_i_glide_hbond>  (345) 
-0.142012

>  <r_i_glide_metal>  (345) 
-0

>  <r_i_glide_rewards>  (345) 
-1.26848

>  <r_i_glide_evdw>  (345) 
-17.5836

>  <r_i_glide_ecoul>  (345) 
-5.30681

>  <r_i_glide_erotb>  (345) 
0

>  <r_i_glide_esite>  (345) 
-0.0823841

>  <r_i_glide_emodel>  (345) 
-27.7131

>  <r_i_glide_energy>  (345) 
-22.8904

>  <r_i_glide_einternal>  (345) 
0.187616

>  <r_i_glide_intrahb_reward>  (345) 
-0

>  <i_i_glide_confnum>  (345) 
1

>  <i_i_glide_posenum>  (345) 
30

>  <r_i_glide_eff_state_penalty>  (345) 
0

>  <ligand_id>  (345) 
113

>  <original_smiles>  (345) 
Cn1c2c(ccc1=O)C13C4CCCN(C1C2)C3CC(C(=O)O)C4

>  <smiles>  (345) 
[H]c1c2c(n(C([H])([H])[H])c(=O)c1[H])C([H])([H])C1([H])C23C2([H])C([H])([H])C([H])([H])C([H])([H])[N+]1([H])C3([H])C([H])([H])C([H])(C(=O)[O-])C2([H])[H]

$$$$
113:0:2
     RDKit          3D

 45 49  0  0  1  0  0  0  0  0999 V2000
   -1.3498   -0.0192    4.4305 C   0  0  0  0  0  0  0  0  0  0  0  0
   -0.1484    0.6614    3.9268 N   0  0  0  0  0  0  0  0  0  0  0  0
    1.0280   -0.1009    3.8043 C   0  0  0  0  0  0  0  0  0  0  0  0
    2.1532    0.4193    3.2682 C   0  0  0  0  0  0  0  0  0  0  0  0
    2.1869    1.7812    2.8450 C   0  0  0  0  0  0  0  0  0  0  0  0
    1.0556    2.5104    2.9536 C   0  0  0  0  0  0  0  0  0  0  0  0
   -0.1879    1.9375    3.4915 C   0  0  0  0  0  0  0  0  0  0  0  0
   -1.2277    2.6083    3.5586 O   0  0  0  0  0  0  0  0  0  0  0  0
    3.1319   -0.7011    3.0129 C   0  0  2  0  0  0  0  0  0  0  0  0
    2.8616   -1.2778    1.6055 C   0  0  2  0  0  0  0  0  0  0  0  0
    2.7639   -2.8167    1.4599 C   0  0  0  0  0  0  0  0  0  0  0  0
    3.8151   -3.6785    2.1710 C   0  0  0  0  0  0  0  0  0  0  0  0
    3.8139   -3.5432    3.6811 C   0  0  0  0  0  0  0  0  0  0  0  0
    3.9140   -2.1700    4.2350 N   0  0  2  0  0  0  0  0  0  0  0  0
    2.7337   -1.3400    4.3204 C   0  0  2  0  0  0  0  0  0  0  0  0
    1.2317   -1.5502    4.2728 C   0  0  0  0  0  0  0  0  0  0  0  0
    4.5251   -0.9557    3.5627 C   0  0  1  0  0  0  0  0  0  0  0  0
    5.6933   -1.1435    2.5816 C   0  0  0  0  0  0  0  0  0  0  0  0
    5.3809   -0.8709    1.0562 C   0  0  1  0  0  0  0  0  0  0  0  0
    6.1300   -1.7890    0.0616 C   0  0  0  0  0  0  0  0  0  0  0  0
    6.1375   -1.4554   -1.1434 O   0  0  0  0  0  0  0  0  0  0  0  0
    6.7081   -2.8064    0.4657 O   0  0  0  0  0  0  0  0  0  0  0  0
    3.8935   -0.6569    0.6604 C   0  0  0  0  0  0  0  0  0  0  0  0
   -1.5857   -0.8743    3.7999 H   0  0  0  0  0  0  0  0  0  0  0  0
   -2.2328    0.6162    4.4204 H   0  0  0  0  0  0  0  0  0  0  0  0
   -1.2043   -0.3476    5.4569 H   0  0  0  0  0  0  0  0  0  0  0  0
    3.1038    2.2227    2.5058 H   0  0  0  0  0  0  0  0  0  0  0  0
    1.0837    3.5452    2.6654 H   0  0  0  0  0  0  0  0  0  0  0  0
    1.8816   -0.9225    1.2569 H   0  0  0  0  0  0  0  0  0  0  0  0
    1.7887   -3.1707    1.7938 H   0  0  0  0  0  0  0  0  0  0  0  0
    2.8181   -3.0565    0.3986 H   0  0  0  0  0  0  0  0  0  0  0  0
    3.6116   -4.7337    1.9449 H   0  0  0  0  0  0  0  0  0  0  0  0
    4.8226   -3.4966    1.7820 H   0  0  0  0  0  0  0  0  0  0  0  0
    2.9582   -4.0553    4.1110 H   0  0  0  0  0  0  0  0  0  0  0  0
    4.6882   -4.0904    4.0231 H   0  0  0  0  0  0  0  0  0  0  0  0
    2.9672   -0.7373    5.2138 H   0  0  0  0  0  0  0  0  0  0  0  0
    0.7418   -1.7954    5.2219 H   0  0  0  0  0  0  0  0  0  0  0  0
    0.9018   -2.2421    3.4900 H   0  0  0  0  0  0  0  0  0  0  0  0
    4.7821   -0.2285    4.3380 H   0  0  0  0  0  0  0  0  0  0  0  0
    6.4462   -0.3970    2.8464 H   0  0  0  0  0  0  0  0  0  0  0  0
    6.1965   -2.0949    2.7723 H   0  0  0  0  0  0  0  0  0  0  0  0
    5.8104    0.1048    0.8564 H   0  0  0  0  0  0  0  0  0  0  0  0
    3.6831   -0.9788   -0.3577 H   0  0  0  0  0  0  0  0  0  0  0  0
    3.6906    0.4169    0.6605 H   0  0  0  0  0  0  0  0  0  0  0  0
    4.3183   -2.2695    5.1516 H   0  0  0  0  0  0  0  0  0  0  0  0
  1  2  1  0
  1 24  1  0
  1 25  1  0
  1 26  1  0
  2  7  1  0
  2  3  1  0
  3 16  1  0
  3  4  2  0
  4  5  1  0
  9  4  1  6
  5  6  2  0
  5 27  1  0
  6  7  1  0
  6 28  1  0
  7  8  2  0
  9 15  1  0
  9 17  1  0
  9 10  1  0
 10 23  1  0
 10 11  1  0
 10 29  1  6
 11 12  1  0
 11 30  1  0
 11 31  1  0
 12 13  1  0
 12 32  1  0
 12 33  1  0
 13 14  1  0
 13 34  1  0
 13 35  1  0
 14 15  1  0
 14 17  1  0
 14 45  1  1
 15 16  1  0
 15 36  1  1
 16 37  1  0
 16 38  1  0
 17 18  1  0
 17 39  1  1
 18 19  1  0
 18 40  1  0
 18 41  1  0
 19 20  1  0
 19 23  1  0
 19 42  1  6
 20 21  2  0
 20 22  1  0
 23 43  1  0
 23 44  1  0
M  CHG  2  14   1  22  -1
M  END
>  <i_m_ct_stereo_status>  (346) 
1

>  <s_m_source_file>  (346) 
/var/tmp/pbs.5076255.sched01/tmpvuzdko10/1206lwnzxed.sdf

>  <i_m_source_file_index>  (346) 
34

>  <i_lp_mmshare_version>  (346) 
48012

>  <i_f3d_flags>  (346) 
0

>  <s_epik_input>  (346) 
W2NIXTFbY0hdYyg9TyluKFtDSDNdKWMoYzFbQ0BdMjM0KVtDSDJdW0NASF0zTjVbQ0BIXTRbQ0gyXVtDQEBIXShDKD1PKVtPSF0pW0NIMl1bQ0BASF0yW0NIMl1bQ0gyXVtDSDJdNQ==

>  <s_epik_cmdline>  (346) 
J2VwaWtfcHl0aG9uJywgJy1waHQnLCAnMi4wJywgJy1waCcsICc3LjAnLCAnLXRuJywgJzgnLCAnLW1hJywgJzIwMCcsICctaW1hZScsICc8aW5maWxlLm1hZT4nLCAnLW9tYWUnLCAnPG91dGZpbGUubWFlPic=

>  <r_lp_tautomer_probability>  (346) 
1

>  <r_epik_Ionization_Penalty>  (346) 
0.168238

>  <r_epik_Ionization_Penalty_Charging>  (346) 
0.168238

>  <r_epik_Ionization_Penalty_Neutral>  (346) 
1.49976e-13

>  <r_epik_State_Penalty>  (346) 
0.153774

>  <r_epik_Charging_Adjusted_Penalty>  (346) 
0.322012

>  <i_epik_Tot_Q>  (346) 
0

>  <i_epik_Tot_abs_Q>  (346) 
2

>  <s_lp_Force_Field>  (346) 
OPLS3e

>  <r_lp_Energy>  (346) 
104.27

>  <b_lp_Chiralities_Consistent>  (346) 
1

>  <s_lp_Variant>  (346) 
113:0-1

>  <s_i_glide_gridfile>  (346) 
pfpi4k_grid

>  <i_i_glide_lignum>  (346) 
34

>  <i_i_glide_rotatable_bonds>  (346) 
1

>  <r_i_docking_score>  (346) 
-3.28522

>  <r_i_glide_ligand_efficiency>  (346) 
-0.142836

>  <r_i_glide_ligand_efficiency_sa>  (346) 
-0.406206

>  <r_i_glide_ligand_efficiency_ln>  (346) 
-0.794397

>  <r_i_glide_gscore>  (346) 
-3.28522

>  <r_i_glide_lipo>  (346) 
-0.29003

>  <r_i_glide_hbond>  (346) 
-0.142187

>  <r_i_glide_metal>  (346) 
-0

>  <r_i_glide_rewards>  (346) 
-1.2678

>  <r_i_glide_evdw>  (346) 
-19.0314

>  <r_i_glide_ecoul>  (346) 
-4.09889

>  <r_i_glide_erotb>  (346) 
0

>  <r_i_glide_esite>  (346) 
-0.0188017

>  <r_i_glide_emodel>  (346) 
-27.3657

>  <r_i_glide_energy>  (346) 
-23.1303

>  <r_i_glide_einternal>  (346) 
1.22581

>  <r_i_glide_intrahb_reward>  (346) 
-0

>  <i_i_glide_confnum>  (346) 
2

>  <i_i_glide_posenum>  (346) 
32

>  <r_i_glide_eff_state_penalty>  (346) 
0

>  <ligand_id>  (346) 
113

>  <original_smiles>  (346) 
Cn1c2c(ccc1=O)C13C4CCCN(C1C2)C3CC(C(=O)O)C4

>  <smiles>  (346) 
[H]c1c2c(n(C([H])([H])[H])c(=O)c1[H])C([H])([H])C1([H])C23C2([H])C([H])([H])C([H])([H])C([H])([H])[N+]1([H])C3([H])C([H])([H])C([H])(C(=O)[O-])C2([H])[H]

$$$$
113:1:0
     RDKit          3D

 45 49  0  0  1  0  0  0  0  0999 V2000
    3.4248   -1.9924    4.8842 C   0  0  0  0  0  0  0  0  0  0  0  0
    3.7323   -1.5000    3.5384 N   0  0  0  0  0  0  0  0  0  0  0  0
    4.2247   -2.4234    2.5891 C   0  0  0  0  0  0  0  0  0  0  0  0
    4.4480   -2.0751    1.3143 C   0  0  0  0  0  0  0  0  0  0  0  0
    4.2416   -0.7166    0.8921 C   0  0  0  0  0  0  0  0  0  0  0  0
    3.7521    0.1612    1.7864 C   0  0  0  0  0  0  0  0  0  0  0  0
    3.4593   -0.2177    3.1745 C   0  0  0  0  0  0  0  0  0  0  0  0
    2.9879    0.5915    3.9746 O   0  0  0  0  0  0  0  0  0  0  0  0
    4.7195   -3.3098    0.4994 C   0  0  2  0  0  0  0  0  0  0  0  0
    3.4531   -3.8445   -0.2229 C   0  0  1  0  0  0  0  0  0  0  0  0
    2.5880   -4.8685    0.4982 C   0  0  0  0  0  0  0  0  0  0  0  0
    3.4542   -6.1187    0.8826 C   0  0  0  0  0  0  0  0  0  0  0  0
    4.9315   -6.1654    0.3616 C   0  0  0  0  0  0  0  0  0  0  0  0
    5.8267   -4.9836    0.6191 N   0  0  2  0  0  0  0  0  0  0  0  0
    5.4651   -3.9914    1.6383 C   0  0  2  0  0  0  0  0  0  0  0  0
    4.5732   -3.8974    2.8776 C   0  0  0  0  0  0  0  0  0  0  0  0
    5.9314   -3.7204   -0.2756 C   0  0  1  0  0  0  0  0  0  0  0  0
    5.6663   -3.6728   -1.8141 C   0  0  0  0  0  0  0  0  0  0  0  0
    4.4442   -2.7230   -2.2069 C   0  0  1  0  0  0  0  0  0  0  0  0
    4.1958   -2.7601   -3.7220 C   0  0  0  0  0  0  0  0  0  0  0  0
    4.2212   -3.8714   -4.2945 O   0  0  0  0  0  0  0  0  0  0  0  0
    4.0387   -1.6639   -4.3084 O   0  0  0  0  0  0  0  0  0  0  0  0
    3.1013   -2.9873   -1.4211 C   0  0  0  0  0  0  0  0  0  0  0  0
    2.7096   -2.8118    4.8274 H   0  0  0  0  0  0  0  0  0  0  0  0
    2.9776   -1.2400    5.5299 H   0  0  0  0  0  0  0  0  0  0  0  0
    4.3331   -2.3343    5.3736 H   0  0  0  0  0  0  0  0  0  0  0  0
    4.5178   -0.3933   -0.0968 H   0  0  0  0  0  0  0  0  0  0  0  0
    3.6159    1.1850    1.4899 H   0  0  0  0  0  0  0  0  0  0  0  0
    3.7233   -4.6172   -0.9243 H   0  0  0  0  0  0  0  0  0  0  0  0
    2.0989   -4.4393    1.3710 H   0  0  0  0  0  0  0  0  0  0  0  0
    1.8077   -5.2006   -0.1837 H   0  0  0  0  0  0  0  0  0  0  0  0
    3.4244   -6.3060    1.9592 H   0  0  0  0  0  0  0  0  0  0  0  0
    2.9545   -7.0056    0.4798 H   0  0  0  0  0  0  0  0  0  0  0  0
    5.3876   -7.0087    0.8793 H   0  0  0  0  0  0  0  0  0  0  0  0
    4.9598   -6.4525   -0.6910 H   0  0  0  0  0  0  0  0  0  0  0  0
    6.4190   -3.5276    1.9278 H   0  0  0  0  0  0  0  0  0  0  0  0
    5.0914   -4.0411    3.8322 H   0  0  0  0  0  0  0  0  0  0  0  0
    3.6539   -4.4685    2.8770 H   0  0  0  0  0  0  0  0  0  0  0  0
    6.8349   -3.1561   -0.0304 H   0  0  0  0  0  0  0  0  0  0  0  0
    6.5521   -3.3134   -2.3432 H   0  0  0  0  0  0  0  0  0  0  0  0
    5.4720   -4.6550   -2.2321 H   0  0  0  0  0  0  0  0  0  0  0  0
    4.7687   -1.7113   -1.9570 H   0  0  0  0  0  0  0  0  0  0  0  0
    2.3300   -3.4656   -2.0281 H   0  0  0  0  0  0  0  0  0  0  0  0
    2.6924   -2.0534   -1.0603 H   0  0  0  0  0  0  0  0  0  0  0  0
    6.7384   -5.3464    0.7897 H   0  0  0  0  0  0  0  0  0  0  0  0
  1  2  1  0
  1 24  1  0
  1 25  1  0
  1 26  1  0
  2  7  1  0
  2  3  1  0
  3 16  1  0
  3  4  2  0
  4  5  1  0
  9  4  1  1
  5  6  2  0
  5 27  1  0
  6  7  1  0
  6 28  1  0
  7  8  2  0
  9 15  1  0
  9 17  1  0
  9 10  1  0
 10 23  1  0
 10 11  1  0
 10 29  1  6
 11 12  1  0
 11 30  1  0
 11 31  1  0
 12 13  1  0
 12 32  1  0
 12 33  1  0
 13 14  1  0
 13 34  1  0
 13 35  1  0
 14 15  1  0
 14 17  1  0
 14 45  1  1
 15 16  1  0
 15 36  1  1
 16 37  1  0
 16 38  1  0
 17 18  1  0
 17 39  1  6
 18 19  1  0
 18 40  1  0
 18 41  1  0
 19 20  1  0
 19 23  1  0
 19 42  1  1
 20 21  2  0
 20 22  1  0
 23 43  1  0
 23 44  1  0
M  CHG  2  14   1  22  -1
M  END
>  <i_m_ct_stereo_status>  (347) 
1

>  <s_m_source_file>  (347) 
/var/tmp/pbs.5076255.sched01/tmpvuzdko10/1206lwnzxed.sdf

>  <i_m_source_file_index>  (347) 
35

>  <i_lp_mmshare_version>  (347) 
48012

>  <i_f3d_flags>  (347) 
0

>  <s_epik_input>  (347) 
W2NIXTFbY0hdYyg9TyluKFtDSDNdKWMoYzFbQ0BdMjM0KVtDSDJdW0NASF0zTjVbQ0BIXTRbQ0gyXVtDQEBIXShDKD1PKVtPSF0pW0NIMl1bQ0BASF0yW0NIMl1bQ0gyXVtDSDJdNQ==

>  <s_epik_cmdline>  (347) 
J2VwaWtfcHl0aG9uJywgJy1waHQnLCAnMi4wJywgJy1waCcsICc3LjAnLCAnLXRuJywgJzgnLCAnLW1hJywgJzIwMCcsICctaW1hZScsICc8aW5maWxlLm1hZT4nLCAnLW9tYWUnLCAnPG91dGZpbGUubWFlPic=

>  <r_lp_tautomer_probability>  (347) 
1

>  <r_epik_Ionization_Penalty>  (347) 
0.168238

>  <r_epik_Ionization_Penalty_Charging>  (347) 
0.168238

>  <r_epik_Ionization_Penalty_Neutral>  (347) 
1.49976e-13

>  <r_epik_State_Penalty>  (347) 
0.153774

>  <r_epik_Charging_Adjusted_Penalty>  (347) 
0.322012

>  <i_epik_Tot_Q>  (347) 
0

>  <i_epik_Tot_abs_Q>  (347) 
2

>  <s_lp_Force_Field>  (347) 
OPLS3e

>  <r_lp_Energy>  (347) 
141.193

>  <b_lp_Chiralities_Consistent>  (347) 
1

>  <s_lp_Variant>  (347) 
113:0-2

>  <s_i_glide_gridfile>  (347) 
pfpi4k_grid

>  <i_i_glide_lignum>  (347) 
35

>  <i_i_glide_rotatable_bonds>  (347) 
1

>  <r_i_docking_score>  (347) 
-3.72612

>  <r_i_glide_ligand_efficiency>  (347) 
-0.162005

>  <r_i_glide_ligand_efficiency_sa>  (347) 
-0.460721

>  <r_i_glide_ligand_efficiency_ln>  (347) 
-0.901009

>  <r_i_glide_gscore>  (347) 
-3.72612

>  <r_i_glide_lipo>  (347) 
-0.566554

>  <r_i_glide_hbond>  (347) 
-0.175501

>  <r_i_glide_metal>  (347) 
-0

>  <r_i_glide_rewards>  (347) 
-1.47044

>  <r_i_glide_evdw>  (347) 
-20.0711

>  <r_i_glide_ecoul>  (347) 
-3.40047

>  <r_i_glide_erotb>  (347) 
0

>  <r_i_glide_esite>  (347) 
0

>  <r_i_glide_emodel>  (347) 
-32.318

>  <r_i_glide_energy>  (347) 
-23.4715

>  <r_i_glide_einternal>  (347) 
1.17432

>  <r_i_glide_intrahb_reward>  (347) 
-0

>  <i_i_glide_confnum>  (347) 
2

>  <i_i_glide_posenum>  (347) 
24

>  <r_i_glide_eff_state_penalty>  (347) 
0

>  <ligand_id>  (347) 
113

>  <original_smiles>  (347) 
Cn1c2c(ccc1=O)C13C4CCCN(C1C2)C3CC(C(=O)O)C4

>  <smiles>  (347) 
[H]c1c2c(n(C([H])([H])[H])c(=O)c1[H])C([H])([H])C1([H])C23C2([H])C([H])([H])C([H])([H])C([H])([H])[N+]1([H])C3([H])C([H])([H])C([H])(C(=O)[O-])C2([H])[H]

$$$$
113:1:1
     RDKit          3D

 45 49  0  0  1  0  0  0  0  0999 V2000
    1.4125    4.8102    3.2777 C   0  0  0  0  0  0  0  0  0  0  0  0
    0.5403    3.6548    3.5004 N   0  0  0  0  0  0  0  0  0  0  0  0
    1.1231    2.3638    3.4814 C   0  0  0  0  0  0  0  0  0  0  0  0
    0.4157    1.2664    3.7499 C   0  0  0  0  0  0  0  0  0  0  0  0
   -1.0046    1.3625    3.9920 C   0  0  0  0  0  0  0  0  0  0  0  0
   -1.5740    2.5864    4.0063 C   0  0  0  0  0  0  0  0  0  0  0  0
   -0.7945    3.8031    3.7612 C   0  0  0  0  0  0  0  0  0  0  0  0
   -1.3217    4.9202    3.8078 O   0  0  0  0  0  0  0  0  0  0  0  0
    1.3460    0.0957    3.9098 C   0  0  2  0  0  0  0  0  0  0  0  0
    1.7126   -0.1721    5.3941 C   0  0  1  0  0  0  0  0  0  0  0  0
    2.9430    0.5155    5.9739 C   0  0  0  0  0  0  0  0  0  0  0  0
    4.2099    0.1426    5.1248 C   0  0  0  0  0  0  0  0  0  0  0  0
    4.0315   -0.9114    3.9758 C   0  0  0  0  0  0  0  0  0  0  0  0
    2.9290   -0.7086    2.9731 N   0  0  2  0  0  0  0  0  0  0  0  0
    2.2939    0.5982    2.8242 C   0  0  2  0  0  0  0  0  0  0  0  0
    2.6049    2.0621    3.1482 C   0  0  0  0  0  0  0  0  0  0  0  0
    1.4660   -1.1780    3.1365 C   0  0  1  0  0  0  0  0  0  0  0  0
    1.0114   -2.4065    3.9904 C   0  0  0  0  0  0  0  0  0  0  0  0
    0.0416   -1.9921    5.2106 C   0  0  1  0  0  0  0  0  0  0  0  0
   -0.3832   -3.1970    6.0810 C   0  0  0  0  0  0  0  0  0  0  0  0
   -0.1503   -4.3413    5.6256 O   0  0  0  0  0  0  0  0  0  0  0  0
   -0.9780   -2.9608    7.1533 O   0  0  0  0  0  0  0  0  0  0  0  0
    0.5653   -0.8216    6.1325 C   0  0  0  0  0  0  0  0  0  0  0  0
    2.2223    4.8238    4.0050 H   0  0  0  0  0  0  0  0  0  0  0  0
    0.8996    5.7666    3.3499 H   0  0  0  0  0  0  0  0  0  0  0  0
    1.8327    4.7685    2.2745 H   0  0  0  0  0  0  0  0  0  0  0  0
   -1.6074    0.4835    4.1080 H   0  0  0  0  0  0  0  0  0  0  0  0
   -2.6376    2.6661    4.1675 H   0  0  0  0  0  0  0  0  0  0  0  0
    2.2383   -1.1079    5.4868 H   0  0  0  0  0  0  0  0  0  0  0  0
    2.8073    1.5943    6.0502 H   0  0  0  0  0  0  0  0  0  0  0  0
    3.0986    0.1542    6.9901 H   0  0  0  0  0  0  0  0  0  0  0  0
    4.7007    1.0406    4.7440 H   0  0  0  0  0  0  0  0  0  0  0  0
    4.9651   -0.2557    5.8164 H   0  0  0  0  0  0  0  0  0  0  0  0
    4.9666   -0.8795    3.4229 H   0  0  0  0  0  0  0  0  0  0  0  0
    4.0147   -1.9220    4.3806 H   0  0  0  0  0  0  0  0  0  0  0  0
    1.8863    0.5993    1.8038 H   0  0  0  0  0  0  0  0  0  0  0  0
    2.9875    2.6541    2.3086 H   0  0  0  0  0  0  0  0  0  0  0  0
    3.1970    2.2696    4.0296 H   0  0  0  0  0  0  0  0  0  0  0  0
    0.9547   -1.1711    2.1690 H   0  0  0  0  0  0  0  0  0  0  0  0
    0.4486   -3.0972    3.3598 H   0  0  0  0  0  0  0  0  0  0  0  0
    1.8499   -3.0071    4.3615 H   0  0  0  0  0  0  0  0  0  0  0  0
   -0.8827   -1.6407    4.7429 H   0  0  0  0  0  0  0  0  0  0  0  0
    0.8966   -1.1608    7.1159 H   0  0  0  0  0  0  0  0  0  0  0  0
   -0.2082   -0.0819    6.2845 H   0  0  0  0  0  0  0  0  0  0  0  0
    3.2729   -1.0316    2.0985 H   0  0  0  0  0  0  0  0  0  0  0  0
  1  2  1  0
  1 24  1  0
  1 25  1  0
  1 26  1  0
  2  7  1  0
  2  3  1  0
  3 16  1  0
  3  4  2  0
  4  5  1  0
  9  4  1  1
  5  6  2  0
  5 27  1  0
  6  7  1  0
  6 28  1  0
  7  8  2  0
  9 15  1  0
  9 17  1  0
  9 10  1  0
 10 23  1  0
 10 11  1  0
 10 29  1  6
 11 12  1  0
 11 30  1  0
 11 31  1  0
 12 13  1  0
 12 32  1  0
 12 33  1  0
 13 14  1  0
 13 34  1  0
 13 35  1  0
 14 15  1  0
 14 17  1  0
 14 45  1  6
 15 16  1  0
 15 36  1  6
 16 37  1  0
 16 38  1  0
 17 18  1  0
 17 39  1  6
 18 19  1  0
 18 40  1  0
 18 41  1  0
 19 20  1  0
 19 23  1  0
 19 42  1  6
 20 21  2  0
 20 22  1  0
 23 43  1  0
 23 44  1  0
M  CHG  2  14   1  22  -1
M  END
>  <i_m_ct_stereo_status>  (348) 
1

>  <s_m_source_file>  (348) 
/var/tmp/pbs.5076255.sched01/tmpvuzdko10/1206lwnzxed.sdf

>  <i_m_source_file_index>  (348) 
35

>  <i_lp_mmshare_version>  (348) 
48012

>  <i_f3d_flags>  (348) 
0

>  <s_epik_input>  (348) 
W2NIXTFbY0hdYyg9TyluKFtDSDNdKWMoYzFbQ0BdMjM0KVtDSDJdW0NASF0zTjVbQ0BIXTRbQ0gyXVtDQEBIXShDKD1PKVtPSF0pW0NIMl1bQ0BASF0yW0NIMl1bQ0gyXVtDSDJdNQ==

>  <s_epik_cmdline>  (348) 
J2VwaWtfcHl0aG9uJywgJy1waHQnLCAnMi4wJywgJy1waCcsICc3LjAnLCAnLXRuJywgJzgnLCAnLW1hJywgJzIwMCcsICctaW1hZScsICc8aW5maWxlLm1hZT4nLCAnLW9tYWUnLCAnPG91dGZpbGUubWFlPic=

>  <r_lp_tautomer_probability>  (348) 
1

>  <r_epik_Ionization_Penalty>  (348) 
0.168238

>  <r_epik_Ionization_Penalty_Charging>  (348) 
0.168238

>  <r_epik_Ionization_Penalty_Neutral>  (348) 
1.49976e-13

>  <r_epik_State_Penalty>  (348) 
0.153774

>  <r_epik_Charging_Adjusted_Penalty>  (348) 
0.322012

>  <i_epik_Tot_Q>  (348) 
0

>  <i_epik_Tot_abs_Q>  (348) 
2

>  <s_lp_Force_Field>  (348) 
OPLS3e

>  <r_lp_Energy>  (348) 
141.193

>  <b_lp_Chiralities_Consistent>  (348) 
1

>  <s_lp_Variant>  (348) 
113:0-2

>  <s_i_glide_gridfile>  (348) 
pfpi4k_grid

>  <i_i_glide_lignum>  (348) 
35

>  <i_i_glide_rotatable_bonds>  (348) 
1

>  <r_i_docking_score>  (348) 
-3.56997

>  <r_i_glide_ligand_efficiency>  (348) 
-0.155216

>  <r_i_glide_ligand_efficiency_sa>  (348) 
-0.441414

>  <r_i_glide_ligand_efficiency_ln>  (348) 
-0.863252

>  <r_i_glide_gscore>  (348) 
-3.56997

>  <r_i_glide_lipo>  (348) 
-0.0432177

>  <r_i_glide_hbond>  (348) 
-0.169338

>  <r_i_glide_metal>  (348) 
-0

>  <r_i_glide_rewards>  (348) 
-1.2656

>  <r_i_glide_evdw>  (348) 
-15.2542

>  <r_i_glide_ecoul>  (348) 
-8.03892

>  <r_i_glide_erotb>  (348) 
0

>  <r_i_glide_esite>  (348) 
-0.123269

>  <r_i_glide_emodel>  (348) 
-32.2105

>  <r_i_glide_energy>  (348) 
-23.2932

>  <r_i_glide_einternal>  (348) 
0.0856458

>  <r_i_glide_intrahb_reward>  (348) 
-0

>  <i_i_glide_confnum>  (348) 
1

>  <i_i_glide_posenum>  (348) 
10

>  <r_i_glide_eff_state_penalty>  (348) 
0

>  <ligand_id>  (348) 
113

>  <original_smiles>  (348) 
Cn1c2c(ccc1=O)C13C4CCCN(C1C2)C3CC(C(=O)O)C4

>  <smiles>  (348) 
[H]c1c2c(n(C([H])([H])[H])c(=O)c1[H])C([H])([H])C1([H])C23C2([H])C([H])([H])C([H])([H])C([H])([H])[N+]1([H])C3([H])C([H])([H])C([H])(C(=O)[O-])C2([H])[H]

$$$$
113:1:2
     RDKit          3D

 45 49  0  0  1  0  0  0  0  0999 V2000
    2.5396    5.6159    3.2599 C   0  0  0  0  0  0  0  0  0  0  0  0
    1.5652    4.8074    3.9888 N   0  0  0  0  0  0  0  0  0  0  0  0
    1.3816    3.4669    3.5992 C   0  0  0  0  0  0  0  0  0  0  0  0
    0.5584    2.6350    4.2502 C   0  0  0  0  0  0  0  0  0  0  0  0
   -0.2001    3.1247    5.3765 C   0  0  0  0  0  0  0  0  0  0  0  0
   -0.0172    4.3980    5.7726 C   0  0  0  0  0  0  0  0  0  0  0  0
    0.9112    5.3060    5.0867 C   0  0  0  0  0  0  0  0  0  0  0  0
    1.0927    6.4519    5.4868 O   0  0  0  0  0  0  0  0  0  0  0  0
    0.7652    1.2319    3.7378 C   0  0  2  0  0  0  0  0  0  0  0  0
    1.7733    0.4170    4.5957 C   0  0  1  0  0  0  0  0  0  0  0  0
    3.2493    0.4456    4.2297 C   0  0  0  0  0  0  0  0  0  0  0  0
    3.4316   -0.0490    2.7544 C   0  0  0  0  0  0  0  0  0  0  0  0
    2.1648   -0.5873    1.9918 C   0  0  0  0  0  0  0  0  0  0  0  0
    0.9169    0.2651    1.9740 N   0  0  2  0  0  0  0  0  0  0  0  0
    0.9857    1.6962    2.3078 C   0  0  2  0  0  0  0  0  0  0  0  0
    2.0443    2.8026    2.3764 C   0  0  0  0  0  0  0  0  0  0  0  0
   -0.1842    0.2769    3.0802 C   0  0  1  0  0  0  0  0  0  0  0  0
   -0.5381   -0.9223    4.0341 C   0  0  0  0  0  0  0  0  0  0  0  0
   -0.2645   -0.5987    5.5780 C   0  0  1  0  0  0  0  0  0  0  0  0
   -0.5879   -1.8022    6.4754 C   0  0  0  0  0  0  0  0  0  0  0  0
   -1.4272   -2.6331    6.0596 O   0  0  0  0  0  0  0  0  0  0  0  0
   -0.1038   -1.8138    7.6305 O   0  0  0  0  0  0  0  0  0  0  0  0
    1.1550    0.0071    5.9145 C   0  0  0  0  0  0  0  0  0  0  0  0
    3.5180    5.1334    3.2695 H   0  0  0  0  0  0  0  0  0  0  0  0
    2.6799    6.6145    3.6702 H   0  0  0  0  0  0  0  0  0  0  0  0
    2.2184    5.7367    2.2302 H   0  0  0  0  0  0  0  0  0  0  0  0
   -0.9247    2.4968    5.8655 H   0  0  0  0  0  0  0  0  0  0  0  0
   -0.5829    4.7735    6.6123 H   0  0  0  0  0  0  0  0  0  0  0  0
    1.7549   -0.6242    4.3112 H   0  0  0  0  0  0  0  0  0  0  0  0
    3.6835    1.4304    4.3858 H   0  0  0  0  0  0  0  0  0  0  0  0
    3.7876   -0.2343    4.8865 H   0  0  0  0  0  0  0  0  0  0  0  0
    3.9266    0.7057    2.1449 H   0  0  0  0  0  0  0  0  0  0  0  0
    4.1609   -0.8646    2.7634 H   0  0  0  0  0  0  0  0  0  0  0  0
    2.4633   -0.6931    0.9512 H   0  0  0  0  0  0  0  0  0  0  0  0
    1.9173   -1.6038    2.3016 H   0  0  0  0  0  0  0  0  0  0  0  0
    0.1152    2.1421    1.8045 H   0  0  0  0  0  0  0  0  0  0  0  0
    2.0692    3.4555    1.5022 H   0  0  0  0  0  0  0  0  0  0  0  0
    3.0495    2.5149    2.6367 H   0  0  0  0  0  0  0  0  0  0  0  0
   -1.0968    0.7448    2.6960 H   0  0  0  0  0  0  0  0  0  0  0  0
   -1.6043   -1.1348    3.9465 H   0  0  0  0  0  0  0  0  0  0  0  0
   -0.0313   -1.8453    3.7373 H   0  0  0  0  0  0  0  0  0  0  0  0
   -1.0005    0.1608    5.8500 H   0  0  0  0  0  0  0  0  0  0  0  0
    1.8088   -0.7034    6.4221 H   0  0  0  0  0  0  0  0  0  0  0  0
    1.0595    0.8754    6.5581 H   0  0  0  0  0  0  0  0  0  0  0  0
    0.5043    0.1377    1.0570 H   0  0  0  0  0  0  0  0  0  0  0  0
  1  2  1  0
  1 24  1  0
  1 25  1  0
  1 26  1  0
  2  7  1  0
  2  3  1  0
  3 16  1  0
  3  4  2  0
  4  5  1  0
  9  4  1  1
  5  6  2  0
  5 27  1  0
  6  7  1  0
  6 28  1  0
  7  8  2  0
  9 15  1  0
  9 17  1  0
  9 10  1  0
 10 23  1  0
 10 11  1  0
 10 29  1  6
 11 12  1  0
 11 30  1  0
 11 31  1  0
 12 13  1  0
 12 32  1  0
 12 33  1  0
 13 14  1  0
 13 34  1  0
 13 35  1  0
 14 15  1  0
 14 17  1  0
 14 45  1  6
 15 16  1  0
 15 36  1  6
 16 37  1  0
 16 38  1  0
 17 18  1  0
 17 39  1  6
 18 19  1  0
 18 40  1  0
 18 41  1  0
 19 20  1  0
 19 23  1  0
 19 42  1  1
 20 21  2  0
 20 22  1  0
 23 43  1  0
 23 44  1  0
M  CHG  2  14   1  22  -1
M  END
>  <i_m_ct_stereo_status>  (349) 
1

>  <s_m_source_file>  (349) 
/var/tmp/pbs.5076255.sched01/tmpvuzdko10/1206lwnzxed.sdf

>  <i_m_source_file_index>  (349) 
35

>  <i_lp_mmshare_version>  (349) 
48012

>  <i_f3d_flags>  (349) 
0

>  <s_epik_input>  (349) 
W2NIXTFbY0hdYyg9TyluKFtDSDNdKWMoYzFbQ0BdMjM0KVtDSDJdW0NASF0zTjVbQ0BIXTRbQ0gyXVtDQEBIXShDKD1PKVtPSF0pW0NIMl1bQ0BASF0yW0NIMl1bQ0gyXVtDSDJdNQ==

>  <s_epik_cmdline>  (349) 
J2VwaWtfcHl0aG9uJywgJy1waHQnLCAnMi4wJywgJy1waCcsICc3LjAnLCAnLXRuJywgJzgnLCAnLW1hJywgJzIwMCcsICctaW1hZScsICc8aW5maWxlLm1hZT4nLCAnLW9tYWUnLCAnPG91dGZpbGUubWFlPic=

>  <r_lp_tautomer_probability>  (349) 
1

>  <r_epik_Ionization_Penalty>  (349) 
0.168238

>  <r_epik_Ionization_Penalty_Charging>  (349) 
0.168238

>  <r_epik_Ionization_Penalty_Neutral>  (349) 
1.49976e-13

>  <r_epik_State_Penalty>  (349) 
0.153774

>  <r_epik_Charging_Adjusted_Penalty>  (349) 
0.322012

>  <i_epik_Tot_Q>  (349) 
0

>  <i_epik_Tot_abs_Q>  (349) 
2

>  <s_lp_Force_Field>  (349) 
OPLS3e

>  <r_lp_Energy>  (349) 
141.193

>  <b_lp_Chiralities_Consistent>  (349) 
1

>  <s_lp_Variant>  (349) 
113:0-2

>  <s_i_glide_gridfile>  (349) 
pfpi4k_grid

>  <i_i_glide_lignum>  (349) 
35

>  <i_i_glide_rotatable_bonds>  (349) 
1

>  <r_i_docking_score>  (349) 
-3.51142

>  <r_i_glide_ligand_efficiency>  (349) 
-0.15267

>  <r_i_glide_ligand_efficiency_sa>  (349) 
-0.434174

>  <r_i_glide_ligand_efficiency_ln>  (349) 
-0.849093

>  <r_i_glide_gscore>  (349) 
-3.51142

>  <r_i_glide_lipo>  (349) 
-0.0120677

>  <r_i_glide_hbond>  (349) 
-0.199638

>  <r_i_glide_metal>  (349) 
-0

>  <r_i_glide_rewards>  (349) 
-1.2656

>  <r_i_glide_evdw>  (349) 
-15.9836

>  <r_i_glide_ecoul>  (349) 
-7.07503

>  <r_i_glide_erotb>  (349) 
0

>  <r_i_glide_esite>  (349) 
-0.17368

>  <r_i_glide_emodel>  (349) 
-31.834

>  <r_i_glide_energy>  (349) 
-23.0586

>  <r_i_glide_einternal>  (349) 
4.74343e-05

>  <r_i_glide_intrahb_reward>  (349) 
-0

>  <i_i_glide_confnum>  (349) 
2

>  <i_i_glide_posenum>  (349) 
1

>  <r_i_glide_eff_state_penalty>  (349) 
0

>  <ligand_id>  (349) 
113

>  <original_smiles>  (349) 
Cn1c2c(ccc1=O)C13C4CCCN(C1C2)C3CC(C(=O)O)C4

>  <smiles>  (349) 
[H]c1c2c(n(C([H])([H])[H])c(=O)c1[H])C([H])([H])C1([H])C23C2([H])C([H])([H])C([H])([H])C([H])([H])[N+]1([H])C3([H])C([H])([H])C([H])(C(=O)[O-])C2([H])[H]

$$$$
113:2:0
     RDKit          3D

 44 48  0  0  1  0  0  0  0  0999 V2000
    4.8803   -6.8931    2.7982 C   0  0  0  0  0  0  0  0  0  0  0  0
    4.0972   -5.6906    2.5315 N   0  0  0  0  0  0  0  0  0  0  0  0
    4.5816   -4.7772    1.5819 C   0  0  0  0  0  0  0  0  0  0  0  0
    3.8748   -3.7032    1.1987 C   0  0  0  0  0  0  0  0  0  0  0  0
    2.5938   -3.4413    1.8056 C   0  0  0  0  0  0  0  0  0  0  0  0
    2.1105   -4.3134    2.7074 C   0  0  0  0  0  0  0  0  0  0  0  0
    2.8530   -5.5302    3.0963 C   0  0  0  0  0  0  0  0  0  0  0  0
    2.3682   -6.3534    3.8642 O   0  0  0  0  0  0  0  0  0  0  0  0
    4.5283   -3.0747   -0.0227 C   0  0  2  0  0  0  0  0  0  0  0  0
    3.9461   -3.7300   -1.2754 C   0  0  2  0  0  0  0  0  0  0  0  0
    4.9576   -4.2259   -2.3163 C   0  0  0  0  0  0  0  0  0  0  0  0
    6.1453   -3.3158   -2.6741 C   0  0  0  0  0  0  0  0  0  0  0  0
    7.0924   -2.9688   -1.5253 C   0  0  0  0  0  0  0  0  0  0  0  0
    6.4738   -2.4091   -0.3221 N   0  0  0  0  0  0  0  0  0  0  0  0
    5.8937   -3.3655    0.5842 C   0  0  2  0  0  0  0  0  0  0  0  0
    5.9627   -4.8492    0.9178 C   0  0  0  0  0  0  0  0  0  0  0  0
    5.1533   -1.6869   -0.2351 C   0  0  1  0  0  0  0  0  0  0  0  0
    4.6559   -0.8270   -1.4380 C   0  0  0  0  0  0  0  0  0  0  0  0
    3.4039   -1.3603   -2.2460 C   0  0  1  0  0  0  0  0  0  0  0  0
    3.3923   -1.0505   -3.7738 C   0  0  0  0  0  0  0  0  0  0  0  0
    2.6209   -0.1516   -4.1740 O   0  0  0  0  0  0  0  0  0  0  0  0
    4.1482   -1.7388   -4.5049 O   0  0  0  0  0  0  0  0  0  0  0  0
    2.9020   -2.7943   -1.8764 C   0  0  0  0  0  0  0  0  0  0  0  0
    5.0622   -7.4377    1.8713 H   0  0  0  0  0  0  0  0  0  0  0  0
    4.4097   -7.6067    3.4762 H   0  0  0  0  0  0  0  0  0  0  0  0
    5.8349   -6.6159    3.2419 H   0  0  0  0  0  0  0  0  0  0  0  0
    2.0614   -2.5245    1.5786 H   0  0  0  0  0  0  0  0  0  0  0  0
    1.1494   -4.1205    3.1799 H   0  0  0  0  0  0  0  0  0  0  0  0
    3.4038   -4.6301   -0.9748 H   0  0  0  0  0  0  0  0  0  0  0  0
    5.2990   -5.1799   -1.9539 H   0  0  0  0  0  0  0  0  0  0  0  0
    4.4442   -4.4122   -3.2572 H   0  0  0  0  0  0  0  0  0  0  0  0
    6.7114   -3.8064   -3.4354 H   0  0  0  0  0  0  0  0  0  0  0  0
    5.8481   -2.3971   -3.0945 H   0  0  0  0  0  0  0  0  0  0  0  0
    7.7591   -3.7820   -1.2531 H   0  0  0  0  0  0  0  0  0  0  0  0
    7.7235   -2.2048   -1.9616 H   0  0  0  0  0  0  0  0  0  0  0  0
    6.0585   -2.8253    1.5184 H   0  0  0  0  0  0  0  0  0  0  0  0
    6.7742   -5.1830    1.5820 H   0  0  0  0  0  0  0  0  0  0  0  0
    5.8971   -5.4964    0.0439 H   0  0  0  0  0  0  0  0  0  0  0  0
    5.1771   -1.1314    0.7171 H   0  0  0  0  0  0  0  0  0  0  0  0
    4.3393    0.1077   -1.0009 H   0  0  0  0  0  0  0  0  0  0  0  0
    5.4658   -0.5586   -2.1294 H   0  0  0  0  0  0  0  0  0  0  0  0
    2.6183   -0.7087   -1.8933 H   0  0  0  0  0  0  0  0  0  0  0  0
    2.4155   -3.2709   -2.7277 H   0  0  0  0  0  0  0  0  0  0  0  0
    2.1349   -2.7187   -1.1059 H   0  0  0  0  0  0  0  0  0  0  0  0
  1  2  1  0
  1 24  1  0
  1 25  1  0
  1 26  1  0
  2  7  1  0
  2  3  1  0
  3 16  1  0
  3  4  2  0
  4  5  1  0
  9  4  1  1
  5  6  2  0
  5 27  1  0
  6  7  1  0
  6 28  1  0
  7  8  2  0
  9 15  1  0
  9 17  1  0
  9 10  1  0
 10 23  1  0
 10 11  1  0
 10 29  1  1
 11 12  1  0
 11 30  1  0
 11 31  1  0
 12 13  1  0
 12 32  1  0
 12 33  1  0
 13 14  1  0
 13 34  1  0
 13 35  1  0
 14 15  1  0
 14 17  1  0
 15 16  1  0
 15 36  1  1
 16 37  1  0
 16 38  1  0
 17 18  1  0
 17 39  1  1
 18 19  1  0
 18 40  1  0
 18 41  1  0
 19 20  1  0
 19 23  1  0
 19 42  1  1
 20 21  2  0
 20 22  1  0
 23 43  1  0
 23 44  1  0
M  CHG  1  22  -1
M  END
>  <i_m_ct_stereo_status>  (350) 
1

>  <s_m_source_file>  (350) 
/var/tmp/pbs.5076255.sched01/tmpvuzdko10/1206lwnzxed.sdf

>  <i_m_source_file_index>  (350) 
36

>  <i_lp_mmshare_version>  (350) 
48012

>  <i_f3d_flags>  (350) 
0

>  <s_epik_input>  (350) 
W2NIXTFbY0hdYyg9TyluKFtDSDNdKWMoYzFbQ0BdMjM0KVtDSDJdW0NASF0zTjVbQ0BIXTRbQ0gyXVtDQEBIXShDKD1PKVtPSF0pW0NIMl1bQ0BASF0yW0NIMl1bQ0gyXVtDSDJdNQ==

>  <s_epik_cmdline>  (350) 
J2VwaWtfcHl0aG9uJywgJy1waHQnLCAnMi4wJywgJy1waCcsICc3LjAnLCAnLXRuJywgJzgnLCAnLW1hJywgJzIwMCcsICctaW1hZScsICc8aW5maWxlLm1hZT4nLCAnLW9tYWUnLCAnPG91dGZpbGUubWFlPic=

>  <r_lp_tautomer_probability>  (350) 
1

>  <r_epik_Ionization_Penalty>  (350) 
0.832786

>  <r_epik_Ionization_Penalty_Charging>  (350) 
0.00261693

>  <r_epik_Ionization_Penalty_Neutral>  (350) 
0.830169

>  <r_epik_State_Penalty>  (350) 
0.877634

>  <r_epik_Charging_Adjusted_Penalty>  (350) 
0.880251

>  <i_epik_Tot_Q>  (350) 
-1

>  <i_epik_Tot_abs_Q>  (350) 
1

>  <s_lp_Force_Field>  (350) 
OPLS3e

>  <r_lp_Energy>  (350) 
105.432

>  <b_lp_Chiralities_Consistent>  (350) 
1

>  <s_lp_Variant>  (350) 
113:0-3

>  <s_i_glide_gridfile>  (350) 
pfpi4k_grid

>  <i_i_glide_lignum>  (350) 
36

>  <i_i_glide_rotatable_bonds>  (350) 
1

>  <r_i_docking_score>  (350) 
-3.69522

>  <r_i_glide_ligand_efficiency>  (350) 
-0.160662

>  <r_i_glide_ligand_efficiency_sa>  (350) 
-0.456901

>  <r_i_glide_ligand_efficiency_ln>  (350) 
-0.893539

>  <r_i_glide_gscore>  (350) 
-3.69522

>  <r_i_glide_lipo>  (350) 
-0.508728

>  <r_i_glide_hbond>  (350) 
-0.16

>  <r_i_glide_metal>  (350) 
-0

>  <r_i_glide_rewards>  (350) 
-1.54664

>  <r_i_glide_evdw>  (350) 
-18.0116

>  <r_i_glide_ecoul>  (350) 
-3.86188

>  <r_i_glide_erotb>  (350) 
0

>  <r_i_glide_esite>  (350) 
0

>  <r_i_glide_emodel>  (350) 
-28.0615

>  <r_i_glide_energy>  (350) 
-21.8735

>  <r_i_glide_einternal>  (350) 
1.24097

>  <r_i_glide_intrahb_reward>  (350) 
-0

>  <i_i_glide_confnum>  (350) 
2

>  <i_i_glide_posenum>  (350) 
1

>  <r_i_glide_eff_state_penalty>  (350) 
0

>  <ligand_id>  (350) 
113

>  <original_smiles>  (350) 
Cn1c2c(ccc1=O)C13C4CCCN(C1C2)C3CC(C(=O)O)C4

>  <smiles>  (350) 
[H]c1c2c(n(C([H])([H])[H])c(=O)c1[H])C([H])([H])C1([H])N3C([H])([H])C([H])([H])C([H])([H])C4([H])C([H])([H])C([H])(C(=O)[O-])C([H])([H])C3([H])C214

$$$$
113:2:1
     RDKit          3D

 44 48  0  0  1  0  0  0  0  0999 V2000
    4.7020   -5.3436    4.0388 C   0  0  0  0  0  0  0  0  0  0  0  0
    3.8900   -4.3187    3.3779 N   0  0  0  0  0  0  0  0  0  0  0  0
    4.4325   -3.6602    2.2483 C   0  0  0  0  0  0  0  0  0  0  0  0
    3.7206   -2.8025    1.5087 C   0  0  0  0  0  0  0  0  0  0  0  0
    2.3699   -2.4767    1.8989 C   0  0  0  0  0  0  0  0  0  0  0  0
    1.8285   -3.1082    2.9686 C   0  0  0  0  0  0  0  0  0  0  0  0
    2.5871   -4.1042    3.7392 C   0  0  0  0  0  0  0  0  0  0  0  0
    2.0624   -4.7332    4.6638 O   0  0  0  0  0  0  0  0  0  0  0  0
    4.4890   -2.4833    0.2408 C   0  0  2  0  0  0  0  0  0  0  0  0
    4.0859   -3.5209   -0.8154 C   0  0  2  0  0  0  0  0  0  0  0  0
    5.2395   -4.1850   -1.5980 C   0  0  0  0  0  0  0  0  0  0  0  0
    6.3705   -3.2840   -2.1211 C   0  0  0  0  0  0  0  0  0  0  0  0
    7.1486   -2.5632   -1.0401 C   0  0  0  0  0  0  0  0  0  0  0  0
    6.3937   -1.7705   -0.0763 N   0  0  0  0  0  0  0  0  0  0  0  0
    5.7982   -2.4936    1.0220 C   0  0  2  0  0  0  0  0  0  0  0  0
    5.8696   -3.8332    1.7453 C   0  0  0  0  0  0  0  0  0  0  0  0
    5.0381   -1.1539   -0.2848 C   0  0  1  0  0  0  0  0  0  0  0  0
    4.6582   -0.7379   -1.7176 C   0  0  0  0  0  0  0  0  0  0  0  0
    3.4931   -1.5255   -2.3841 C   0  0  1  0  0  0  0  0  0  0  0  0
    3.7713   -1.7195   -3.8832 C   0  0  0  0  0  0  0  0  0  0  0  0
    3.9642   -2.8664   -4.3140 O   0  0  0  0  0  0  0  0  0  0  0  0
    3.8534   -0.6742   -4.5709 O   0  0  0  0  0  0  0  0  0  0  0  0
    3.0513   -2.8540   -1.7083 C   0  0  0  0  0  0  0  0  0  0  0  0
    5.0141   -6.1045    3.3206 H   0  0  0  0  0  0  0  0  0  0  0  0
    4.1952   -5.8772    4.8446 H   0  0  0  0  0  0  0  0  0  0  0  0
    5.5846   -4.8816    4.4759 H   0  0  0  0  0  0  0  0  0  0  0  0
    1.8281   -1.7058    1.3759 H   0  0  0  0  0  0  0  0  0  0  0  0
    0.8145   -2.8729    3.2695 H   0  0  0  0  0  0  0  0  0  0  0  0
    3.5625   -4.3593   -0.3352 H   0  0  0  0  0  0  0  0  0  0  0  0
    5.6553   -4.9973   -1.0031 H   0  0  0  0  0  0  0  0  0  0  0  0
    4.8103   -4.6639   -2.4671 H   0  0  0  0  0  0  0  0  0  0  0  0
    7.1026   -3.8393   -2.7174 H   0  0  0  0  0  0  0  0  0  0  0  0
    6.0072   -2.6038   -2.8754 H   0  0  0  0  0  0  0  0  0  0  0  0
    7.8019   -3.2496   -0.5026 H   0  0  0  0  0  0  0  0  0  0  0  0
    7.8315   -1.9085   -1.5689 H   0  0  0  0  0  0  0  0  0  0  0  0
    5.8233   -1.7037    1.7745 H   0  0  0  0  0  0  0  0  0  0  0  0
    6.6211   -3.9189    2.5276 H   0  0  0  0  0  0  0  0  0  0  0  0
    5.9347   -4.6778    1.0799 H   0  0  0  0  0  0  0  0  0  0  0  0
    4.9606   -0.3597    0.4742 H   0  0  0  0  0  0  0  0  0  0  0  0
    4.2259    0.2380   -1.6737 H   0  0  0  0  0  0  0  0  0  0  0  0
    5.5261   -0.5956   -2.3578 H   0  0  0  0  0  0  0  0  0  0  0  0
    2.6078   -0.8881   -2.3421 H   0  0  0  0  0  0  0  0  0  0  0  0
    2.6635   -3.5804   -2.4179 H   0  0  0  0  0  0  0  0  0  0  0  0
    2.2036   -2.6408   -1.0647 H   0  0  0  0  0  0  0  0  0  0  0  0
  1  2  1  0
  1 24  1  0
  1 25  1  0
  1 26  1  0
  2  7  1  0
  2  3  1  0
  3 16  1  0
  3  4  2  0
  4  5  1  0
  9  4  1  1
  5  6  2  0
  5 27  1  0
  6  7  1  0
  6 28  1  0
  7  8  2  0
  9 15  1  0
  9 17  1  0
  9 10  1  0
 10 23  1  0
 10 11  1  0
 10 29  1  1
 11 12  1  0
 11 30  1  0
 11 31  1  0
 12 13  1  0
 12 32  1  0
 12 33  1  0
 13 14  1  0
 13 34  1  0
 13 35  1  0
 14 15  1  0
 14 17  1  0
 15 16  1  0
 15 36  1  1
 16 37  1  0
 16 38  1  0
 17 18  1  0
 17 39  1  1
 18 19  1  0
 18 40  1  0
 18 41  1  0
 19 20  1  0
 19 23  1  0
 19 42  1  6
 20 21  2  0
 20 22  1  0
 23 43  1  0
 23 44  1  0
M  CHG  1  22  -1
M  END
>  <i_m_ct_stereo_status>  (351) 
1

>  <s_m_source_file>  (351) 
/var/tmp/pbs.5076255.sched01/tmpvuzdko10/1206lwnzxed.sdf

>  <i_m_source_file_index>  (351) 
36

>  <i_lp_mmshare_version>  (351) 
48012

>  <i_f3d_flags>  (351) 
0

>  <s_epik_input>  (351) 
W2NIXTFbY0hdYyg9TyluKFtDSDNdKWMoYzFbQ0BdMjM0KVtDSDJdW0NASF0zTjVbQ0BIXTRbQ0gyXVtDQEBIXShDKD1PKVtPSF0pW0NIMl1bQ0BASF0yW0NIMl1bQ0gyXVtDSDJdNQ==

>  <s_epik_cmdline>  (351) 
J2VwaWtfcHl0aG9uJywgJy1waHQnLCAnMi4wJywgJy1waCcsICc3LjAnLCAnLXRuJywgJzgnLCAnLW1hJywgJzIwMCcsICctaW1hZScsICc8aW5maWxlLm1hZT4nLCAnLW9tYWUnLCAnPG91dGZpbGUubWFlPic=

>  <r_lp_tautomer_probability>  (351) 
1

>  <r_epik_Ionization_Penalty>  (351) 
0.832786

>  <r_epik_Ionization_Penalty_Charging>  (351) 
0.00261693

>  <r_epik_Ionization_Penalty_Neutral>  (351) 
0.830169

>  <r_epik_State_Penalty>  (351) 
0.877634

>  <r_epik_Charging_Adjusted_Penalty>  (351) 
0.880251

>  <i_epik_Tot_Q>  (351) 
-1

>  <i_epik_Tot_abs_Q>  (351) 
1

>  <s_lp_Force_Field>  (351) 
OPLS3e

>  <r_lp_Energy>  (351) 
105.432

>  <b_lp_Chiralities_Consistent>  (351) 
1

>  <s_lp_Variant>  (351) 
113:0-3

>  <s_i_glide_gridfile>  (351) 
pfpi4k_grid

>  <i_i_glide_lignum>  (351) 
36

>  <i_i_glide_rotatable_bonds>  (351) 
1

>  <r_i_docking_score>  (351) 
-3.34259

>  <r_i_glide_ligand_efficiency>  (351) 
-0.14533

>  <r_i_glide_ligand_efficiency_sa>  (351) 
-0.413299

>  <r_i_glide_ligand_efficiency_ln>  (351) 
-0.808269

>  <r_i_glide_gscore>  (351) 
-3.34259

>  <r_i_glide_lipo>  (351) 
-0.31504

>  <r_i_glide_hbond>  (351) 
-0.172902

>  <r_i_glide_metal>  (351) 
-0

>  <r_i_glide_rewards>  (351) 
-1.40479

>  <r_i_glide_evdw>  (351) 
-19.2791

>  <r_i_glide_ecoul>  (351) 
-3.23937

>  <r_i_glide_erotb>  (351) 
0

>  <r_i_glide_esite>  (351) 
0

>  <r_i_glide_emodel>  (351) 
-28.8627

>  <r_i_glide_energy>  (351) 
-22.5184

>  <r_i_glide_einternal>  (351) 
0.308907

>  <r_i_glide_intrahb_reward>  (351) 
-0

>  <i_i_glide_confnum>  (351) 
1

>  <i_i_glide_posenum>  (351) 
26

>  <r_i_glide_eff_state_penalty>  (351) 
0

>  <ligand_id>  (351) 
113

>  <original_smiles>  (351) 
Cn1c2c(ccc1=O)C13C4CCCN(C1C2)C3CC(C(=O)O)C4

>  <smiles>  (351) 
[H]c1c2c(n(C([H])([H])[H])c(=O)c1[H])C([H])([H])C1([H])N3C([H])([H])C([H])([H])C([H])([H])C4([H])C([H])([H])C([H])(C(=O)[O-])C([H])([H])C3([H])C214

$$$$
113:2:2
     RDKit          3D

 44 48  0  0  1  0  0  0  0  0999 V2000
    4.2699   -1.0604   -0.9543 C   0  0  0  0  0  0  0  0  0  0  0  0
    4.0378   -1.7361    0.3265 N   0  0  0  0  0  0  0  0  0  0  0  0
    3.4464   -0.9966    1.3751 C   0  0  0  0  0  0  0  0  0  0  0  0
    3.0901   -1.5515    2.5410 C   0  0  0  0  0  0  0  0  0  0  0  0
    3.3786   -2.9548    2.7699 C   0  0  0  0  0  0  0  0  0  0  0  0
    3.9379   -3.6798    1.7715 C   0  0  0  0  0  0  0  0  0  0  0  0
    4.2722   -3.0787    0.4745 C   0  0  0  0  0  0  0  0  0  0  0  0
    4.7516   -3.7529   -0.4457 O   0  0  0  0  0  0  0  0  0  0  0  0
    2.2356   -0.5745    3.3223 C   0  0  2  0  0  0  0  0  0  0  0  0
    0.7733   -0.8151    2.9203 C   0  0  2  0  0  0  0  0  0  0  0  0
   -0.0752    0.4344    2.5554 C   0  0  0  0  0  0  0  0  0  0  0  0
    0.0336    1.6691    3.4540 C   0  0  0  0  0  0  0  0  0  0  0  0
    1.4365    2.2579    3.5815 C   0  0  0  0  0  0  0  0  0  0  0  0
    2.5442    1.3627    3.9077 N   0  0  0  0  0  0  0  0  0  0  0  0
    3.1055    0.5893    2.8248 C   0  0  2  0  0  0  0  0  0  0  0  0
    3.1441    0.5091    1.3108 C   0  0  0  0  0  0  0  0  0  0  0  0
    2.4676    0.0774    4.6873 C   0  0  1  0  0  0  0  0  0  0  0  0
    1.3922   -0.0580    5.7763 C   0  0  0  0  0  0  0  0  0  0  0  0
    0.2250   -1.0634    5.4586 C   0  0  1  0  0  0  0  0  0  0  0  0
   -1.1612   -0.5773    5.9373 C   0  0  0  0  0  0  0  0  0  0  0  0
   -2.1890   -1.1026    5.4725 O   0  0  0  0  0  0  0  0  0  0  0  0
   -1.2087    0.2398    6.8848 O   0  0  0  0  0  0  0  0  0  0  0  0
    0.1620   -1.6696    4.0227 C   0  0  0  0  0  0  0  0  0  0  0  0
    3.3321   -0.6548   -1.3336 H   0  0  0  0  0  0  0  0  0  0  0  0
    4.6620   -1.7076   -1.7364 H   0  0  0  0  0  0  0  0  0  0  0  0
    4.9807   -0.2492   -0.8177 H   0  0  0  0  0  0  0  0  0  0  0  0
    3.2106   -3.3914    3.7382 H   0  0  0  0  0  0  0  0  0  0  0  0
    4.1760   -4.7203    1.9435 H   0  0  0  0  0  0  0  0  0  0  0  0
    0.7374   -1.4153    2.0043 H   0  0  0  0  0  0  0  0  0  0  0  0
    0.1261    0.7524    1.5285 H   0  0  0  0  0  0  0  0  0  0  0  0
   -1.1259    0.1492    2.5517 H   0  0  0  0  0  0  0  0  0  0  0  0
   -0.6079    2.4479    3.0282 H   0  0  0  0  0  0  0  0  0  0  0  0
   -0.3932    1.4843    4.4341 H   0  0  0  0  0  0  0  0  0  0  0  0
    1.6855    2.8101    2.6732 H   0  0  0  0  0  0  0  0  0  0  0  0
    1.3872    3.0164    4.3632 H   0  0  0  0  0  0  0  0  0  0  0  0
    4.1352    0.4968    3.1835 H   0  0  0  0  0  0  0  0  0  0  0  0
    3.9283    1.0842    0.8369 H   0  0  0  0  0  0  0  0  0  0  0  0
    2.1766    0.6765    0.8693 H   0  0  0  0  0  0  0  0  0  0  0  0
    3.4808   -0.1087    5.0535 H   0  0  0  0  0  0  0  0  0  0  0  0
    1.8713   -0.4461    6.6687 H   0  0  0  0  0  0  0  0  0  0  0  0
    1.0393    0.9272    6.0661 H   0  0  0  0  0  0  0  0  0  0  0  0
    0.3934   -1.9402    6.0844 H   0  0  0  0  0  0  0  0  0  0  0  0
   -0.8441   -1.9325    3.7189 H   0  0  0  0  0  0  0  0  0  0  0  0
    0.6846   -2.6263    4.0180 H   0  0  0  0  0  0  0  0  0  0  0  0
  1  2  1  0
  1 24  1  0
  1 25  1  0
  1 26  1  0
  2  7  1  0
  2  3  1  0
  3 16  1  0
  3  4  2  0
  4  5  1  0
  9  4  1  1
  5  6  2  0
  5 27  1  0
  6  7  1  0
  6 28  1  0
  7  8  2  0
  9 15  1  0
  9 17  1  0
  9 10  1  0
 10 23  1  0
 10 11  1  0
 10 29  1  6
 11 12  1  0
 11 30  1  0
 11 31  1  0
 12 13  1  0
 12 32  1  0
 12 33  1  0
 13 14  1  0
 13 34  1  0
 13 35  1  0
 14 15  1  0
 14 17  1  0
 15 16  1  0
 15 36  1  1
 16 37  1  0
 16 38  1  0
 17 18  1  0
 17 39  1  1
 18 19  1  0
 18 40  1  0
 18 41  1  0
 19 20  1  0
 19 23  1  0
 19 42  1  1
 20 21  2  0
 20 22  1  0
 23 43  1  0
 23 44  1  0
M  CHG  1  22  -1
M  END
>  <i_m_ct_stereo_status>  (352) 
1

>  <s_m_source_file>  (352) 
/var/tmp/pbs.5076255.sched01/tmpvuzdko10/1206lwnzxed.sdf

>  <i_m_source_file_index>  (352) 
36

>  <i_lp_mmshare_version>  (352) 
48012

>  <i_f3d_flags>  (352) 
0

>  <s_epik_input>  (352) 
W2NIXTFbY0hdYyg9TyluKFtDSDNdKWMoYzFbQ0BdMjM0KVtDSDJdW0NASF0zTjVbQ0BIXTRbQ0gyXVtDQEBIXShDKD1PKVtPSF0pW0NIMl1bQ0BASF0yW0NIMl1bQ0gyXVtDSDJdNQ==

>  <s_epik_cmdline>  (352) 
J2VwaWtfcHl0aG9uJywgJy1waHQnLCAnMi4wJywgJy1waCcsICc3LjAnLCAnLXRuJywgJzgnLCAnLW1hJywgJzIwMCcsICctaW1hZScsICc8aW5maWxlLm1hZT4nLCAnLW9tYWUnLCAnPG91dGZpbGUubWFlPic=

>  <r_lp_tautomer_probability>  (352) 
1

>  <r_epik_Ionization_Penalty>  (352) 
0.832786

>  <r_epik_Ionization_Penalty_Charging>  (352) 
0.00261693

>  <r_epik_Ionization_Penalty_Neutral>  (352) 
0.830169

>  <r_epik_State_Penalty>  (352) 
0.877634

>  <r_epik_Charging_Adjusted_Penalty>  (352) 
0.880251

>  <i_epik_Tot_Q>  (352) 
-1

>  <i_epik_Tot_abs_Q>  (352) 
1

>  <s_lp_Force_Field>  (352) 
OPLS3e

>  <r_lp_Energy>  (352) 
105.432

>  <b_lp_Chiralities_Consistent>  (352) 
1

>  <s_lp_Variant>  (352) 
113:0-3

>  <s_i_glide_gridfile>  (352) 
pfpi4k_grid

>  <i_i_glide_lignum>  (352) 
36

>  <i_i_glide_rotatable_bonds>  (352) 
1

>  <r_i_docking_score>  (352) 
-3.2078

>  <r_i_glide_ligand_efficiency>  (352) 
-0.13947

>  <r_i_glide_ligand_efficiency_sa>  (352) 
-0.396633

>  <r_i_glide_ligand_efficiency_ln>  (352) 
-0.775675

>  <r_i_glide_gscore>  (352) 
-3.2078

>  <r_i_glide_lipo>  (352) 
-0.21072

>  <r_i_glide_hbond>  (352) 
-0.185236

>  <r_i_glide_metal>  (352) 
-0

>  <r_i_glide_rewards>  (352) 
-1.27247

>  <r_i_glide_evdw>  (352) 
-17.5368

>  <r_i_glide_ecoul>  (352) 
-3.78893

>  <r_i_glide_erotb>  (352) 
0

>  <r_i_glide_esite>  (352) 
-0.0941921

>  <r_i_glide_emodel>  (352) 
-27.5845

>  <r_i_glide_energy>  (352) 
-21.3258

>  <r_i_glide_einternal>  (352) 
0.442508

>  <r_i_glide_intrahb_reward>  (352) 
-0

>  <i_i_glide_confnum>  (352) 
1

>  <i_i_glide_posenum>  (352) 
24

>  <r_i_glide_eff_state_penalty>  (352) 
0

>  <ligand_id>  (352) 
113

>  <original_smiles>  (352) 
Cn1c2c(ccc1=O)C13C4CCCN(C1C2)C3CC(C(=O)O)C4

>  <smiles>  (352) 
[H]c1c2c(n(C([H])([H])[H])c(=O)c1[H])C([H])([H])C1([H])N3C([H])([H])C([H])([H])C([H])([H])C4([H])C([H])([H])C([H])(C(=O)[O-])C([H])([H])C3([H])C214

$$$$
113:3:0
     RDKit          3D

 44 48  0  0  1  0  0  0  0  0999 V2000
    8.8473   -3.7849    0.5987 C   0  0  0  0  0  0  0  0  0  0  0  0
    7.4466   -4.0030    0.2405 N   0  0  0  0  0  0  0  0  0  0  0  0
    6.7471   -5.0159    0.9277 C   0  0  0  0  0  0  0  0  0  0  0  0
    5.4351   -5.2395    0.7257 C   0  0  0  0  0  0  0  0  0  0  0  0
    4.7338   -4.4674   -0.2751 C   0  0  0  0  0  0  0  0  0  0  0  0
    5.3931   -3.4889   -0.9316 C   0  0  0  0  0  0  0  0  0  0  0  0
    6.8045   -3.1875   -0.6652 C   0  0  0  0  0  0  0  0  0  0  0  0
    7.3805   -2.2490   -1.2242 O   0  0  0  0  0  0  0  0  0  0  0  0
    4.9157   -6.2057    1.7729 C   0  0  2  0  0  0  0  0  0  0  0  0
    4.2253   -5.4970    2.9628 C   0  0  1  0  0  0  0  0  0  0  0  0
    5.0992   -5.0854    4.1424 C   0  0  0  0  0  0  0  0  0  0  0  0
    5.7961   -6.3642    4.7157 C   0  0  0  0  0  0  0  0  0  0  0  0
    5.4830   -7.7681    4.0649 C   0  0  0  0  0  0  0  0  0  0  0  0
    5.4886   -7.9492    2.5886 N   0  0  0  0  0  0  0  0  0  0  0  0
    6.2438   -6.9771    1.8233 C   0  0  2  0  0  0  0  0  0  0  0  0
    7.3793   -5.9663    1.9535 C   0  0  0  0  0  0  0  0  0  0  0  0
    4.3328   -7.5899    1.6355 C   0  0  1  0  0  0  0  0  0  0  0  0
    2.8108   -7.6414    1.9713 C   0  0  0  0  0  0  0  0  0  0  0  0
    2.1317   -6.2143    1.8320 C   0  0  1  0  0  0  0  0  0  0  0  0
    0.6522   -6.3037    2.2235 C   0  0  0  0  0  0  0  0  0  0  0  0
    0.3765   -6.3770    3.4404 O   0  0  0  0  0  0  0  0  0  0  0  0
   -0.1904   -6.2641    1.3001 O   0  0  0  0  0  0  0  0  0  0  0  0
    2.8412   -5.0111    2.5854 C   0  0  0  0  0  0  0  0  0  0  0  0
    8.9289   -3.6071    1.6722 H   0  0  0  0  0  0  0  0  0  0  0  0
    9.3078   -2.9322    0.0995 H   0  0  0  0  0  0  0  0  0  0  0  0
    9.4180   -4.6722    0.3589 H   0  0  0  0  0  0  0  0  0  0  0  0
    3.7119   -4.7131   -0.5300 H   0  0  0  0  0  0  0  0  0  0  0  0
    4.8695   -2.9392   -1.6986 H   0  0  0  0  0  0  0  0  0  0  0  0
    3.7501   -6.2267    3.6002 H   0  0  0  0  0  0  0  0  0  0  0  0
    5.8195   -4.3238    3.8523 H   0  0  0  0  0  0  0  0  0  0  0  0
    4.4739   -4.6497    4.9161 H   0  0  0  0  0  0  0  0  0  0  0  0
    6.8719   -6.2142    4.7803 H   0  0  0  0  0  0  0  0  0  0  0  0
    5.5002   -6.4491    5.7638 H   0  0  0  0  0  0  0  0  0  0  0  0
    6.2640   -8.4393    4.4273 H   0  0  0  0  0  0  0  0  0  0  0  0
    4.5569   -8.1827    4.4737 H   0  0  0  0  0  0  0  0  0  0  0  0
    6.4523   -7.5247    0.8918 H   0  0  0  0  0  0  0  0  0  0  0  0
    8.3498   -6.3625    1.6600 H   0  0  0  0  0  0  0  0  0  0  0  0
    7.4664   -5.4662    2.8978 H   0  0  0  0  0  0  0  0  0  0  0  0
    4.5410   -8.0375    0.6672 H   0  0  0  0  0  0  0  0  0  0  0  0
    2.2981   -8.3338    1.2962 H   0  0  0  0  0  0  0  0  0  0  0  0
    2.6417   -8.0417    2.9680 H   0  0  0  0  0  0  0  0  0  0  0  0
    2.1629   -5.9709    0.7671 H   0  0  0  0  0  0  0  0  0  0  0  0
    2.2962   -4.6667    3.4661 H   0  0  0  0  0  0  0  0  0  0  0  0
    2.9316   -4.1592    1.9242 H   0  0  0  0  0  0  0  0  0  0  0  0
  1  2  1  0
  1 24  1  0
  1 25  1  0
  1 26  1  0
  2  7  1  0
  2  3  1  0
  3 16  1  0
  3  4  2  0
  4  5  1  0
  9  4  1  6
  5  6  2  0
  5 27  1  0
  6  7  1  0
  6 28  1  0
  7  8  2  0
  9 15  1  0
  9 17  1  0
  9 10  1  0
 10 23  1  0
 10 11  1  0
 10 29  1  1
 11 12  1  0
 11 30  1  0
 11 31  1  0
 12 13  1  0
 12 32  1  0
 12 33  1  0
 13 14  1  0
 13 34  1  0
 13 35  1  0
 14 15  1  0
 14 17  1  0
 15 16  1  0
 15 36  1  6
 16 37  1  0
 16 38  1  0
 17 18  1  0
 17 39  1  6
 18 19  1  0
 18 40  1  0
 18 41  1  0
 19 20  1  0
 19 23  1  0
 19 42  1  6
 20 21  2  0
 20 22  1  0
 23 43  1  0
 23 44  1  0
M  CHG  1  22  -1
M  END
>  <i_m_ct_stereo_status>  (353) 
1

>  <s_m_source_file>  (353) 
/var/tmp/pbs.5076255.sched01/tmpvuzdko10/1206lwnzxed.sdf

>  <i_m_source_file_index>  (353) 
37

>  <i_lp_mmshare_version>  (353) 
48012

>  <i_f3d_flags>  (353) 
0

>  <s_epik_input>  (353) 
W2NIXTFbY0hdYyg9TyluKFtDSDNdKWMoYzFbQ0BdMjM0KVtDSDJdW0NASF0zTjVbQ0BIXTRbQ0gyXVtDQEBIXShDKD1PKVtPSF0pW0NIMl1bQ0BASF0yW0NIMl1bQ0gyXVtDSDJdNQ==

>  <s_epik_cmdline>  (353) 
J2VwaWtfcHl0aG9uJywgJy1waHQnLCAnMi4wJywgJy1waCcsICc3LjAnLCAnLXRuJywgJzgnLCAnLW1hJywgJzIwMCcsICctaW1hZScsICc8aW5maWxlLm1hZT4nLCAnLW9tYWUnLCAnPG91dGZpbGUubWFlPic=

>  <r_lp_tautomer_probability>  (353) 
1

>  <r_epik_Ionization_Penalty>  (353) 
0.832786

>  <r_epik_Ionization_Penalty_Charging>  (353) 
0.00261693

>  <r_epik_Ionization_Penalty_Neutral>  (353) 
0.830169

>  <r_epik_State_Penalty>  (353) 
0.877634

>  <r_epik_Charging_Adjusted_Penalty>  (353) 
0.880251

>  <i_epik_Tot_Q>  (353) 
-1

>  <i_epik_Tot_abs_Q>  (353) 
1

>  <s_lp_Force_Field>  (353) 
OPLS3e

>  <r_lp_Energy>  (353) 
144.322

>  <b_lp_Chiralities_Consistent>  (353) 
1

>  <s_lp_Variant>  (353) 
113:0-4

>  <s_i_glide_gridfile>  (353) 
pfpi4k_grid

>  <i_i_glide_lignum>  (353) 
37

>  <i_i_glide_rotatable_bonds>  (353) 
1

>  <r_i_docking_score>  (353) 
-4.50142

>  <r_i_glide_ligand_efficiency>  (353) 
-0.195714

>  <r_i_glide_ligand_efficiency_sa>  (353) 
-0.556585

>  <r_i_glide_ligand_efficiency_ln>  (353) 
-1.08848

>  <r_i_glide_gscore>  (353) 
-4.50142

>  <r_i_glide_lipo>  (353) 
-0.615862

>  <r_i_glide_hbond>  (353) 
-0.533858

>  <r_i_glide_metal>  (353) 
-0

>  <r_i_glide_rewards>  (353) 
-1.47888

>  <r_i_glide_evdw>  (353) 
-17.4056

>  <r_i_glide_ecoul>  (353) 
-6.11914

>  <r_i_glide_erotb>  (353) 
0

>  <r_i_glide_esite>  (353) 
-0.0846655

>  <r_i_glide_emodel>  (353) 
-32.6579

>  <r_i_glide_energy>  (353) 
-23.5248

>  <r_i_glide_einternal>  (353) 
1.19213

>  <r_i_glide_intrahb_reward>  (353) 
-0

>  <i_i_glide_confnum>  (353) 
2

>  <i_i_glide_posenum>  (353) 
30

>  <r_i_glide_eff_state_penalty>  (353) 
0

>  <ligand_id>  (353) 
113

>  <original_smiles>  (353) 
Cn1c2c(ccc1=O)C13C4CCCN(C1C2)C3CC(C(=O)O)C4

>  <smiles>  (353) 
[H]c1c2c(n(C([H])([H])[H])c(=O)c1[H])C([H])([H])C1([H])N3C([H])([H])C([H])([H])C([H])([H])C4([H])C([H])([H])C([H])(C(=O)[O-])C([H])([H])C3([H])C214

$$$$
113:3:1
     RDKit          3D

 44 48  0  0  1  0  0  0  0  0999 V2000
    7.7826   -3.0134   -0.1836 C   0  0  0  0  0  0  0  0  0  0  0  0
    6.3527   -3.3282   -0.2476 N   0  0  0  0  0  0  0  0  0  0  0  0
    5.8953   -4.4449    0.4837 C   0  0  0  0  0  0  0  0  0  0  0  0
    4.5951   -4.7498    0.5842 C   0  0  0  0  0  0  0  0  0  0  0  0
    3.6228   -3.9574   -0.1457 C   0  0  0  0  0  0  0  0  0  0  0  0
    4.0451   -2.8804   -0.8412 C   0  0  0  0  0  0  0  0  0  0  0  0
    5.4638   -2.5012   -0.8921 C   0  0  0  0  0  0  0  0  0  0  0  0
    5.8382   -1.4848   -1.4855 O   0  0  0  0  0  0  0  0  0  0  0  0
    4.3949   -5.8405    1.6107 C   0  0  2  0  0  0  0  0  0  0  0  0
    3.9734   -5.2982    2.9897 C   0  0  1  0  0  0  0  0  0  0  0  0
    5.0806   -4.9293    3.9631 C   0  0  0  0  0  0  0  0  0  0  0  0
    5.9679   -6.1924    4.2263 C   0  0  0  0  0  0  0  0  0  0  0  0
    5.5928   -7.5532    3.5185 C   0  0  0  0  0  0  0  0  0  0  0  0
    5.2471   -7.5996    2.0737 N   0  0  0  0  0  0  0  0  0  0  0  0
    5.7390   -6.4967    1.2720 C   0  0  2  0  0  0  0  0  0  0  0  0
    6.8202   -5.4224    1.2281 C   0  0  0  0  0  0  0  0  0  0  0  0
    3.8809   -7.2508    1.4604 C   0  0  1  0  0  0  0  0  0  0  0  0
    2.4947   -7.4620    2.1352 C   0  0  0  0  0  0  0  0  0  0  0  0
    1.7171   -6.0905    2.3216 C   0  0  1  0  0  0  0  0  0  0  0  0
    0.3958   -6.3629    3.0470 C   0  0  0  0  0  0  0  0  0  0  0  0
    0.3505   -6.2231    4.2819 O   0  0  0  0  0  0  0  0  0  0  0  0
   -0.5901   -6.6551    2.3170 O   0  0  0  0  0  0  0  0  0  0  0  0
    2.5160   -4.8984    3.0000 C   0  0  0  0  0  0  0  0  0  0  0  0
    8.0939   -2.9027    0.8566 H   0  0  0  0  0  0  0  0  0  0  0  0
    8.0609   -2.0914   -0.6873 H   0  0  0  0  0  0  0  0  0  0  0  0
    8.3586   -3.8161   -0.6422 H   0  0  0  0  0  0  0  0  0  0  0  0
    2.5907   -4.2640   -0.1822 H   0  0  0  0  0  0  0  0  0  0  0  0
    3.3205   -2.2999   -1.3952 H   0  0  0  0  0  0  0  0  0  0  0  0
    3.7129   -6.1202    3.6370 H   0  0  0  0  0  0  0  0  0  0  0  0
    5.6707   -4.0889    3.6002 H   0  0  0  0  0  0  0  0  0  0  0  0
    4.6362   -4.6208    4.9055 H   0  0  0  0  0  0  0  0  0  0  0  0
    7.0168   -5.9589    4.0548 H   0  0  0  0  0  0  0  0  0  0  0  0
    5.9388   -6.3936    5.2996 H   0  0  0  0  0  0  0  0  0  0  0  0
    6.4771   -8.1869    3.6198 H   0  0  0  0  0  0  0  0  0  0  0  0
    4.8214   -8.0769    4.0871 H   0  0  0  0  0  0  0  0  0  0  0  0
    5.7286   -6.9246    0.2700 H   0  0  0  0  0  0  0  0  0  0  0  0
    7.7122   -5.7092    0.6735 H   0  0  0  0  0  0  0  0  0  0  0  0
    7.0934   -5.0024    2.1765 H   0  0  0  0  0  0  0  0  0  0  0  0
    3.8876   -7.6049    0.4288 H   0  0  0  0  0  0  0  0  0  0  0  0
    1.8758   -8.1265    1.5296 H   0  0  0  0  0  0  0  0  0  0  0  0
    2.5852   -7.9690    3.0951 H   0  0  0  0  0  0  0  0  0  0  0  0
    1.4583   -5.7557    1.3148 H   0  0  0  0  0  0  0  0  0  0  0  0
    2.2034   -4.6573    4.0171 H   0  0  0  0  0  0  0  0  0  0  0  0
    2.4000   -3.9942    2.4176 H   0  0  0  0  0  0  0  0  0  0  0  0
  1  2  1  0
  1 24  1  0
  1 25  1  0
  1 26  1  0
  2  7  1  0
  2  3  1  0
  3 16  1  0
  3  4  2  0
  4  5  1  0
  9  4  1  6
  5  6  2  0
  5 27  1  0
  6  7  1  0
  6 28  1  0
  7  8  2  0
  9 15  1  0
  9 17  1  0
  9 10  1  0
 10 23  1  0
 10 11  1  0
 10 29  1  1
 11 12  1  0
 11 30  1  0
 11 31  1  0
 12 13  1  0
 12 32  1  0
 12 33  1  0
 13 14  1  0
 13 34  1  0
 13 35  1  0
 14 15  1  0
 14 17  1  0
 15 16  1  0
 15 36  1  6
 16 37  1  0
 16 38  1  0
 17 18  1  0
 17 39  1  6
 18 19  1  0
 18 40  1  0
 18 41  1  0
 19 20  1  0
 19 23  1  0
 19 42  1  6
 20 21  2  0
 20 22  1  0
 23 43  1  0
 23 44  1  0
M  CHG  1  22  -1
M  END
>  <i_m_ct_stereo_status>  (354) 
1

>  <s_m_source_file>  (354) 
/var/tmp/pbs.5076255.sched01/tmpvuzdko10/1206lwnzxed.sdf

>  <i_m_source_file_index>  (354) 
37

>  <i_lp_mmshare_version>  (354) 
48012

>  <i_f3d_flags>  (354) 
0

>  <s_epik_input>  (354) 
W2NIXTFbY0hdYyg9TyluKFtDSDNdKWMoYzFbQ0BdMjM0KVtDSDJdW0NASF0zTjVbQ0BIXTRbQ0gyXVtDQEBIXShDKD1PKVtPSF0pW0NIMl1bQ0BASF0yW0NIMl1bQ0gyXVtDSDJdNQ==

>  <s_epik_cmdline>  (354) 
J2VwaWtfcHl0aG9uJywgJy1waHQnLCAnMi4wJywgJy1waCcsICc3LjAnLCAnLXRuJywgJzgnLCAnLW1hJywgJzIwMCcsICctaW1hZScsICc8aW5maWxlLm1hZT4nLCAnLW9tYWUnLCAnPG91dGZpbGUubWFlPic=

>  <r_lp_tautomer_probability>  (354) 
1

>  <r_epik_Ionization_Penalty>  (354) 
0.832786

>  <r_epik_Ionization_Penalty_Charging>  (354) 
0.00261693

>  <r_epik_Ionization_Penalty_Neutral>  (354) 
0.830169

>  <r_epik_State_Penalty>  (354) 
0.877634

>  <r_epik_Charging_Adjusted_Penalty>  (354) 
0.880251

>  <i_epik_Tot_Q>  (354) 
-1

>  <i_epik_Tot_abs_Q>  (354) 
1

>  <s_lp_Force_Field>  (354) 
OPLS3e

>  <r_lp_Energy>  (354) 
144.322

>  <b_lp_Chiralities_Consistent>  (354) 
1

>  <s_lp_Variant>  (354) 
113:0-4

>  <s_i_glide_gridfile>  (354) 
pfpi4k_grid

>  <i_i_glide_lignum>  (354) 
37

>  <i_i_glide_rotatable_bonds>  (354) 
1

>  <r_i_docking_score>  (354) 
-3.71155

>  <r_i_glide_ligand_efficiency>  (354) 
-0.161372

>  <r_i_glide_ligand_efficiency_sa>  (354) 
-0.45892

>  <r_i_glide_ligand_efficiency_ln>  (354) 
-0.897487

>  <r_i_glide_gscore>  (354) 
-3.71155

>  <r_i_glide_lipo>  (354) 
-0.575103

>  <r_i_glide_hbond>  (354) 
-0.281126

>  <r_i_glide_metal>  (354) 
-0

>  <r_i_glide_rewards>  (354) 
-1.40603

>  <r_i_glide_evdw>  (354) 
-17.9216

>  <r_i_glide_ecoul>  (354) 
-3.23471

>  <r_i_glide_erotb>  (354) 
0

>  <r_i_glide_esite>  (354) 
-0.068006

>  <r_i_glide_emodel>  (354) 
-28.5696

>  <r_i_glide_energy>  (354) 
-21.1564

>  <r_i_glide_einternal>  (354) 
0.905582

>  <r_i_glide_intrahb_reward>  (354) 
-0

>  <i_i_glide_confnum>  (354) 
2

>  <i_i_glide_posenum>  (354) 
1

>  <r_i_glide_eff_state_penalty>  (354) 
0

>  <ligand_id>  (354) 
113

>  <original_smiles>  (354) 
Cn1c2c(ccc1=O)C13C4CCCN(C1C2)C3CC(C(=O)O)C4

>  <smiles>  (354) 
[H]c1c2c(n(C([H])([H])[H])c(=O)c1[H])C([H])([H])C1([H])N3C([H])([H])C([H])([H])C([H])([H])C4([H])C([H])([H])C([H])(C(=O)[O-])C([H])([H])C3([H])C214

$$$$
113:3:2
     RDKit          3D

 44 48  0  0  1  0  0  0  0  0999 V2000
    4.4209   -1.4473   -0.7609 C   0  0  0  0  0  0  0  0  0  0  0  0
    3.9088   -2.1381    0.4281 N   0  0  0  0  0  0  0  0  0  0  0  0
    3.5056   -1.3475    1.5197 C   0  0  0  0  0  0  0  0  0  0  0  0
    2.9397   -1.8753    2.6153 C   0  0  0  0  0  0  0  0  0  0  0  0
    2.7855   -3.3114    2.7094 C   0  0  0  0  0  0  0  0  0  0  0  0
    3.1609   -4.0777    1.6663 C   0  0  0  0  0  0  0  0  0  0  0  0
    3.7377   -3.4919    0.4371 C   0  0  0  0  0  0  0  0  0  0  0  0
    4.0521   -4.2051   -0.5165 O   0  0  0  0  0  0  0  0  0  0  0  0
    2.4102   -0.7683    3.4955 C   0  0  2  0  0  0  0  0  0  0  0  0
    0.8994   -0.5143    3.3021 C   0  0  1  0  0  0  0  0  0  0  0  0
    0.4818    0.4862    2.2391 C   0  0  0  0  0  0  0  0  0  0  0  0
    1.1392    1.8681    2.5652 C   0  0  0  0  0  0  0  0  0  0  0  0
    2.0223    2.0070    3.8665 C   0  0  0  0  0  0  0  0  0  0  0  0
    3.0513    0.9896    4.2145 N   0  0  0  0  0  0  0  0  0  0  0  0
    3.5529    0.1810    3.1156 C   0  0  2  0  0  0  0  0  0  0  0  0
    3.6834    0.1708    1.5964 C   0  0  0  0  0  0  0  0  0  0  0  0
    2.7826   -0.3649    4.8947 C   0  0  1  0  0  0  0  0  0  0  0  0
    1.6654   -0.6671    5.9364 C   0  0  0  0  0  0  0  0  0  0  0  0
    0.6433   -1.7834    5.4306 C   0  0  1  0  0  0  0  0  0  0  0  0
   -0.4792   -2.0028    6.4676 C   0  0  0  0  0  0  0  0  0  0  0  0
   -1.6440   -2.2492    6.0612 O   0  0  0  0  0  0  0  0  0  0  0  0
   -0.1799   -1.8780    7.6745 O   0  0  0  0  0  0  0  0  0  0  0  0
    0.0749   -1.5979    3.9633 C   0  0  0  0  0  0  0  0  0  0  0  0
    3.6829   -0.7258   -1.1111 H   0  0  0  0  0  0  0  0  0  0  0  0
    4.6271   -2.1094   -1.6004 H   0  0  0  0  0  0  0  0  0  0  0  0
    5.3448   -0.9222   -0.5215 H   0  0  0  0  0  0  0  0  0  0  0  0
    2.4324   -3.7595    3.6278 H   0  0  0  0  0  0  0  0  0  0  0  0
    3.0799   -5.1504    1.7448 H   0  0  0  0  0  0  0  0  0  0  0  0
    0.5428    0.1710    4.0536 H   0  0  0  0  0  0  0  0  0  0  0  0
    0.7657    0.1391    1.2515 H   0  0  0  0  0  0  0  0  0  0  0  0
   -0.5996    0.6000    2.2437 H   0  0  0  0  0  0  0  0  0  0  0  0
    1.6819    2.2426    1.6974 H   0  0  0  0  0  0  0  0  0  0  0  0
    0.3272    2.5913    2.6693 H   0  0  0  0  0  0  0  0  0  0  0  0
    2.5800    2.9347    3.7391 H   0  0  0  0  0  0  0  0  0  0  0  0
    1.3875    2.1796    4.7379 H   0  0  0  0  0  0  0  0  0  0  0  0
    4.5268   -0.1555    3.4886 H   0  0  0  0  0  0  0  0  0  0  0  0
    4.6462    0.5256    1.2298 H   0  0  0  0  0  0  0  0  0  0  0  0
    2.8940    0.6511    1.0415 H   0  0  0  0  0  0  0  0  0  0  0  0
    3.7400   -0.7804    5.2115 H   0  0  0  0  0  0  0  0  0  0  0  0
    2.1192   -0.9983    6.8719 H   0  0  0  0  0  0  0  0  0  0  0  0
    1.1182    0.2351    6.1913 H   0  0  0  0  0  0  0  0  0  0  0  0
    1.2064   -2.7180    5.4243 H   0  0  0  0  0  0  0  0  0  0  0  0
   -0.9732   -1.2958    3.9343 H   0  0  0  0  0  0  0  0  0  0  0  0
    0.1683   -2.5214    3.3997 H   0  0  0  0  0  0  0  0  0  0  0  0
  1  2  1  0
  1 24  1  0
  1 25  1  0
  1 26  1  0
  2  7  1  0
  2  3  1  0
  3 16  1  0
  3  4  2  0
  4  5  1  0
  9  4  1  1
  5  6  2  0
  5 27  1  0
  6  7  1  0
  6 28  1  0
  7  8  2  0
  9 15  1  0
  9 17  1  0
  9 10  1  0
 10 23  1  0
 10 11  1  0
 10 29  1  1
 11 12  1  0
 11 30  1  0
 11 31  1  0
 12 13  1  0
 12 32  1  0
 12 33  1  0
 13 14  1  0
 13 34  1  0
 13 35  1  0
 14 15  1  0
 14 17  1  0
 15 16  1  0
 15 36  1  1
 16 37  1  0
 16 38  1  0
 17 18  1  0
 17 39  1  1
 18 19  1  0
 18 40  1  0
 18 41  1  0
 19 20  1  0
 19 23  1  0
 19 42  1  6
 20 21  2  0
 20 22  1  0
 23 43  1  0
 23 44  1  0
M  CHG  1  22  -1
M  END
>  <i_m_ct_stereo_status>  (355) 
1

>  <s_m_source_file>  (355) 
/var/tmp/pbs.5076255.sched01/tmpvuzdko10/1206lwnzxed.sdf

>  <i_m_source_file_index>  (355) 
37

>  <i_lp_mmshare_version>  (355) 
48012

>  <i_f3d_flags>  (355) 
0

>  <s_epik_input>  (355) 
W2NIXTFbY0hdYyg9TyluKFtDSDNdKWMoYzFbQ0BdMjM0KVtDSDJdW0NASF0zTjVbQ0BIXTRbQ0gyXVtDQEBIXShDKD1PKVtPSF0pW0NIMl1bQ0BASF0yW0NIMl1bQ0gyXVtDSDJdNQ==

>  <s_epik_cmdline>  (355) 
J2VwaWtfcHl0aG9uJywgJy1waHQnLCAnMi4wJywgJy1waCcsICc3LjAnLCAnLXRuJywgJzgnLCAnLW1hJywgJzIwMCcsICctaW1hZScsICc8aW5maWxlLm1hZT4nLCAnLW9tYWUnLCAnPG91dGZpbGUubWFlPic=

>  <r_lp_tautomer_probability>  (355) 
1

>  <r_epik_Ionization_Penalty>  (355) 
0.832786

>  <r_epik_Ionization_Penalty_Charging>  (355) 
0.00261693

>  <r_epik_Ionization_Penalty_Neutral>  (355) 
0.830169

>  <r_epik_State_Penalty>  (355) 
0.877634

>  <r_epik_Charging_Adjusted_Penalty>  (355) 
0.880251

>  <i_epik_Tot_Q>  (355) 
-1

>  <i_epik_Tot_abs_Q>  (355) 
1

>  <s_lp_Force_Field>  (355) 
OPLS3e

>  <r_lp_Energy>  (355) 
144.322

>  <b_lp_Chiralities_Consistent>  (355) 
1

>  <s_lp_Variant>  (355) 
113:0-4

>  <s_i_glide_gridfile>  (355) 
pfpi4k_grid

>  <i_i_glide_lignum>  (355) 
37

>  <i_i_glide_rotatable_bonds>  (355) 
1

>  <r_i_docking_score>  (355) 
-2.69905

>  <r_i_glide_ligand_efficiency>  (355) 
-0.11735

>  <r_i_glide_ligand_efficiency_sa>  (355) 
-0.333727

>  <r_i_glide_ligand_efficiency_ln>  (355) 
-0.652654

>  <r_i_glide_gscore>  (355) 
-2.69905

>  <r_i_glide_lipo>  (355) 
-0.0371722

>  <r_i_glide_hbond>  (355) 
-0.0865474

>  <r_i_glide_metal>  (355) 
-0

>  <r_i_glide_rewards>  (355) 
-1.27247

>  <r_i_glide_evdw>  (355) 
-17.5645

>  <r_i_glide_ecoul>  (355) 
-2.3645

>  <r_i_glide_erotb>  (355) 
0

>  <r_i_glide_esite>  (355) 
-0.0699532

>  <r_i_glide_emodel>  (355) 
-25.2739

>  <r_i_glide_energy>  (355) 
-19.929

>  <r_i_glide_einternal>  (355) 
0.507666

>  <r_i_glide_intrahb_reward>  (355) 
-0

>  <i_i_glide_confnum>  (355) 
2

>  <i_i_glide_posenum>  (355) 
38

>  <r_i_glide_eff_state_penalty>  (355) 
0

>  <ligand_id>  (355) 
113

>  <original_smiles>  (355) 
Cn1c2c(ccc1=O)C13C4CCCN(C1C2)C3CC(C(=O)O)C4

>  <smiles>  (355) 
[H]c1c2c(n(C([H])([H])[H])c(=O)c1[H])C([H])([H])C1([H])N3C([H])([H])C([H])([H])C([H])([H])C4([H])C([H])([H])C([H])(C(=O)[O-])C([H])([H])C3([H])C214

$$$$
114:0:0
     RDKit          3D

 61 65  0  0  1  0  0  0  0  0999 V2000
    2.6617   -8.2698    2.7499 C   0  0  0  0  0  0  0  0  0  0  0  0
    2.9048   -7.1924    1.6981 C   0  0  0  0  0  0  0  0  0  0  0  0
    2.0397   -6.9351    0.8856 O   0  0  0  0  0  0  0  0  0  0  0  0
    4.1281   -6.5886    1.8463 O   0  0  0  0  0  0  0  0  0  0  0  0
    4.7244   -5.7630    0.8386 C   0  0  2  0  0  0  0  0  0  0  0  0
    6.1380   -5.4369    1.2609 C   0  0  0  0  0  0  0  0  0  0  0  0
    7.2147   -6.5044    1.4283 C   0  0  0  0  0  0  0  0  0  0  0  0
    6.3347   -4.1367    1.4940 C   0  0  0  0  0  0  0  0  0  0  0  0
    5.1269   -3.2490    1.2958 C   0  0  2  0  0  0  0  0  0  0  0  0
    5.5488   -2.0707    0.3655 C   0  0  0  0  0  0  0  0  0  0  0  0
    4.3720   -1.4708   -0.3612 C   0  0  0  0  0  0  0  0  0  0  0  0
    3.4425   -0.8251    0.3782 C   0  0  0  0  0  0  0  0  0  0  0  0
    3.5784   -0.4162    1.8067 C   0  0  0  0  0  0  0  0  0  0  0  0
    3.6763   -1.4981    2.9113 C   0  0  1  0  0  0  0  0  0  0  0  0
    4.0125   -0.6970    4.1851 C   0  0  0  0  0  0  0  0  0  0  0  0
    2.3894   -2.2346    3.2483 C   0  0  0  0  0  0  0  0  0  0  0  0
    1.2606   -1.8556    2.9475 O   0  0  0  0  0  0  0  0  0  0  0  0
    2.6786   -3.5333    3.9814 C   0  0  0  0  0  0  0  0  0  0  0  0
    4.2017   -3.7342    3.7759 C   0  0  0  0  0  0  0  0  0  0  0  0
    4.6989   -2.6797    2.7344 C   0  0  1  0  0  0  0  0  0  0  0  0
    4.2903   -1.6611   -1.8863 C   0  0  0  0  0  0  0  0  0  0  0  0
    2.8695   -1.7230   -2.4744 C   0  0  0  0  0  0  0  0  0  0  0  0
    4.8072   -0.4289   -2.5399 C   0  0  0  0  0  0  0  0  0  0  0  0
    5.1500   -2.8236   -2.3450 C   0  0  2  0  0  0  0  0  0  0  0  0
    4.5782   -3.9597   -3.1405 C   0  0  0  0  0  0  0  0  0  0  0  0
    4.9748   -4.1654   -1.6984 C   0  0  2  0  0  0  0  0  0  0  0  0
    3.9090   -4.1377   -0.7610 O   0  0  0  0  0  0  0  0  0  0  0  0
    4.0890   -4.3042    0.6219 C   0  0  1  0  0  0  0  0  0  0  0  0
    2.7929   -4.1417    1.1243 O   0  0  0  0  0  0  0  0  0  0  0  0
    2.8203   -7.8868    3.7577 H   0  0  0  0  0  0  0  0  0  0  0  0
    3.3130   -9.1202    2.5517 H   0  0  0  0  0  0  0  0  0  0  0  0
    1.6250   -8.5918    2.6472 H   0  0  0  0  0  0  0  0  0  0  0  0
    4.7823   -6.3106   -0.1020 H   0  0  0  0  0  0  0  0  0  0  0  0
    6.9137   -7.2508    2.1628 H   0  0  0  0  0  0  0  0  0  0  0  0
    8.1711   -6.0902    1.7608 H   0  0  0  0  0  0  0  0  0  0  0  0
    7.4031   -7.0100    0.4856 H   0  0  0  0  0  0  0  0  0  0  0  0
    7.2813   -3.7281    1.7882 H   0  0  0  0  0  0  0  0  0  0  0  0
    6.0330   -1.2953    0.9590 H   0  0  0  0  0  0  0  0  0  0  0  0
    6.3546   -2.3812   -0.3019 H   0  0  0  0  0  0  0  0  0  0  0  0
    2.6164   -0.3864   -0.1274 H   0  0  0  0  0  0  0  0  0  0  0  0
    4.4393    0.2495    1.8495 H   0  0  0  0  0  0  0  0  0  0  0  0
    2.7155    0.2263    2.0051 H   0  0  0  0  0  0  0  0  0  0  0  0
    5.0125   -0.2667    4.1365 H   0  0  0  0  0  0  0  0  0  0  0  0
    3.9473   -1.3102    5.0831 H   0  0  0  0  0  0  0  0  0  0  0  0
    3.2995    0.1208    4.3134 H   0  0  0  0  0  0  0  0  0  0  0  0
    2.4101   -3.4482    5.0300 H   0  0  0  0  0  0  0  0  0  0  0  0
    2.1047   -4.3498    3.5519 H   0  0  0  0  0  0  0  0  0  0  0  0
    4.6928   -3.5236    4.7282 H   0  0  0  0  0  0  0  0  0  0  0  0
    4.4666   -4.7595    3.5221 H   0  0  0  0  0  0  0  0  0  0  0  0
    5.6450   -2.2909    3.1243 H   0  0  0  0  0  0  0  0  0  0  0  0
    2.8769   -1.8835   -3.5564 H   0  0  0  0  0  0  0  0  0  0  0  0
    2.3742   -0.7563   -2.3410 H   0  0  0  0  0  0  0  0  0  0  0  0
    2.2635   -2.4935   -1.9962 H   0  0  0  0  0  0  0  0  0  0  0  0
    4.8300   -0.5889   -3.6216 H   0  0  0  0  0  0  0  0  0  0  0  0
    5.8013   -0.3108   -2.1527 H   0  0  0  0  0  0  0  0  0  0  0  0
    4.2479    0.4813   -2.3169 H   0  0  0  0  0  0  0  0  0  0  0  0
    6.1717   -2.5688   -2.6559 H   0  0  0  0  0  0  0  0  0  0  0  0
    3.5016   -3.9741   -3.3393 H   0  0  0  0  0  0  0  0  0  0  0  0
    5.1983   -4.4212   -3.8800 H   0  0  0  0  0  0  0  0  0  0  0  0
    5.7852   -4.8088   -1.4994 H   0  0  0  0  0  0  0  0  0  0  0  0
    2.5349   -3.2676    0.9150 H   0  0  0  0  0  0  0  0  0  0  0  0
  1  2  1  0
  1 30  1  0
  1 31  1  0
  1 32  1  0
  2  3  2  0
  2  4  1  0
  4  5  1  0
  5 28  1  0
  5  6  1  0
  5 33  1  6
  6  7  1  0
  6  8  2  0
  7 34  1  0
  7 35  1  0
  7 36  1  0
  9  8  1  1
  8 37  1  0
  9 20  1  0
  9 28  1  0
  9 10  1  0
 10 11  1  0
 10 38  1  0
 10 39  1  0
 11 12  2  0
 11 21  1  0
 12 13  1  0
 12 40  1  0
 13 14  1  0
 13 41  1  0
 13 42  1  0
 14 20  1  0
 14 15  1  1
 14 16  1  0
 15 43  1  0
 15 44  1  0
 15 45  1  0
 16 17  2  0
 16 18  1  0
 18 19  1  0
 18 46  1  0
 18 47  1  0
 19 20  1  0
 19 48  1  0
 19 49  1  0
 20 50  1  1
 21 22  1  0
 21 23  1  0
 21 24  1  0
 22 51  1  0
 22 52  1  0
 22 53  1  0
 23 54  1  0
 23 55  1  0
 23 56  1  0
 24 26  1  0
 24 25  1  0
 24 57  1  6
 25 26  1  0
 25 58  1  0
 25 59  1  0
 26 27  1  0
 26 60  1  6
 27 28  1  0
 28 29  1  1
 29 61  1  0
M  END
>  <i_m_ct_stereo_status>  (356) 
1

>  <s_m_source_file>  (356) 
/var/tmp/pbs.5076255.sched01/tmpvuzdko10/1206lwnzxed.sdf

>  <i_m_source_file_index>  (356) 
38

>  <i_lp_mmshare_version>  (356) 
48012

>  <i_f3d_flags>  (356) 
0

>  <s_epik_input>  (356) 
W0NIM11DKD1PKU9bQ0BIXShDKFtDSDNdKT1bQ0hdMSlbQ0BdMihbT0hdKU9bQ0BASF0oW0NIMl0zKVtDQEBIXTNDKFtDSDNdKShbQ0gzXSlDKFtDSDJdNCk9W0NIXVtDSDJdW0NAXShbQ0gzXSkoW0NAQEhdNVtDQEBdMTI0KUMoPU8pW0NIMl1bQ0gyXTU=

>  <s_epik_cmdline>  (356) 
J2VwaWtfcHl0aG9uJywgJy1waHQnLCAnMi4wJywgJy1waCcsICc3LjAnLCAnLXRuJywgJzgnLCAnLW1hJywgJzIwMCcsICctaW1hZScsICc8aW5maWxlLm1hZT4nLCAnLW9tYWUnLCAnPG91dGZpbGUubWFlPic=

>  <r_lp_tautomer_probability>  (356) 
1

>  <r_epik_Ionization_Penalty>  (356) 
2.90444e-05

>  <r_epik_Ionization_Penalty_Charging>  (356) 
0

>  <r_epik_Ionization_Penalty_Neutral>  (356) 
2.90444e-05

>  <r_epik_State_Penalty>  (356) 
-0

>  <r_epik_Charging_Adjusted_Penalty>  (356) 
0

>  <i_epik_Tot_Q>  (356) 
0

>  <i_epik_Tot_abs_Q>  (356) 
0

>  <s_epik_Chemistry_Notes>  (356) 
This compound has an ester and may undergo hydrolysis at high or low pH.

>  <s_lp_Force_Field>  (356) 
OPLS3e

>  <r_lp_Energy>  (356) 
43.0329

>  <b_lp_Chiralities_Consistent>  (356) 
1

>  <s_lp_Variant>  (356) 
114:0-1

>  <s_i_glide_gridfile>  (356) 
pfpi4k_grid

>  <i_i_glide_lignum>  (356) 
38

>  <i_i_glide_rotatable_bonds>  (356) 
3

>  <r_i_docking_score>  (356) 
-1.94791

>  <r_i_glide_ligand_efficiency>  (356) 
-0.0671695

>  <r_i_glide_ligand_efficiency_sa>  (356) 
-0.206366

>  <r_i_glide_ligand_efficiency_ln>  (356) 
-0.446023

>  <r_i_glide_gscore>  (356) 
-1.94791

>  <r_i_glide_lipo>  (356) 
-0.583415

>  <r_i_glide_hbond>  (356) 
0

>  <r_i_glide_metal>  (356) 
-0

>  <r_i_glide_rewards>  (356) 
-0.746932

>  <r_i_glide_evdw>  (356) 
-18.7085

>  <r_i_glide_ecoul>  (356) 
1.31249

>  <r_i_glide_erotb>  (356) 
0.122221

>  <r_i_glide_esite>  (356) 
-0.00123579

>  <r_i_glide_emodel>  (356) 
-15.1801

>  <r_i_glide_energy>  (356) 
-17.396

>  <r_i_glide_einternal>  (356) 
3.24644

>  <r_i_glide_intrahb_reward>  (356) 
-0

>  <i_i_glide_confnum>  (356) 
1

>  <i_i_glide_posenum>  (356) 
15

>  <r_i_glide_eff_state_penalty>  (356) 
0

>  <ligand_id>  (356) 
114

>  <original_smiles>  (356) 
CC(=O)OC1C(C)=CC23CC(=CCC4(C)C(=O)CCC42)C(C)(C)C2CC2OC13O

>  <smiles>  (356) 
[H]OC12OC3([H])C([H])([H])C3([H])C(C([H])([H])[H])(C([H])([H])[H])C3=C([H])C([H])([H])C4(C([H])([H])[H])C(=O)C([H])([H])C([H])([H])C4([H])C1(C([H])=C(C([H])([H])[H])C2([H])OC(=O)C([H])([H])[H])C3([H])[H]

$$$$
