0:0:0
     RDKit          3D

 24 26  0  0  1  0  0  0  0  0999 V2000
    4.5275   -7.9160    1.5176 O   0  0  0  0  0  0  0  0  0  0  0  0
    3.3221   -7.8144    1.7063 C   0  0  0  0  0  0  0  0  0  0  0  0
    2.4100   -6.7337    1.2866 C   0  0  0  0  0  0  0  0  0  0  0  0
    2.7317   -5.5674    0.6801 C   0  0  0  0  0  0  0  0  0  0  0  0
    3.9835   -4.9327    0.3101 C   0  0  0  0  0  0  0  0  0  0  0  0
    5.2709   -5.2816    0.6214 C   0  0  0  0  0  0  0  0  0  0  0  0
    6.2467   -4.4116    0.0840 N   0  0  0  0  0  0  0  0  0  0  0  0
    5.7055   -3.4325   -0.6587 C   0  0  0  0  0  0  0  0  0  0  0  0
    3.9501   -3.4953   -0.6872 S   0  0  0  0  0  0  0  0  0  0  0  0
    1.0292   -7.1401    1.6705 C   0  0  0  0  0  0  0  0  0  0  0  0
   -0.0001   -6.4877    1.4611 O   0  0  0  0  0  0  0  0  0  0  0  0
    1.1555   -8.4352    2.3563 C   0  0  0  0  0  0  0  0  0  0  0  0
    0.1519   -9.2683    2.9035 C   0  0  0  0  0  0  0  0  0  0  0  0
    0.5782  -10.4867    3.4890 C   0  0  0  0  0  0  0  0  0  0  0  0
    1.9445  -10.8626    3.5237 C   0  0  0  0  0  0  0  0  0  0  0  0
    2.9202  -10.0122    2.9662 C   0  0  0  0  0  0  0  0  0  0  0  0
    2.5057   -8.8130    2.3792 C   0  0  0  0  0  0  0  0  0  0  0  0
    1.9118   -4.9391    0.4452 H   0  0  0  0  0  0  0  0  0  0  0  0
    5.6368   -6.1009    1.2087 H   0  0  0  0  0  0  0  0  0  0  0  0
    6.3590   -2.7138   -1.1383 H   0  0  0  0  0  0  0  0  0  0  0  0
   -0.8979   -8.9910    2.8631 H   0  0  0  0  0  0  0  0  0  0  0  0
   -0.1486  -11.1513    3.9233 H   0  0  0  0  0  0  0  0  0  0  0  0
    2.2591  -11.7993    3.9627 H   0  0  0  0  0  0  0  0  0  0  0  0
    3.9582  -10.2595    2.9533 H   0  0  0  0  0  0  0  0  0  0  0  0
  1  2  2  0
  2 17  1  0
  2  3  1  0
  3  4  2  3
  3 10  1  0
  4  5  1  0
  4 18  1  0
  5  9  1  0
  5  6  2  0
  6  7  1  0
  6 19  1  0
  7  8  2  0
  8  9  1  0
  8 20  1  0
 10 11  2  0
 10 12  1  0
 12 17  2  0
 12 13  1  0
 13 14  2  0
 13 21  1  0
 14 15  1  0
 14 22  1  0
 15 16  2  0
 15 23  1  0
 16 17  1  0
 16 24  1  0
M  END
>  <i_m_ct_stereo_status>  (1) 
1

>  <s_m_source_file>  (1) 
/var/tmp/pbs.5076255.sched01/tmpu3exd1vk/0t_9me_9p.sdf

>  <i_m_source_file_index>  (1) 
1

>  <i_lp_mmshare_version>  (1) 
48012

>  <i_f3d_flags>  (1) 
0

>  <s_epik_input>  (1) 
W2NIXTFbY0hdW2NIXVtjSF1jKGMxMilDKD1PKUMoQzI9Tyk9W0NIXWMzW2NIXW5bY0hdczM=

>  <s_epik_cmdline>  (1) 
J2VwaWtfcHl0aG9uJywgJy1waHQnLCAnMi4wJywgJy1waCcsICc3LjAnLCAnLXRuJywgJzgnLCAnLW1hJywgJzIwMCcsICctaW1hZScsICc8aW5maWxlLm1hZT4nLCAnLW9tYWUnLCAnPG91dGZpbGUubWFlPic=

>  <r_lp_tautomer_probability>  (1) 
1

>  <r_epik_Ionization_Penalty>  (1) 
3.14634e-07

>  <r_epik_Ionization_Penalty_Charging>  (1) 
0

>  <r_epik_Ionization_Penalty_Neutral>  (1) 
3.14634e-07

>  <r_epik_State_Penalty>  (1) 
-0

>  <r_epik_Charging_Adjusted_Penalty>  (1) 
0

>  <i_epik_Tot_Q>  (1) 
0

>  <i_epik_Tot_abs_Q>  (1) 
0

>  <s_lp_Force_Field>  (1) 
OPLS3e

>  <r_lp_Energy>  (1) 
15.3463

>  <b_lp_Chiralities_Consistent>  (1) 
1

>  <s_lp_Variant>  (1) 
0:0-1

>  <s_i_glide_gridfile>  (1) 
pfpi4k_grid

>  <i_i_glide_lignum>  (1) 
1

>  <i_i_glide_rotatable_bonds>  (1) 
1

>  <r_i_docking_score>  (1) 
-3.91886

>  <r_i_glide_ligand_efficiency>  (1) 
-0.230521

>  <r_i_glide_ligand_efficiency_sa>  (1) 
-0.592736

>  <r_i_glide_ligand_efficiency_ln>  (1) 
-1.02234

>  <r_i_glide_gscore>  (1) 
-3.91886

>  <r_i_glide_lipo>  (1) 
-0.279433

>  <r_i_glide_hbond>  (1) 
-0.262834

>  <r_i_glide_metal>  (1) 
-0

>  <r_i_glide_rewards>  (1) 
-1.77012

>  <r_i_glide_evdw>  (1) 
-22.6999

>  <r_i_glide_ecoul>  (1) 
-2.77329

>  <r_i_glide_erotb>  (1) 
0

>  <r_i_glide_esite>  (1) 
-0.0554894

>  <r_i_glide_emodel>  (1) 
-31.4069

>  <r_i_glide_energy>  (1) 
-25.4732

>  <r_i_glide_einternal>  (1) 
0.138339

>  <r_i_glide_intrahb_reward>  (1) 
-0

>  <i_i_glide_confnum>  (1) 
2

>  <i_i_glide_posenum>  (1) 
15

>  <r_i_glide_eff_state_penalty>  (1) 
0

>  <ligand_id>  (1) 
0

>  <original_smiles>  (1) 
O=C1C(=Cc2cncs2)C(=O)c2ccccc21

>  <smiles>  (1) 
[H]C(=C1C(=O)c2c([H])c([H])c([H])c([H])c2C1=O)c1sc([H])nc1[H]

$$$$
0:0:1
     RDKit          3D

 24 26  0  0  1  0  0  0  0  0999 V2000
    5.0143   -7.0054    0.8854 O   0  0  0  0  0  0  0  0  0  0  0  0
    3.8275   -7.0685    1.1587 C   0  0  0  0  0  0  0  0  0  0  0  0
    2.7335   -6.1340    0.8232 C   0  0  0  0  0  0  0  0  0  0  0  0
    2.8088   -4.9257    0.1858 C   0  0  0  0  0  0  0  0  0  0  0  0
    3.9482   -4.1394   -0.2957 C   0  0  0  0  0  0  0  0  0  0  0  0
    5.3063   -4.3220   -0.1107 C   0  0  0  0  0  0  0  0  0  0  0  0
    6.0690   -3.3388   -0.7539 N   0  0  0  0  0  0  0  0  0  0  0  0
    5.3359   -2.4056   -1.3696 C   0  0  0  0  0  0  0  0  0  0  0  0
    3.6149   -2.6861   -1.2454 S   0  0  0  0  0  0  0  0  0  0  0  0
    1.4447   -6.7405    1.3051 C   0  0  0  0  0  0  0  0  0  0  0  0
    0.3075   -6.2785    1.1589 O   0  0  0  0  0  0  0  0  0  0  0  0
    1.8123   -8.0077    1.9487 C   0  0  0  0  0  0  0  0  0  0  0  0
    0.9883   -8.9791    2.5425 C   0  0  0  0  0  0  0  0  0  0  0  0
    1.6308  -10.1261    3.0761 C   0  0  0  0  0  0  0  0  0  0  0  0
    3.0346  -10.2964    3.0074 C   0  0  0  0  0  0  0  0  0  0  0  0
    3.8336   -9.3135    2.3948 C   0  0  0  0  0  0  0  0  0  0  0  0
    3.1975   -8.1822    1.8667 C   0  0  0  0  0  0  0  0  0  0  0  0
    1.8617   -4.4348    0.0000 H   0  0  0  0  0  0  0  0  0  0  0  0
    5.8148   -5.0899    0.4399 H   0  0  0  0  0  0  0  0  0  0  0  0
    5.8623   -1.5948   -1.8637 H   0  0  0  0  0  0  0  0  0  0  0  0
   -0.0887   -8.8536    2.5824 H   0  0  0  0  0  0  0  0  0  0  0  0
    1.0443  -10.8972    3.5454 H   0  0  0  0  0  0  0  0  0  0  0  0
    3.5175  -11.1747    3.4054 H   0  0  0  0  0  0  0  0  0  0  0  0
    4.9049   -9.4039    2.3021 H   0  0  0  0  0  0  0  0  0  0  0  0
  1  2  2  0
  2 17  1  0
  2  3  1  0
  3  4  2  3
  3 10  1  0
  4  5  1  0
  4 18  1  0
  5  9  1  0
  5  6  2  0
  6  7  1  0
  6 19  1  0
  7  8  2  0
  8  9  1  0
  8 20  1  0
 10 11  2  0
 10 12  1  0
 12 17  2  0
 12 13  1  0
 13 14  2  0
 13 21  1  0
 14 15  1  0
 14 22  1  0
 15 16  2  0
 15 23  1  0
 16 17  1  0
 16 24  1  0
M  END
>  <i_m_ct_stereo_status>  (2) 
1

>  <s_m_source_file>  (2) 
/var/tmp/pbs.5076255.sched01/tmpu3exd1vk/0t_9me_9p.sdf

>  <i_m_source_file_index>  (2) 
1

>  <i_lp_mmshare_version>  (2) 
48012

>  <i_f3d_flags>  (2) 
0

>  <s_epik_input>  (2) 
W2NIXTFbY0hdW2NIXVtjSF1jKGMxMilDKD1PKUMoQzI9Tyk9W0NIXWMzW2NIXW5bY0hdczM=

>  <s_epik_cmdline>  (2) 
J2VwaWtfcHl0aG9uJywgJy1waHQnLCAnMi4wJywgJy1waCcsICc3LjAnLCAnLXRuJywgJzgnLCAnLW1hJywgJzIwMCcsICctaW1hZScsICc8aW5maWxlLm1hZT4nLCAnLW9tYWUnLCAnPG91dGZpbGUubWFlPic=

>  <r_lp_tautomer_probability>  (2) 
1

>  <r_epik_Ionization_Penalty>  (2) 
3.14634e-07

>  <r_epik_Ionization_Penalty_Charging>  (2) 
0

>  <r_epik_Ionization_Penalty_Neutral>  (2) 
3.14634e-07

>  <r_epik_State_Penalty>  (2) 
-0

>  <r_epik_Charging_Adjusted_Penalty>  (2) 
0

>  <i_epik_Tot_Q>  (2) 
0

>  <i_epik_Tot_abs_Q>  (2) 
0

>  <s_lp_Force_Field>  (2) 
OPLS3e

>  <r_lp_Energy>  (2) 
15.3463

>  <b_lp_Chiralities_Consistent>  (2) 
1

>  <s_lp_Variant>  (2) 
0:0-1

>  <s_i_glide_gridfile>  (2) 
pfpi4k_grid

>  <i_i_glide_lignum>  (2) 
1

>  <i_i_glide_rotatable_bonds>  (2) 
1

>  <r_i_docking_score>  (2) 
-3.82346

>  <r_i_glide_ligand_efficiency>  (2) 
-0.22491

>  <r_i_glide_ligand_efficiency_sa>  (2) 
-0.578306

>  <r_i_glide_ligand_efficiency_ln>  (2) 
-0.997456

>  <r_i_glide_gscore>  (2) 
-3.82346

>  <r_i_glide_lipo>  (2) 
-0.142394

>  <r_i_glide_hbond>  (2) 
-0.167374

>  <r_i_glide_metal>  (2) 
-0

>  <r_i_glide_rewards>  (2) 
-1.88469

>  <r_i_glide_evdw>  (2) 
-22.3755

>  <r_i_glide_ecoul>  (2) 
-3.03895

>  <r_i_glide_erotb>  (2) 
0

>  <r_i_glide_esite>  (2) 
-0.0543823

>  <r_i_glide_emodel>  (2) 
-31.1637

>  <r_i_glide_energy>  (2) 
-25.4145

>  <r_i_glide_einternal>  (2) 
0.115884

>  <r_i_glide_intrahb_reward>  (2) 
-0

>  <i_i_glide_confnum>  (2) 
2

>  <i_i_glide_posenum>  (2) 
20

>  <r_i_glide_eff_state_penalty>  (2) 
0

>  <ligand_id>  (2) 
0

>  <original_smiles>  (2) 
O=C1C(=Cc2cncs2)C(=O)c2ccccc21

>  <smiles>  (2) 
[H]C(=C1C(=O)c2c([H])c([H])c([H])c([H])c2C1=O)c1sc([H])nc1[H]

$$$$
0:0:2
     RDKit          3D

 24 26  0  0  1  0  0  0  0  0999 V2000
    3.8072    0.4384    1.0237 O   0  0  0  0  0  0  0  0  0  0  0  0
    2.9730   -0.2041    1.6588 C   0  0  0  0  0  0  0  0  0  0  0  0
    2.9786   -1.6559    1.9771 C   0  0  0  0  0  0  0  0  0  0  0  0
    3.8625   -2.6063    1.5597 C   0  0  0  0  0  0  0  0  0  0  0  0
    5.0271   -2.6115    0.6904 C   0  0  0  0  0  0  0  0  0  0  0  0
    5.5978   -1.6009   -0.0469 C   0  0  0  0  0  0  0  0  0  0  0  0
    6.7409   -1.9893   -0.7862 N   0  0  0  0  0  0  0  0  0  0  0  0
    7.0256   -3.2883   -0.6410 C   0  0  0  0  0  0  0  0  0  0  0  0
    5.9093   -4.1016    0.4494 S   0  0  0  0  0  0  0  0  0  0  0  0
    1.8016   -1.9084    2.8583 C   0  0  0  0  0  0  0  0  0  0  0  0
    1.4660   -2.9831    3.3396 O   0  0  0  0  0  0  0  0  0  0  0  0
    1.1091   -0.6164    3.0112 C   0  0  0  0  0  0  0  0  0  0  0  0
   -0.0503   -0.2846    3.7395 C   0  0  0  0  0  0  0  0  0  0  0  0
   -0.4802    1.0728    3.6954 C   0  0  0  0  0  0  0  0  0  0  0  0
    0.2325    2.0537    2.9527 C   0  0  0  0  0  0  0  0  0  0  0  0
    1.3885    1.6944    2.2437 C   0  0  0  0  0  0  0  0  0  0  0  0
    1.8011    0.3620    2.2924 C   0  0  0  0  0  0  0  0  0  0  0  0
    3.6629   -3.5795    1.9436 H   0  0  0  0  0  0  0  0  0  0  0  0
    5.3227   -0.5526   -0.1614 H   0  0  0  0  0  0  0  0  0  0  0  0
    7.8690   -3.6798   -1.1875 H   0  0  0  0  0  0  0  0  0  0  0  0
   -0.5834   -1.0452    4.2959 H   0  0  0  0  0  0  0  0  0  0  0  0
   -1.3684    1.3725    4.2226 H   0  0  0  0  0  0  0  0  0  0  0  0
   -0.0868    3.0845    2.9044 H   0  0  0  0  0  0  0  0  0  0  0  0
    1.9597    2.4045    1.6809 H   0  0  0  0  0  0  0  0  0  0  0  0
  1  2  2  0
  2 17  1  0
  2  3  1  0
  3  4  2  3
  3 10  1  0
  4  5  1  0
  4 18  1  0
  5  9  1  0
  5  6  2  0
  6  7  1  0
  6 19  1  0
  7  8  2  0
  8  9  1  0
  8 20  1  0
 10 11  2  0
 10 12  1  0
 12 17  2  0
 12 13  1  0
 13 14  2  0
 13 21  1  0
 14 15  1  0
 14 22  1  0
 15 16  2  0
 15 23  1  0
 16 17  1  0
 16 24  1  0
M  END
>  <i_m_ct_stereo_status>  (3) 
1

>  <s_m_source_file>  (3) 
/var/tmp/pbs.5076255.sched01/tmpu3exd1vk/0t_9me_9p.sdf

>  <i_m_source_file_index>  (3) 
1

>  <i_lp_mmshare_version>  (3) 
48012

>  <i_f3d_flags>  (3) 
0

>  <s_epik_input>  (3) 
W2NIXTFbY0hdW2NIXVtjSF1jKGMxMilDKD1PKUMoQzI9Tyk9W0NIXWMzW2NIXW5bY0hdczM=

>  <s_epik_cmdline>  (3) 
J2VwaWtfcHl0aG9uJywgJy1waHQnLCAnMi4wJywgJy1waCcsICc3LjAnLCAnLXRuJywgJzgnLCAnLW1hJywgJzIwMCcsICctaW1hZScsICc8aW5maWxlLm1hZT4nLCAnLW9tYWUnLCAnPG91dGZpbGUubWFlPic=

>  <r_lp_tautomer_probability>  (3) 
1

>  <r_epik_Ionization_Penalty>  (3) 
3.14634e-07

>  <r_epik_Ionization_Penalty_Charging>  (3) 
0

>  <r_epik_Ionization_Penalty_Neutral>  (3) 
3.14634e-07

>  <r_epik_State_Penalty>  (3) 
-0

>  <r_epik_Charging_Adjusted_Penalty>  (3) 
0

>  <i_epik_Tot_Q>  (3) 
0

>  <i_epik_Tot_abs_Q>  (3) 
0

>  <s_lp_Force_Field>  (3) 
OPLS3e

>  <r_lp_Energy>  (3) 
15.3463

>  <b_lp_Chiralities_Consistent>  (3) 
1

>  <s_lp_Variant>  (3) 
0:0-1

>  <s_i_glide_gridfile>  (3) 
pfpi4k_grid

>  <i_i_glide_lignum>  (3) 
1

>  <i_i_glide_rotatable_bonds>  (3) 
1

>  <r_i_docking_score>  (3) 
-3.53315

>  <r_i_glide_ligand_efficiency>  (3) 
-0.207832

>  <r_i_glide_ligand_efficiency_sa>  (3) 
-0.534395

>  <r_i_glide_ligand_efficiency_ln>  (3) 
-0.92172

>  <r_i_glide_gscore>  (3) 
-3.53315

>  <r_i_glide_lipo>  (3) 
-0.252488

>  <r_i_glide_hbond>  (3) 
-0.16

>  <r_i_glide_metal>  (3) 
-0

>  <r_i_glide_rewards>  (3) 
-1.76409

>  <r_i_glide_evdw>  (3) 
-19.2603

>  <r_i_glide_ecoul>  (3) 
-2.40005

>  <r_i_glide_erotb>  (3) 
0

>  <r_i_glide_esite>  (3) 
-0.0335442

>  <r_i_glide_emodel>  (3) 
-26.9014

>  <r_i_glide_energy>  (3) 
-21.6603

>  <r_i_glide_einternal>  (3) 
0.00603234

>  <r_i_glide_intrahb_reward>  (3) 
-0

>  <i_i_glide_confnum>  (3) 
1

>  <i_i_glide_posenum>  (3) 
2

>  <r_i_glide_eff_state_penalty>  (3) 
0

>  <ligand_id>  (3) 
0

>  <original_smiles>  (3) 
O=C1C(=Cc2cncs2)C(=O)c2ccccc21

>  <smiles>  (3) 
[H]C(=C1C(=O)c2c([H])c([H])c([H])c([H])c2C1=O)c1sc([H])nc1[H]

$$$$
1:0:0
     RDKit          3D

 78 85  0  0  1  0  0  0  0  0999 V2000
    5.1190   -2.9905   -1.5549 C   0  0  0  0  0  0  0  0  0  0  0  0
    5.0094   -3.6182   -0.3670 C   0  0  0  0  0  0  0  0  0  0  0  0
    4.8593   -5.0962   -0.1258 C   0  0  1  0  0  0  0  0  0  0  0  0
    5.9319   -5.4640    0.9197 C   0  0  2  0  0  0  0  0  0  0  0  0
    5.6639   -6.7597    1.8978 C   0  0  2  0  0  0  0  0  0  0  0  0
    5.2484   -7.8906    1.0987 O   0  0  0  0  0  0  0  0  0  0  0  0
    4.0016   -8.6308    1.2063 C   0  0  0  0  0  0  0  0  0  0  0  0
    3.8137   -9.5507    2.4038 C   0  0  1  0  0  0  0  0  0  0  0  0
    5.1814  -10.0501    2.9502 C   0  0  1  0  0  0  0  0  0  0  0  0
    6.0694  -10.5912    1.9700 O   0  0  0  0  0  0  0  0  0  0  0  0
    6.6071  -11.8151    2.1231 C   0  0  0  0  0  0  0  0  0  0  0  0
    6.2772  -12.6247    3.3424 C   0  0  0  0  0  0  0  0  0  0  0  0
    7.3916  -12.2724    1.2671 O   0  0  0  0  0  0  0  0  0  0  0  0
    5.9378   -9.0300    3.8247 C   0  0  0  0  0  0  0  0  0  0  0  0
    4.9866   -7.9430    4.3723 C   0  0  1  0  0  0  0  0  0  0  0  0
    5.0193   -6.6083    3.3948 C   0  0  1  0  0  0  0  0  0  0  0  0
    6.1600   -5.8834    4.2439 C   0  0  0  0  0  0  0  0  0  0  0  0
    3.6679   -5.6658    3.2547 C   0  0  1  0  0  0  0  0  0  0  0  0
    3.7025   -4.5740    2.0479 C   0  0  2  0  0  0  0  0  0  0  0  0
    5.0064   -4.3095    2.5573 O   0  0  0  0  0  0  0  0  0  0  0  0
    5.9758   -4.0813    1.6202 C   0  0  2  0  0  0  0  0  0  0  0  0
    5.1380   -2.9695    0.9910 C   0  0  2  0  0  0  0  0  0  0  0  0
    3.8079   -3.0094    1.8674 C   0  0  0  0  0  0  0  0  0  0  0  0
    2.6190   -2.3457    1.1136 C   0  0  0  0  0  0  0  0  0  0  0  0
    3.8746   -2.1847    3.1987 C   0  0  0  0  0  0  0  0  0  0  0  0
    3.5715   -5.2657    0.6366 C   0  0  1  0  0  0  0  0  0  0  0  0
    2.4193   -4.9632   -0.1216 O   0  0  0  0  0  0  0  0  0  0  0  0
    2.3319   -6.4267    3.0889 C   0  0  0  0  0  0  0  0  0  0  0  0
    2.1442   -7.7540    3.8038 C   0  0  2  0  0  0  0  0  0  0  0  0
    2.7402   -7.6003    5.1140 O   0  0  0  0  0  0  0  0  0  0  0  0
    3.6686   -8.6602    4.7991 C   0  0  2  0  0  0  0  0  0  0  0  0
    3.8133   -9.5228    6.1300 C   0  0  0  0  0  0  0  0  0  0  0  0
    4.3659  -10.9825    6.0083 C   0  0  0  0  0  0  0  0  0  0  0  0
    2.5638   -9.6047    7.0303 C   0  0  0  0  0  0  0  0  0  0  0  0
    2.8477   -9.1248    3.5856 C   0  0  2  0  0  0  0  0  0  0  0  0
    1.8003  -10.2616    3.7352 C   0  0  0  0  0  0  0  0  0  0  0  0
    5.2539   -1.9243   -1.6091 H   0  0  0  0  0  0  0  0  0  0  0  0
    5.0553   -3.5541   -2.4714 H   0  0  0  0  0  0  0  0  0  0  0  0
    4.9166   -5.6804   -1.0434 H   0  0  0  0  0  0  0  0  0  0  0  0
    6.8756   -5.6169    0.3866 H   0  0  0  0  0  0  0  0  0  0  0  0
    6.6981   -7.0185    2.0947 H   0  0  0  0  0  0  0  0  0  0  0  0
    3.0495   -8.1591    0.9389 H   0  0  0  0  0  0  0  0  0  0  0  0
    4.1372   -9.3123    0.3620 H   0  0  0  0  0  0  0  0  0  0  0  0
    3.3821  -10.4367    1.9459 H   0  0  0  0  0  0  0  0  0  0  0  0
    4.8046  -10.8419    3.5740 H   0  0  0  0  0  0  0  0  0  0  0  0
    6.4829  -12.0716    4.2524 H   0  0  0  0  0  0  0  0  0  0  0  0
    6.8703  -13.5530    3.4220 H   0  0  0  0  0  0  0  0  0  0  0  0
    5.2405  -12.9458    3.3403 H   0  0  0  0  0  0  0  0  0  0  0  0
    6.3761   -9.5580    4.6636 H   0  0  0  0  0  0  0  0  0  0  0  0
    6.8205   -8.6071    3.3338 H   0  0  0  0  0  0  0  0  0  0  0  0
    5.3912   -7.6634    5.3452 H   0  0  0  0  0  0  0  0  0  0  0  0
    5.7456   -5.4258    5.1459 H   0  0  0  0  0  0  0  0  0  0  0  0
    6.7361   -5.1162    3.7433 H   0  0  0  0  0  0  0  0  0  0  0  0
    6.9673   -6.5551    4.5456 H   0  0  0  0  0  0  0  0  0  0  0  0
    3.5841   -5.1266    4.2010 H   0  0  0  0  0  0  0  0  0  0  0  0
    6.9322   -3.7724    2.0439 H   0  0  0  0  0  0  0  0  0  0  0  0
    5.6198   -1.9987    0.9548 H   0  0  0  0  0  0  0  0  0  0  0  0
    2.6221   -1.2608    1.2209 H   0  0  0  0  0  0  0  0  0  0  0  0
    1.6808   -2.7057    1.5153 H   0  0  0  0  0  0  0  0  0  0  0  0
    2.6292   -2.5170    0.0377 H   0  0  0  0  0  0  0  0  0  0  0  0
    3.9910   -1.1234    2.9872 H   0  0  0  0  0  0  0  0  0  0  0  0
    4.7051   -2.4571    3.8627 H   0  0  0  0  0  0  0  0  0  0  0  0
    2.9508   -2.3122    3.7624 H   0  0  0  0  0  0  0  0  0  0  0  0
    3.4974   -6.3088    0.7038 H   0  0  0  0  0  0  0  0  0  0  0  0
    2.5829   -5.2642   -1.0103 H   0  0  0  0  0  0  0  0  0  0  0  0
    1.5631   -5.7357    3.4311 H   0  0  0  0  0  0  0  0  0  0  0  0
    2.0191   -6.5970    2.0645 H   0  0  0  0  0  0  0  0  0  0  0  0
    1.0830   -7.9314    3.9037 H   0  0  0  0  0  0  0  0  0  0  0  0
    4.5308   -9.0066    6.7747 H   0  0  0  0  0  0  0  0  0  0  0  0
    3.9299  -11.5608    5.1790 H   0  0  0  0  0  0  0  0  0  0  0  0
    4.1394  -11.5765    6.9053 H   0  0  0  0  0  0  0  0  0  0  0  0
    5.4566  -11.0122    5.9399 H   0  0  0  0  0  0  0  0  0  0  0  0
    1.6766  -10.0052    6.5263 H   0  0  0  0  0  0  0  0  0  0  0  0
    2.3127   -8.6422    7.4742 H   0  0  0  0  0  0  0  0  0  0  0  0
    2.7487  -10.2727    7.8735 H   0  0  0  0  0  0  0  0  0  0  0  0
    1.0531  -10.0289    4.4842 H   0  0  0  0  0  0  0  0  0  0  0  0
    2.2316  -11.2262    4.0129 H   0  0  0  0  0  0  0  0  0  0  0  0
    1.2363  -10.4177    2.8161 H   0  0  0  0  0  0  0  0  0  0  0  0
  1  2  2  0
  1 37  1  0
  1 38  1  0
  2 22  1  0
  2  3  1  0
  3 26  1  0
  3  4  1  0
  3 39  1  6
  4 21  1  0
  4  5  1  0
  4 40  1  6
  5 16  1  0
  5  6  1  0
  5 41  1  1
  6  7  1  0
  7  8  1  0
  7 42  1  0
  7 43  1  0
  8 35  1  0
  8  9  1  0
  8 44  1  6
  9 10  1  0
  9 14  1  0
  9 45  1  1
 10 11  1  0
 11 12  1  0
 11 13  2  0
 12 46  1  0
 12 47  1  0
 12 48  1  0
 14 15  1  0
 14 49  1  0
 14 50  1  0
 15 31  1  0
 15 16  1  0
 15 51  1  1
 16 17  1  1
 16 18  1  0
 17 52  1  0
 17 53  1  0
 17 54  1  0
 18 19  1  0
 18 28  1  0
 18 55  1  1
 19 23  1  0
 19 20  1  6
 19 26  1  0
 20 21  1  0
 21 22  1  0
 21 56  1  1
 22 23  1  0
 22 57  1  6
 23 24  1  0
 23 25  1  0
 24 58  1  0
 24 59  1  0
 24 60  1  0
 25 61  1  0
 25 62  1  0
 25 63  1  0
 26 27  1  0
 26 64  1  1
 27 65  1  0
 28 29  1  0
 28 66  1  0
 28 67  1  0
 29 35  1  0
 29 30  1  0
 29 68  1  1
 30 31  1  0
 31 32  1  1
 31 35  1  0
 32 33  1  0
 32 34  1  0
 32 69  1  0
 33 70  1  0
 33 71  1  0
 33 72  1  0
 34 73  1  0
 34 74  1  0
 34 75  1  0
 35 36  1  1
 36 76  1  0
 36 77  1  0
 36 78  1  0
M  END
>  <i_m_ct_stereo_status>  (4) 
1

>  <s_m_source_file>  (4) 
/var/tmp/pbs.5076255.sched01/tmpu3exd1vk/0t_9me_9p.sdf

>  <i_m_source_file_index>  (4) 
2

>  <i_lp_mmshare_version>  (4) 
48012

>  <i_f3d_flags>  (4) 
0

>  <s_epik_input>  (4) 
TzFbQ0BASF0yW0NASF0oQzMoW0NIM10pW0NIM10pQyg9W0NIMl0pW0NASF0oW0NAQEhdNFtPSF0pW0NAQEhdMltDQEBIXShbQ0BAXTUoW0NIM10pW0NASF02W0NAXTEzNClPW0NIMl1bQ0BASF03W0NAXTgoW0NIM10pW0NASF0oW0NIMl02KU9bQ0BdOChbQ0hdKFtDSDNdKVtDSDNdKVtDQEhdNVtDSDJdW0NAQEhdN09DKD1PKVtDSDNd

>  <s_epik_cmdline>  (4) 
J2VwaWtfcHl0aG9uJywgJy1waHQnLCAnMi4wJywgJy1waCcsICc3LjAnLCAnLXRuJywgJzgnLCAnLW1hJywgJzIwMCcsICctaW1hZScsICc8aW5maWxlLm1hZT4nLCAnLW9tYWUnLCAnPG91dGZpbGUubWFlPic=

>  <r_lp_tautomer_probability>  (4) 
1

>  <r_epik_Ionization_Penalty>  (4) 
5.98432e-08

>  <r_epik_Ionization_Penalty_Charging>  (4) 
0

>  <r_epik_Ionization_Penalty_Neutral>  (4) 
5.98432e-08

>  <r_epik_State_Penalty>  (4) 
-0

>  <r_epik_Charging_Adjusted_Penalty>  (4) 
0

>  <i_epik_Tot_Q>  (4) 
0

>  <i_epik_Tot_abs_Q>  (4) 
0

>  <s_epik_Chemistry_Notes>  (4) 
This compound has an ester and may undergo hydrolysis at high or low pH.

>  <s_lp_Force_Field>  (4) 
OPLS3e

>  <r_lp_Energy>  (4) 
226.28

>  <b_lp_Chiralities_Consistent>  (4) 
1

>  <s_lp_Variant>  (4) 
1:0-1

>  <s_i_glide_gridfile>  (4) 
pfpi4k_grid

>  <i_i_glide_lignum>  (4) 
2

>  <i_i_glide_rotatable_bonds>  (4) 
4

>  <r_i_docking_score>  (4) 
-3.43664

>  <r_i_glide_ligand_efficiency>  (4) 
-0.0954623

>  <r_i_glide_ligand_efficiency_sa>  (4) 
-0.315209

>  <r_i_glide_ligand_efficiency_ln>  (4) 
-0.749782

>  <r_i_glide_gscore>  (4) 
-3.43664

>  <r_i_glide_lipo>  (4) 
-0.34643

>  <r_i_glide_hbond>  (4) 
-0.608

>  <r_i_glide_metal>  (4) 
-0

>  <r_i_glide_rewards>  (4) 
-0.00919855

>  <r_i_glide_evdw>  (4) 
-23.1507

>  <r_i_glide_ecoul>  (4) 
-8.81404

>  <r_i_glide_erotb>  (4) 
0.0820722

>  <r_i_glide_esite>  (4) 
-0.0754453

>  <r_i_glide_emodel>  (4) 
-33.4353

>  <r_i_glide_energy>  (4) 
-31.9647

>  <r_i_glide_einternal>  (4) 
7.80921

>  <r_i_glide_intrahb_reward>  (4) 
-0

>  <i_i_glide_confnum>  (4) 
4

>  <i_i_glide_posenum>  (4) 
2

>  <r_i_glide_eff_state_penalty>  (4) 
0

>  <ligand_id>  (4) 
1

>  <original_smiles>  (4) 
C=C1C2C3C4OCC5C(OC(C)=O)CC6C4(C)C(C4(OC3C1C4(C)C)C2O)CC1OC6(C(C)C)C15C

>  <smiles>  (4) 
[H]OC1([H])C2([H])C(=C([H])[H])C3([H])C4([H])OC1(C1([H])C([H])([H])C5([H])OC6(C([H])(C([H])([H])[H])C([H])([H])[H])C7([H])C([H])([H])C([H])(OC(=O)C([H])([H])[H])C([H])(C([H])([H])OC([H])(C42[H])C17C([H])([H])[H])C56C([H])([H])[H])C3(C([H])([H])[H])C([H])([H])[H]

$$$$
1:0:1
     RDKit          3D

 78 85  0  0  1  0  0  0  0  0999 V2000
   -0.4247   -7.5690    4.5002 C   0  0  0  0  0  0  0  0  0  0  0  0
    0.7877   -7.1977    4.0154 C   0  0  0  0  0  0  0  0  0  0  0  0
    1.1431   -5.8793    3.3721 C   0  0  1  0  0  0  0  0  0  0  0  0
    2.4147   -5.3857    4.0944 C   0  0  2  0  0  0  0  0  0  0  0  0
    3.4528   -4.3960    3.2806 C   0  0  2  0  0  0  0  0  0  0  0  0
    2.7270   -3.3123    2.6597 O   0  0  0  0  0  0  0  0  0  0  0  0
    2.6843   -2.9946    1.2457 C   0  0  0  0  0  0  0  0  0  0  0  0
    3.9069   -2.3697    0.5736 C   0  0  1  0  0  0  0  0  0  0  0  0
    4.7627   -1.5652    1.5879 C   0  0  1  0  0  0  0  0  0  0  0  0
    3.9409   -0.6765    2.3501 O   0  0  0  0  0  0  0  0  0  0  0  0
    4.4742    0.1330    3.2924 C   0  0  0  0  0  0  0  0  0  0  0  0
    3.4559    1.0900    3.8802 C   0  0  0  0  0  0  0  0  0  0  0  0
    5.6488    0.1421    3.6610 O   0  0  0  0  0  0  0  0  0  0  0  0
    5.6499   -2.4929    2.4546 C   0  0  0  0  0  0  0  0  0  0  0  0
    5.8359   -3.9039    1.8682 C   0  0  1  0  0  0  0  0  0  0  0  0
    4.7580   -4.9739    2.4904 C   0  0  1  0  0  0  0  0  0  0  0  0
    5.7264   -5.4605    3.6629 C   0  0  0  0  0  0  0  0  0  0  0  0
    4.2548   -6.2371    1.5569 C   0  0  1  0  0  0  0  0  0  0  0  0
    2.9763   -7.0583    2.1156 C   0  0  2  0  0  0  0  0  0  0  0  0
    3.7065   -7.0024    3.3345 O   0  0  0  0  0  0  0  0  0  0  0  0
    2.9625   -6.7945    4.4671 C   0  0  2  0  0  0  0  0  0  0  0  0
    2.0659   -7.9847    4.1336 C   0  0  2  0  0  0  0  0  0  0  0  0
    2.6612   -8.4775    2.7399 C   0  0  0  0  0  0  0  0  0  0  0  0
    1.6228   -9.3240    1.9571 C   0  0  0  0  0  0  0  0  0  0  0  0
    3.8866   -9.4492    2.8565 C   0  0  0  0  0  0  0  0  0  0  0  0
    1.6443   -6.2135    1.9967 C   0  0  1  0  0  0  0  0  0  0  0  0
    0.6232   -6.7093    1.1524 O   0  0  0  0  0  0  0  0  0  0  0  0
    3.9132   -5.8857    0.0905 C   0  0  0  0  0  0  0  0  0  0  0  0
    4.7010   -4.8082   -0.6229 C   0  0  2  0  0  0  0  0  0  0  0  0
    6.0777   -5.0172   -0.2332 O   0  0  0  0  0  0  0  0  0  0  0  0
    6.0887   -3.7060    0.3518 C   0  0  2  0  0  0  0  0  0  0  0  0
    7.4962   -3.0461    0.0178 C   0  0  0  0  0  0  0  0  0  0  0  0
    7.8496   -2.7966   -1.4691 C   0  0  0  0  0  0  0  0  0  0  0  0
    8.7368   -3.7636    0.6024 C   0  0  0  0  0  0  0  0  0  0  0  0
    4.7891   -3.2736   -0.3578 C   0  0  2  0  0  0  0  0  0  0  0  0
    4.8472   -2.5028   -1.6899 C   0  0  0  0  0  0  0  0  0  0  0  0
   -0.5524   -8.5243    4.9779 H   0  0  0  0  0  0  0  0  0  0  0  0
   -1.2698   -6.9177    4.4123 H   0  0  0  0  0  0  0  0  0  0  0  0
    0.3252   -5.1653    3.3796 H   0  0  0  0  0  0  0  0  0  0  0  0
    2.0910   -4.8828    5.0071 H   0  0  0  0  0  0  0  0  0  0  0  0
    3.8772   -3.8716    4.1271 H   0  0  0  0  0  0  0  0  0  0  0  0
    2.2128   -3.6873    0.5483 H   0  0  0  0  0  0  0  0  0  0  0  0
    1.9423   -2.1936    1.2719 H   0  0  0  0  0  0  0  0  0  0  0  0
    3.4401   -1.5982   -0.0493 H   0  0  0  0  0  0  0  0  0  0  0  0
    5.4301   -0.9526    0.9845 H   0  0  0  0  0  0  0  0  0  0  0  0
    2.9660    1.6606    3.0910 H   0  0  0  0  0  0  0  0  0  0  0  0
    3.9557    1.7941    4.5452 H   0  0  0  0  0  0  0  0  0  0  0  0
    2.7042    0.5472    4.4517 H   0  0  0  0  0  0  0  0  0  0  0  0
    6.6090   -1.9944    2.4845 H   0  0  0  0  0  0  0  0  0  0  0  0
    5.3281   -2.5353    3.4897 H   0  0  0  0  0  0  0  0  0  0  0  0
    6.8179   -4.2277    2.1898 H   0  0  0  0  0  0  0  0  0  0  0  0
    6.4833   -6.1516    3.2859 H   0  0  0  0  0  0  0  0  0  0  0  0
    5.2836   -5.9385    4.5272 H   0  0  0  0  0  0  0  0  0  0  0  0
    6.2351   -4.6378    4.1630 H   0  0  0  0  0  0  0  0  0  0  0  0
    5.1094   -6.9142    1.4985 H   0  0  0  0  0  0  0  0  0  0  0  0
    3.5326   -6.8723    5.3937 H   0  0  0  0  0  0  0  0  0  0  0  0
    2.0274   -8.7540    4.9027 H   0  0  0  0  0  0  0  0  0  0  0  0
    1.6356  -10.3662    2.2785 H   0  0  0  0  0  0  0  0  0  0  0  0
    1.8446   -9.3142    0.8923 H   0  0  0  0  0  0  0  0  0  0  0  0
    0.5902   -9.0150    2.1037 H   0  0  0  0  0  0  0  0  0  0  0  0
    3.5975  -10.3828    3.3359 H   0  0  0  0  0  0  0  0  0  0  0  0
    4.7287   -9.0595    3.4415 H   0  0  0  0  0  0  0  0  0  0  0  0
    4.2675   -9.7031    1.8675 H   0  0  0  0  0  0  0  0  0  0  0  0
    1.8195   -5.2689    1.5779 H   0  0  0  0  0  0  0  0  0  0  0  0
    0.5250   -7.6357    1.3361 H   0  0  0  0  0  0  0  0  0  0  0  0
    4.0561   -6.8150   -0.4532 H   0  0  0  0  0  0  0  0  0  0  0  0
    2.8741   -5.6642   -0.1088 H   0  0  0  0  0  0  0  0  0  0  0  0
    4.6192   -4.9543   -1.6834 H   0  0  0  0  0  0  0  0  0  0  0  0
    7.5149   -2.0488    0.4561 H   0  0  0  0  0  0  0  0  0  0  0  0
    7.5881   -3.6408   -2.1084 H   0  0  0  0  0  0  0  0  0  0  0  0
    8.9222   -2.6387   -1.6214 H   0  0  0  0  0  0  0  0  0  0  0  0
    7.3963   -1.8854   -1.8611 H   0  0  0  0  0  0  0  0  0  0  0  0
    8.8014   -4.8101    0.2815 H   0  0  0  0  0  0  0  0  0  0  0  0
    8.7834   -3.7444    1.6916 H   0  0  0  0  0  0  0  0  0  0  0  0
    9.6486   -3.2555    0.2833 H   0  0  0  0  0  0  0  0  0  0  0  0
    5.4208   -3.0205   -2.4407 H   0  0  0  0  0  0  0  0  0  0  0  0
    5.2655   -1.5069   -1.5458 H   0  0  0  0  0  0  0  0  0  0  0  0
    3.8553   -2.3627   -2.1306 H   0  0  0  0  0  0  0  0  0  0  0  0
  1  2  2  0
  1 37  1  0
  1 38  1  0
  2 22  1  0
  2  3  1  0
  3 26  1  0
  3  4  1  0
  3 39  1  6
  4 21  1  0
  4  5  1  0
  4 40  1  1
  5 16  1  0
  5  6  1  0
  5 41  1  1
  6  7  1  0
  7  8  1  0
  7 42  1  0
  7 43  1  0
  8 35  1  0
  8  9  1  0
  8 44  1  6
  9 10  1  0
  9 14  1  0
  9 45  1  6
 10 11  1  0
 11 12  1  0
 11 13  2  0
 12 46  1  0
 12 47  1  0
 12 48  1  0
 14 15  1  0
 14 49  1  0
 14 50  1  0
 15 31  1  0
 15 16  1  0
 15 51  1  1
 16 17  1  1
 16 18  1  0
 17 52  1  0
 17 53  1  0
 17 54  1  0
 18 19  1  0
 18 28  1  0
 18 55  1  6
 19 23  1  0
 19 20  1  1
 19 26  1  0
 20 21  1  0
 21 22  1  0
 21 56  1  1
 22 23  1  0
 22 57  1  1
 23 24  1  0
 23 25  1  0
 24 58  1  0
 24 59  1  0
 24 60  1  0
 25 61  1  0
 25 62  1  0
 25 63  1  0
 26 27  1  0
 26 64  1  6
 27 65  1  0
 28 29  1  0
 28 66  1  0
 28 67  1  0
 29 35  1  0
 29 30  1  0
 29 68  1  6
 30 31  1  0
 31 32  1  1
 31 35  1  0
 32 33  1  0
 32 34  1  0
 32 69  1  0
 33 70  1  0
 33 71  1  0
 33 72  1  0
 34 73  1  0
 34 74  1  0
 34 75  1  0
 35 36  1  6
 36 76  1  0
 36 77  1  0
 36 78  1  0
M  END
>  <i_m_ct_stereo_status>  (5) 
1

>  <s_m_source_file>  (5) 
/var/tmp/pbs.5076255.sched01/tmpu3exd1vk/0t_9me_9p.sdf

>  <i_m_source_file_index>  (5) 
2

>  <i_lp_mmshare_version>  (5) 
48012

>  <i_f3d_flags>  (5) 
0

>  <s_epik_input>  (5) 
TzFbQ0BASF0yW0NASF0oQzMoW0NIM10pW0NIM10pQyg9W0NIMl0pW0NASF0oW0NAQEhdNFtPSF0pW0NAQEhdMltDQEBIXShbQ0BAXTUoW0NIM10pW0NASF02W0NAXTEzNClPW0NIMl1bQ0BASF03W0NAXTgoW0NIM10pW0NASF0oW0NIMl02KU9bQ0BdOChbQ0hdKFtDSDNdKVtDSDNdKVtDQEhdNVtDSDJdW0NAQEhdN09DKD1PKVtDSDNd

>  <s_epik_cmdline>  (5) 
J2VwaWtfcHl0aG9uJywgJy1waHQnLCAnMi4wJywgJy1waCcsICc3LjAnLCAnLXRuJywgJzgnLCAnLW1hJywgJzIwMCcsICctaW1hZScsICc8aW5maWxlLm1hZT4nLCAnLW9tYWUnLCAnPG91dGZpbGUubWFlPic=

>  <r_lp_tautomer_probability>  (5) 
1

>  <r_epik_Ionization_Penalty>  (5) 
5.98432e-08

>  <r_epik_Ionization_Penalty_Charging>  (5) 
0

>  <r_epik_Ionization_Penalty_Neutral>  (5) 
5.98432e-08

>  <r_epik_State_Penalty>  (5) 
-0

>  <r_epik_Charging_Adjusted_Penalty>  (5) 
0

>  <i_epik_Tot_Q>  (5) 
0

>  <i_epik_Tot_abs_Q>  (5) 
0

>  <s_epik_Chemistry_Notes>  (5) 
This compound has an ester and may undergo hydrolysis at high or low pH.

>  <s_lp_Force_Field>  (5) 
OPLS3e

>  <r_lp_Energy>  (5) 
226.28

>  <b_lp_Chiralities_Consistent>  (5) 
1

>  <s_lp_Variant>  (5) 
1:0-1

>  <s_i_glide_gridfile>  (5) 
pfpi4k_grid

>  <i_i_glide_lignum>  (5) 
2

>  <i_i_glide_rotatable_bonds>  (5) 
4

>  <r_i_docking_score>  (5) 
-2.64451

>  <r_i_glide_ligand_efficiency>  (5) 
-0.0734587

>  <r_i_glide_ligand_efficiency_sa>  (5) 
-0.242555

>  <r_i_glide_ligand_efficiency_ln>  (5) 
-0.576961

>  <r_i_glide_gscore>  (5) 
-2.64451

>  <r_i_glide_lipo>  (5) 
-0.597366

>  <r_i_glide_hbond>  (5) 
-0.0963861

>  <r_i_glide_metal>  (5) 
-0

>  <r_i_glide_rewards>  (5) 
-0.0438566

>  <r_i_glide_evdw>  (5) 
-25.6916

>  <r_i_glide_ecoul>  (5) 
-4.69599

>  <r_i_glide_erotb>  (5) 
0.0820722

>  <r_i_glide_esite>  (5) 
0

>  <r_i_glide_emodel>  (5) 
-33.8566

>  <r_i_glide_energy>  (5) 
-30.3876

>  <r_i_glide_einternal>  (5) 
2.01911

>  <r_i_glide_intrahb_reward>  (5) 
-0

>  <i_i_glide_confnum>  (5) 
4

>  <i_i_glide_posenum>  (5) 
1

>  <r_i_glide_eff_state_penalty>  (5) 
0

>  <ligand_id>  (5) 
1

>  <original_smiles>  (5) 
C=C1C2C3C4OCC5C(OC(C)=O)CC6C4(C)C(C4(OC3C1C4(C)C)C2O)CC1OC6(C(C)C)C15C

>  <smiles>  (5) 
[H]OC1([H])C2([H])C(=C([H])[H])C3([H])C4([H])OC1(C1([H])C([H])([H])C5([H])OC6(C([H])(C([H])([H])[H])C([H])([H])[H])C7([H])C([H])([H])C([H])(OC(=O)C([H])([H])[H])C([H])(C([H])([H])OC([H])(C42[H])C17C([H])([H])[H])C56C([H])([H])[H])C3(C([H])([H])[H])C([H])([H])[H]

$$$$
1:0:2
     RDKit          3D

 78 85  0  0  1  0  0  0  0  0999 V2000
   -0.6399   -7.9384    4.3634 C   0  0  0  0  0  0  0  0  0  0  0  0
    0.5592   -7.5106    3.9806 C   0  0  0  0  0  0  0  0  0  0  0  0
    0.9067   -6.1682    3.3705 C   0  0  1  0  0  0  0  0  0  0  0  0
    2.0975   -5.6189    4.1802 C   0  0  2  0  0  0  0  0  0  0  0  0
    3.1305   -4.5736    3.4459 C   0  0  2  0  0  0  0  0  0  0  0  0
    2.3952   -3.5255    2.7866 O   0  0  0  0  0  0  0  0  0  0  0  0
    2.4302   -3.1876    1.3758 C   0  0  0  0  0  0  0  0  0  0  0  0
    3.6582   -2.4705    0.8051 C   0  0  1  0  0  0  0  0  0  0  0  0
    4.3676   -1.6581    1.9285 C   0  0  1  0  0  0  0  0  0  0  0  0
    3.4498   -0.8492    2.6638 O   0  0  0  0  0  0  0  0  0  0  0  0
    3.9182    0.1193    3.4629 C   0  0  0  0  0  0  0  0  0  0  0  0
    2.8380    1.0465    3.9752 C   0  0  0  0  0  0  0  0  0  0  0  0
    5.1045    0.2857    3.7686 O   0  0  0  0  0  0  0  0  0  0  0  0
    5.2531   -2.5424    2.8509 C   0  0  0  0  0  0  0  0  0  0  0  0
    5.5795   -3.9167    2.2201 C   0  0  1  0  0  0  0  0  0  0  0  0
    4.5195   -5.0666    2.7517 C   0  0  1  0  0  0  0  0  0  0  0  0
    5.4364   -5.5158    3.9780 C   0  0  0  0  0  0  0  0  0  0  0  0
    4.1516   -6.3401    1.7667 C   0  0  1  0  0  0  0  0  0  0  0  0
    2.8793   -7.2350    2.2290 C   0  0  2  0  0  0  0  0  0  0  0  0
    3.5064   -7.1666    3.4996 O   0  0  0  0  0  0  0  0  0  0  0  0
    2.6879   -7.0002    4.5763 C   0  0  2  0  0  0  0  0  0  0  0  0
    1.8779   -8.2290    4.1701 C   0  0  2  0  0  0  0  0  0  0  0  0
    2.5912   -8.6728    2.8152 C   0  0  0  0  0  0  0  0  0  0  0  0
    1.6502   -9.5614    1.9596 C   0  0  0  0  0  0  0  0  0  0  0  0
    3.8518   -9.5834    3.0095 C   0  0  0  0  0  0  0  0  0  0  0  0
    1.5151   -6.4561    2.0267 C   0  0  1  0  0  0  0  0  0  0  0  0
    0.5796   -6.9862    1.1016 O   0  0  0  0  0  0  0  0  0  0  0  0
    3.8958   -5.9857    0.2808 C   0  0  0  0  0  0  0  0  0  0  0  0
    4.6861   -4.8518   -0.3541 C   0  0  2  0  0  0  0  0  0  0  0  0
    6.0355   -4.9683    0.1209 O   0  0  0  0  0  0  0  0  0  0  0  0
    5.9237   -3.6644    0.7191 C   0  0  2  0  0  0  0  0  0  0  0  0
    7.3207   -2.9369    0.4827 C   0  0  0  0  0  0  0  0  0  0  0  0
    7.3592   -1.3802    0.6085 C   0  0  0  0  0  0  0  0  0  0  0  0
    8.0600   -3.2785   -0.8353 C   0  0  0  0  0  0  0  0  0  0  0  0
    4.6698   -3.3054   -0.0819 C   0  0  2  0  0  0  0  0  0  0  0  0
    4.7807   -2.5610   -1.4406 C   0  0  0  0  0  0  0  0  0  0  0  0
   -0.7723   -8.9126    4.8266 H   0  0  0  0  0  0  0  0  0  0  0  0
   -1.5283   -7.3291    4.2225 H   0  0  0  0  0  0  0  0  0  0  0  0
    0.0573   -5.4888    3.3316 H   0  0  0  0  0  0  0  0  0  0  0  0
    1.6823   -5.1451    5.0761 H   0  0  0  0  0  0  0  0  0  0  0  0
    3.4639   -4.0448    4.3341 H   0  0  0  0  0  0  0  0  0  0  0  0
    2.0429   -3.8881    0.6360 H   0  0  0  0  0  0  0  0  0  0  0  0
    1.6714   -2.4076    1.3688 H   0  0  0  0  0  0  0  0  0  0  0  0
    3.2112   -1.7186    0.1535 H   0  0  0  0  0  0  0  0  0  0  0  0
    4.9949   -0.9424    1.4020 H   0  0  0  0  0  0  0  0  0  0  0  0
    2.2954    1.4880    3.1360 H   0  0  0  0  0  0  0  0  0  0  0  0
    3.2687    1.8490    4.5751 H   0  0  0  0  0  0  0  0  0  0  0  0
    2.1438    0.4732    4.5868 H   0  0  0  0  0  0  0  0  0  0  0  0
    6.1871   -2.0377    3.0412 H   0  0  0  0  0  0  0  0  0  0  0  0
    4.8376   -2.6415    3.8560 H   0  0  0  0  0  0  0  0  0  0  0  0
    6.5656   -4.2153    2.5713 H   0  0  0  0  0  0  0  0  0  0  0  0
    6.2427   -6.1728    3.6452 H   0  0  0  0  0  0  0  0  0  0  0  0
    4.9561   -6.0178    4.8037 H   0  0  0  0  0  0  0  0  0  0  0  0
    5.8863   -4.6715    4.5081 H   0  0  0  0  0  0  0  0  0  0  0  0
    5.0370   -6.9822    1.7604 H   0  0  0  0  0  0  0  0  0  0  0  0
    3.1935   -7.0669    5.5408 H   0  0  0  0  0  0  0  0  0  0  0  0
    1.8162   -9.0139    4.9257 H   0  0  0  0  0  0  0  0  0  0  0  0
    1.6961  -10.6025    2.2725 H   0  0  0  0  0  0  0  0  0  0  0  0
    1.9436   -9.5243    0.9122 H   0  0  0  0  0  0  0  0  0  0  0  0
    0.5973   -9.3014    2.0463 H   0  0  0  0  0  0  0  0  0  0  0  0
    3.5710  -10.5371    3.4577 H   0  0  0  0  0  0  0  0  0  0  0  0
    4.6259   -9.1586    3.6554 H   0  0  0  0  0  0  0  0  0  0  0  0
    4.3073   -9.8030    2.0436 H   0  0  0  0  0  0  0  0  0  0  0  0
    1.6716   -5.4927    1.6295 H   0  0  0  0  0  0  0  0  0  0  0  0
    0.5055   -7.9131    1.2755 H   0  0  0  0  0  0  0  0  0  0  0  0
    4.1056   -6.9052   -0.2772 H   0  0  0  0  0  0  0  0  0  0  0  0
    2.8560   -5.8118    0.0156 H   0  0  0  0  0  0  0  0  0  0  0  0
    4.6754   -5.0122   -1.4270 H   0  0  0  0  0  0  0  0  0  0  0  0
    8.0063   -3.3289    1.2511 H   0  0  0  0  0  0  0  0  0  0  0  0
    6.5249   -0.8828    0.1052 H   0  0  0  0  0  0  0  0  0  0  0  0
    8.2838   -0.9895    0.1750 H   0  0  0  0  0  0  0  0  0  0  0  0
    7.3890   -1.0612    1.6446 H   0  0  0  0  0  0  0  0  0  0  0  0
    7.4812   -3.0935   -1.7443 H   0  0  0  0  0  0  0  0  0  0  0  0
    8.4119   -4.3086   -0.8380 H   0  0  0  0  0  0  0  0  0  0  0  0
    8.9666   -2.6799   -0.9230 H   0  0  0  0  0  0  0  0  0  0  0  0
    5.3998   -3.1044   -2.1505 H   0  0  0  0  0  0  0  0  0  0  0  0
    5.1977   -1.5601   -1.3381 H   0  0  0  0  0  0  0  0  0  0  0  0
    3.8050   -2.4595   -1.9198 H   0  0  0  0  0  0  0  0  0  0  0  0
  1  2  2  0
  1 37  1  0
  1 38  1  0
  2 22  1  0
  2  3  1  0
  3 26  1  0
  3  4  1  0
  3 39  1  6
  4 21  1  0
  4  5  1  0
  4 40  1  1
  5 16  1  0
  5  6  1  0
  5 41  1  1
  6  7  1  0
  7  8  1  0
  7 42  1  0
  7 43  1  0
  8 35  1  0
  8  9  1  0
  8 44  1  6
  9 10  1  0
  9 14  1  0
  9 45  1  6
 10 11  1  0
 11 12  1  0
 11 13  2  0
 12 46  1  0
 12 47  1  0
 12 48  1  0
 14 15  1  0
 14 49  1  0
 14 50  1  0
 15 31  1  0
 15 16  1  0
 15 51  1  1
 16 17  1  1
 16 18  1  0
 17 52  1  0
 17 53  1  0
 17 54  1  0
 18 19  1  0
 18 28  1  0
 18 55  1  6
 19 23  1  0
 19 20  1  1
 19 26  1  0
 20 21  1  0
 21 22  1  0
 21 56  1  1
 22 23  1  0
 22 57  1  1
 23 24  1  0
 23 25  1  0
 24 58  1  0
 24 59  1  0
 24 60  1  0
 25 61  1  0
 25 62  1  0
 25 63  1  0
 26 27  1  0
 26 64  1  6
 27 65  1  0
 28 29  1  0
 28 66  1  0
 28 67  1  0
 29 35  1  0
 29 30  1  0
 29 68  1  6
 30 31  1  0
 31 32  1  1
 31 35  1  0
 32 33  1  0
 32 34  1  0
 32 69  1  0
 33 70  1  0
 33 71  1  0
 33 72  1  0
 34 73  1  0
 34 74  1  0
 34 75  1  0
 35 36  1  6
 36 76  1  0
 36 77  1  0
 36 78  1  0
M  END
>  <i_m_ct_stereo_status>  (6) 
1

>  <s_m_source_file>  (6) 
/var/tmp/pbs.5076255.sched01/tmpu3exd1vk/0t_9me_9p.sdf

>  <i_m_source_file_index>  (6) 
2

>  <i_lp_mmshare_version>  (6) 
48012

>  <i_f3d_flags>  (6) 
0

>  <s_epik_input>  (6) 
TzFbQ0BASF0yW0NASF0oQzMoW0NIM10pW0NIM10pQyg9W0NIMl0pW0NASF0oW0NAQEhdNFtPSF0pW0NAQEhdMltDQEBIXShbQ0BAXTUoW0NIM10pW0NASF02W0NAXTEzNClPW0NIMl1bQ0BASF03W0NAXTgoW0NIM10pW0NASF0oW0NIMl02KU9bQ0BdOChbQ0hdKFtDSDNdKVtDSDNdKVtDQEhdNVtDSDJdW0NAQEhdN09DKD1PKVtDSDNd

>  <s_epik_cmdline>  (6) 
J2VwaWtfcHl0aG9uJywgJy1waHQnLCAnMi4wJywgJy1waCcsICc3LjAnLCAnLXRuJywgJzgnLCAnLW1hJywgJzIwMCcsICctaW1hZScsICc8aW5maWxlLm1hZT4nLCAnLW9tYWUnLCAnPG91dGZpbGUubWFlPic=

>  <r_lp_tautomer_probability>  (6) 
1

>  <r_epik_Ionization_Penalty>  (6) 
5.98432e-08

>  <r_epik_Ionization_Penalty_Charging>  (6) 
0

>  <r_epik_Ionization_Penalty_Neutral>  (6) 
5.98432e-08

>  <r_epik_State_Penalty>  (6) 
-0

>  <r_epik_Charging_Adjusted_Penalty>  (6) 
0

>  <i_epik_Tot_Q>  (6) 
0

>  <i_epik_Tot_abs_Q>  (6) 
0

>  <s_epik_Chemistry_Notes>  (6) 
This compound has an ester and may undergo hydrolysis at high or low pH.

>  <s_lp_Force_Field>  (6) 
OPLS3e

>  <r_lp_Energy>  (6) 
226.28

>  <b_lp_Chiralities_Consistent>  (6) 
1

>  <s_lp_Variant>  (6) 
1:0-1

>  <s_i_glide_gridfile>  (6) 
pfpi4k_grid

>  <i_i_glide_lignum>  (6) 
2

>  <i_i_glide_rotatable_bonds>  (6) 
4

>  <r_i_docking_score>  (6) 
-2.57615

>  <r_i_glide_ligand_efficiency>  (6) 
-0.0715597

>  <r_i_glide_ligand_efficiency_sa>  (6) 
-0.236285

>  <r_i_glide_ligand_efficiency_ln>  (6) 
-0.562046

>  <r_i_glide_gscore>  (6) 
-2.57615

>  <r_i_glide_lipo>  (6) 
-0.620243

>  <r_i_glide_hbond>  (6) 
0

>  <r_i_glide_metal>  (6) 
-0

>  <r_i_glide_rewards>  (6) 
-0.00919855

>  <r_i_glide_evdw>  (6) 
-27.1649

>  <r_i_glide_ecoul>  (6) 
-4.46416

>  <r_i_glide_erotb>  (6) 
0.0820722

>  <r_i_glide_esite>  (6) 
-0.00091054

>  <r_i_glide_emodel>  (6) 
-34.1199

>  <r_i_glide_energy>  (6) 
-31.629

>  <r_i_glide_einternal>  (6) 
2.6798

>  <r_i_glide_intrahb_reward>  (6) 
-0

>  <i_i_glide_confnum>  (6) 
4

>  <i_i_glide_posenum>  (6) 
40

>  <r_i_glide_eff_state_penalty>  (6) 
0

>  <ligand_id>  (6) 
1

>  <original_smiles>  (6) 
C=C1C2C3C4OCC5C(OC(C)=O)CC6C4(C)C(C4(OC3C1C4(C)C)C2O)CC1OC6(C(C)C)C15C

>  <smiles>  (6) 
[H]OC1([H])C2([H])C(=C([H])[H])C3([H])C4([H])OC1(C1([H])C([H])([H])C5([H])OC6(C([H])(C([H])([H])[H])C([H])([H])[H])C7([H])C([H])([H])C([H])(OC(=O)C([H])([H])[H])C([H])(C([H])([H])OC([H])(C42[H])C17C([H])([H])[H])C56C([H])([H])[H])C3(C([H])([H])[H])C([H])([H])[H]

$$$$
2:0:0
     RDKit          3D

 29 31  0  0  1  0  0  0  0  0999 V2000
    2.8462   -2.2116   -3.6198 C   0  0  0  0  0  0  0  0  0  0  0  0
    3.4219   -0.9226   -3.0255 C   0  0  0  0  0  0  0  0  0  0  0  0
    4.5728   -1.3179   -2.0860 C   0  0  0  0  0  0  0  0  0  0  0  0
    4.8406   -2.8251   -2.3171 C   0  0  0  0  0  0  0  0  0  0  0  0
    4.5078   -3.6483   -1.1496 N   0  0  0  0  0  0  0  0  0  0  0  0
    5.5126   -3.5458   -0.0577 C   0  0  0  0  0  0  0  0  0  0  0  0
    5.0040   -4.0230    1.3414 C   0  0  0  0  0  0  0  0  0  0  0  0
    3.7960   -4.8952    1.2377 C   0  0  0  0  0  0  0  0  0  0  0  0
    3.3914   -5.9379    1.9405 N   0  0  0  0  0  0  0  0  0  0  0  0
    2.1806   -6.2765    1.3420 N   0  0  0  0  0  0  0  0  0  0  0  0
    1.8992   -5.4674    0.3529 N   0  0  0  0  0  0  0  0  0  0  0  0
    2.9347   -4.6081    0.2824 N   0  0  0  0  0  0  0  0  0  0  0  0
    3.1074   -3.5707   -0.6961 C   0  0  0  0  0  0  0  0  0  0  0  0
    4.0089   -3.1983   -3.5545 C   0  0  0  0  0  0  0  0  0  0  0  0
    2.4876   -2.0555   -4.6405 H   0  0  0  0  0  0  0  0  0  0  0  0
    1.9936   -2.5406   -3.0209 H   0  0  0  0  0  0  0  0  0  0  0  0
    3.8055   -0.2852   -3.8244 H   0  0  0  0  0  0  0  0  0  0  0  0
    2.6450   -0.3675   -2.4969 H   0  0  0  0  0  0  0  0  0  0  0  0
    5.4575   -0.7266   -2.3237 H   0  0  0  0  0  0  0  0  0  0  0  0
    4.3389   -1.0796   -1.0454 H   0  0  0  0  0  0  0  0  0  0  0  0
    5.8956   -2.9907   -2.5462 H   0  0  0  0  0  0  0  0  0  0  0  0
    6.3701   -4.1450   -0.3668 H   0  0  0  0  0  0  0  0  0  0  0  0
    5.8845   -2.5222    0.0237 H   0  0  0  0  0  0  0  0  0  0  0  0
    5.7846   -4.5458    1.9068 H   0  0  0  0  0  0  0  0  0  0  0  0
    4.6924   -3.1335    1.8991 H   0  0  0  0  0  0  0  0  0  0  0  0
    2.9083   -2.6034   -0.2092 H   0  0  0  0  0  0  0  0  0  0  0  0
    2.3813   -3.7650   -1.4833 H   0  0  0  0  0  0  0  0  0  0  0  0
    3.7089   -4.2526   -3.5847 H   0  0  0  0  0  0  0  0  0  0  0  0
    4.6140   -3.0384   -4.4346 H   0  0  0  0  0  0  0  0  0  0  0  0
  1 14  1  0
  1  2  1  0
  1 15  1  0
  1 16  1  0
  2  3  1  0
  2 17  1  0
  2 18  1  0
  3  4  1  0
  3 19  1  0
  3 20  1  0
  4  5  1  0
  4 14  1  0
  4 21  1  0
  5 13  1  0
  5  6  1  0
  6  7  1  0
  6 22  1  0
  6 23  1  0
  7  8  1  0
  7 24  1  0
  7 25  1  0
  8 12  1  0
  8  9  2  0
  9 10  1  0
 10 11  2  0
 11 12  1  0
 12 13  1  0
 13 26  1  0
 13 27  1  0
 14 28  1  0
 14 29  1  0
M  END
>  <i_m_ct_stereo_status>  (7) 
1

>  <s_m_source_file>  (7) 
/var/tmp/pbs.5076255.sched01/tmpu3exd1vk/0t_9me_9p.sdf

>  <i_m_source_file_index>  (7) 
3

>  <i_lp_mmshare_version>  (7) 
48012

>  <i_f3d_flags>  (7) 
0

>  <s_epik_input>  (7) 
W0NIMl0xW0NIMl1bQ0gyXVtDSDJdW0NIXTFOKFtDSDJdW0NIMl0yKVtDSDJdbihjMjMpbm5uMw==

>  <s_epik_cmdline>  (7) 
J2VwaWtfcHl0aG9uJywgJy1waHQnLCAnMi4wJywgJy1waCcsICc3LjAnLCAnLXRuJywgJzgnLCAnLW1hJywgJzIwMCcsICctaW1hZScsICc8aW5maWxlLm1hZT4nLCAnLW9tYWUnLCAnPG91dGZpbGUubWFlPic=

>  <r_lp_tautomer_probability>  (7) 
1

>  <r_epik_Ionization_Penalty>  (7) 
0.000981161

>  <r_epik_Ionization_Penalty_Charging>  (7) 
0

>  <r_epik_Ionization_Penalty_Neutral>  (7) 
0.000981161

>  <r_epik_State_Penalty>  (7) 
0.000638734

>  <r_epik_Charging_Adjusted_Penalty>  (7) 
0.000638734

>  <i_epik_Tot_Q>  (7) 
0

>  <i_epik_Tot_abs_Q>  (7) 
0

>  <s_epik_Chemistry_Notes>  (7) 
This compound contains an acetal/aminal-like group ( X-CH(R)-Y where X, Y are N, S, or O) that may be acid/base labile, releasing an aldehyde.

>  <s_lp_Force_Field>  (7) 
OPLS3e

>  <r_lp_Energy>  (7) 
34.6674

>  <b_lp_Chiralities_Consistent>  (7) 
1

>  <s_lp_Variant>  (7) 
2:0-1

>  <s_i_glide_gridfile>  (7) 
pfpi4k_grid

>  <i_i_glide_lignum>  (7) 
3

>  <i_i_glide_rotatable_bonds>  (7) 
1

>  <r_i_docking_score>  (7) 
-3.7822

>  <r_i_glide_ligand_efficiency>  (7) 
-0.270157

>  <r_i_glide_ligand_efficiency_sa>  (7) 
-0.651117

>  <r_i_glide_ligand_efficiency_ln>  (7) 
-1.03933

>  <r_i_glide_gscore>  (7) 
-3.7822

>  <r_i_glide_lipo>  (7) 
-0.656467

>  <r_i_glide_hbond>  (7) 
0

>  <r_i_glide_metal>  (7) 
-0

>  <r_i_glide_rewards>  (7) 
-2.15316

>  <r_i_glide_evdw>  (7) 
-21.4775

>  <r_i_glide_ecoul>  (7) 
-1.26889

>  <r_i_glide_erotb>  (7) 
0.432327

>  <r_i_glide_esite>  (7) 
-0.140691

>  <r_i_glide_emodel>  (7) 
-27.8939

>  <r_i_glide_energy>  (7) 
-22.7464

>  <r_i_glide_einternal>  (7) 
0.00918817

>  <r_i_glide_intrahb_reward>  (7) 
-0

>  <i_i_glide_confnum>  (7) 
6

>  <i_i_glide_posenum>  (7) 
19

>  <r_i_glide_eff_state_penalty>  (7) 
0

>  <ligand_id>  (7) 
2

>  <original_smiles>  (7) 
C1CCC(N2CCc3nnnn3C2)C1

>  <smiles>  (7) 
[H]C1([H])N(C2([H])C([H])([H])C([H])([H])C([H])([H])C2([H])[H])C([H])([H])C([H])([H])c2nnnn21

$$$$
2:0:1
     RDKit          3D

 29 31  0  0  1  0  0  0  0  0999 V2000
    5.4730   -3.2416   -2.8070 C   0  0  0  0  0  0  0  0  0  0  0  0
    4.2454   -2.3478   -2.9217 C   0  0  0  0  0  0  0  0  0  0  0  0
    3.6623   -2.2717   -1.5065 C   0  0  0  0  0  0  0  0  0  0  0  0
    4.7163   -2.8610   -0.5232 C   0  0  0  0  0  0  0  0  0  0  0  0
    4.2834   -4.1401    0.0565 N   0  0  0  0  0  0  0  0  0  0  0  0
    5.3572   -4.8446    0.8074 C   0  0  0  0  0  0  0  0  0  0  0  0
    4.8770   -5.9145    1.8261 C   0  0  0  0  0  0  0  0  0  0  0  0
    3.4818   -6.3479    1.5600 C   0  0  0  0  0  0  0  0  0  0  0  0
    2.8681   -7.5100    1.6931 N   0  0  0  0  0  0  0  0  0  0  0  0
    1.5643   -7.2268    1.2952 N   0  0  0  0  0  0  0  0  0  0  0  0
    1.4356   -5.9751    0.9596 N   0  0  0  0  0  0  0  0  0  0  0  0
    2.6542   -5.4182    1.1189 N   0  0  0  0  0  0  0  0  0  0  0  0
    3.0345   -4.0596    0.8292 C   0  0  0  0  0  0  0  0  0  0  0  0
    5.9864   -3.0131   -1.3938 C   0  0  0  0  0  0  0  0  0  0  0  0
    6.2441   -3.0157   -3.5342 H   0  0  0  0  0  0  0  0  0  0  0  0
    5.1849   -4.2863   -2.9400 H   0  0  0  0  0  0  0  0  0  0  0  0
    4.5390   -1.3522   -3.2542 H   0  0  0  0  0  0  0  0  0  0  0  0
    3.5195   -2.7410   -3.6363 H   0  0  0  0  0  0  0  0  0  0  0  0
    3.4430   -1.2335   -1.2519 H   0  0  0  0  0  0  0  0  0  0  0  0
    2.7046   -2.7899   -1.5132 H   0  0  0  0  0  0  0  0  0  0  0  0
    4.9079   -2.1635    0.2950 H   0  0  0  0  0  0  0  0  0  0  0  0
    5.9729   -5.3681    0.0790 H   0  0  0  0  0  0  0  0  0  0  0  0
    5.9982   -4.1199    1.3143 H   0  0  0  0  0  0  0  0  0  0  0  0
    5.5419   -6.7813    1.8255 H   0  0  0  0  0  0  0  0  0  0  0  0
    4.8916   -5.4717    2.8234 H   0  0  0  0  0  0  0  0  0  0  0  0
    3.2108   -3.5340    1.7729 H   0  0  0  0  0  0  0  0  0  0  0  0
    2.2058   -3.5723    0.3206 H   0  0  0  0  0  0  0  0  0  0  0  0
    6.7025   -3.7839   -1.1154 H   0  0  0  0  0  0  0  0  0  0  0  0
    6.5365   -2.0715   -1.3685 H   0  0  0  0  0  0  0  0  0  0  0  0
  1 14  1  0
  1  2  1  0
  1 15  1  0
  1 16  1  0
  2  3  1  0
  2 17  1  0
  2 18  1  0
  3  4  1  0
  3 19  1  0
  3 20  1  0
  4  5  1  0
  4 14  1  0
  4 21  1  0
  5 13  1  0
  5  6  1  0
  6  7  1  0
  6 22  1  0
  6 23  1  0
  7  8  1  0
  7 24  1  0
  7 25  1  0
  8 12  1  0
  8  9  2  0
  9 10  1  0
 10 11  2  0
 11 12  1  0
 12 13  1  0
 13 26  1  0
 13 27  1  0
 14 28  1  0
 14 29  1  0
M  END
>  <i_m_ct_stereo_status>  (8) 
1

>  <s_m_source_file>  (8) 
/var/tmp/pbs.5076255.sched01/tmpu3exd1vk/0t_9me_9p.sdf

>  <i_m_source_file_index>  (8) 
3

>  <i_lp_mmshare_version>  (8) 
48012

>  <i_f3d_flags>  (8) 
0

>  <s_epik_input>  (8) 
W0NIMl0xW0NIMl1bQ0gyXVtDSDJdW0NIXTFOKFtDSDJdW0NIMl0yKVtDSDJdbihjMjMpbm5uMw==

>  <s_epik_cmdline>  (8) 
J2VwaWtfcHl0aG9uJywgJy1waHQnLCAnMi4wJywgJy1waCcsICc3LjAnLCAnLXRuJywgJzgnLCAnLW1hJywgJzIwMCcsICctaW1hZScsICc8aW5maWxlLm1hZT4nLCAnLW9tYWUnLCAnPG91dGZpbGUubWFlPic=

>  <r_lp_tautomer_probability>  (8) 
1

>  <r_epik_Ionization_Penalty>  (8) 
0.000981161

>  <r_epik_Ionization_Penalty_Charging>  (8) 
0

>  <r_epik_Ionization_Penalty_Neutral>  (8) 
0.000981161

>  <r_epik_State_Penalty>  (8) 
0.000638734

>  <r_epik_Charging_Adjusted_Penalty>  (8) 
0.000638734

>  <i_epik_Tot_Q>  (8) 
0

>  <i_epik_Tot_abs_Q>  (8) 
0

>  <s_epik_Chemistry_Notes>  (8) 
This compound contains an acetal/aminal-like group ( X-CH(R)-Y where X, Y are N, S, or O) that may be acid/base labile, releasing an aldehyde.

>  <s_lp_Force_Field>  (8) 
OPLS3e

>  <r_lp_Energy>  (8) 
34.6674

>  <b_lp_Chiralities_Consistent>  (8) 
1

>  <s_lp_Variant>  (8) 
2:0-1

>  <s_i_glide_gridfile>  (8) 
pfpi4k_grid

>  <i_i_glide_lignum>  (8) 
3

>  <i_i_glide_rotatable_bonds>  (8) 
1

>  <r_i_docking_score>  (8) 
-3.5461

>  <r_i_glide_ligand_efficiency>  (8) 
-0.253293

>  <r_i_glide_ligand_efficiency_sa>  (8) 
-0.610471

>  <r_i_glide_ligand_efficiency_ln>  (8) 
-0.974455

>  <r_i_glide_gscore>  (8) 
-3.5461

>  <r_i_glide_lipo>  (8) 
-0.520252

>  <r_i_glide_hbond>  (8) 
0

>  <r_i_glide_metal>  (8) 
-0

>  <r_i_glide_rewards>  (8) 
-2.15618

>  <r_i_glide_evdw>  (8) 
-19.8429

>  <r_i_glide_ecoul>  (8) 
-0.971097

>  <r_i_glide_erotb>  (8) 
0.432327

>  <r_i_glide_esite>  (8) 
-0.164183

>  <r_i_glide_emodel>  (8) 
-25.1744

>  <r_i_glide_energy>  (8) 
-20.814

>  <r_i_glide_einternal>  (8) 
1.09598

>  <r_i_glide_intrahb_reward>  (8) 
-0

>  <i_i_glide_confnum>  (8) 
6

>  <i_i_glide_posenum>  (8) 
40

>  <r_i_glide_eff_state_penalty>  (8) 
0

>  <ligand_id>  (8) 
2

>  <original_smiles>  (8) 
C1CCC(N2CCc3nnnn3C2)C1

>  <smiles>  (8) 
[H]C1([H])N(C2([H])C([H])([H])C([H])([H])C([H])([H])C2([H])[H])C([H])([H])C([H])([H])c2nnnn21

$$$$
2:0:2
     RDKit          3D

 29 31  0  0  1  0  0  0  0  0999 V2000
    5.1875   -2.1560   -1.9222 C   0  0  0  0  0  0  0  0  0  0  0  0
    4.0292   -1.4527   -1.2229 C   0  0  0  0  0  0  0  0  0  0  0  0
    3.8249   -2.1998    0.1013 C   0  0  0  0  0  0  0  0  0  0  0  0
    4.6722   -3.4935    0.0374 C   0  0  0  0  0  0  0  0  0  0  0  0
    3.9310   -4.6789    0.4736 N   0  0  0  0  0  0  0  0  0  0  0  0
    4.6848   -5.9361    0.2400 C   0  0  0  0  0  0  0  0  0  0  0  0
    4.2042   -7.1563    1.0815 C   0  0  0  0  0  0  0  0  0  0  0  0
    2.8444   -6.9550    1.6478 C   0  0  0  0  0  0  0  0  0  0  0  0
    1.8252   -7.7735    1.8334 N   0  0  0  0  0  0  0  0  0  0  0  0
    0.8513   -6.9511    2.3831 N   0  0  0  0  0  0  0  0  0  0  0  0
    1.2830   -5.7224    2.4980 N   0  0  0  0  0  0  0  0  0  0  0  0
    2.5443   -5.7253    2.0184 N   0  0  0  0  0  0  0  0  0  0  0  0
    3.4009   -4.5826    1.8399 C   0  0  0  0  0  0  0  0  0  0  0  0
    5.0906   -3.5945   -1.4392 C   0  0  0  0  0  0  0  0  0  0  0  0
    6.1336   -1.7277   -1.5936 H   0  0  0  0  0  0  0  0  0  0  0  0
    5.1321   -2.0757   -3.0076 H   0  0  0  0  0  0  0  0  0  0  0  0
    4.2179   -0.3919   -1.0732 H   0  0  0  0  0  0  0  0  0  0  0  0
    3.1235   -1.5431   -1.8266 H   0  0  0  0  0  0  0  0  0  0  0  0
    4.1383   -1.5883    0.9476 H   0  0  0  0  0  0  0  0  0  0  0  0
    2.7568   -2.3910    0.2180 H   0  0  0  0  0  0  0  0  0  0  0  0
    5.5662   -3.3630    0.6533 H   0  0  0  0  0  0  0  0  0  0  0  0
    4.5906   -6.1801   -0.8179 H   0  0  0  0  0  0  0  0  0  0  0  0
    5.7503   -5.7782    0.4162 H   0  0  0  0  0  0  0  0  0  0  0  0
    4.2236   -8.0817    0.5045 H   0  0  0  0  0  0  0  0  0  0  0  0
    4.8791   -7.2719    1.9303 H   0  0  0  0  0  0  0  0  0  0  0  0
    4.2152   -4.6393    2.5642 H   0  0  0  0  0  0  0  0  0  0  0  0
    2.8258   -3.6776    2.0271 H   0  0  0  0  0  0  0  0  0  0  0  0
    4.3235   -4.1095   -2.0217 H   0  0  0  0  0  0  0  0  0  0  0  0
    6.0260   -4.1354   -1.5706 H   0  0  0  0  0  0  0  0  0  0  0  0
  1 14  1  0
  1  2  1  0
  1 15  1  0
  1 16  1  0
  2  3  1  0
  2 17  1  0
  2 18  1  0
  3  4  1  0
  3 19  1  0
  3 20  1  0
  4  5  1  0
  4 14  1  0
  4 21  1  0
  5 13  1  0
  5  6  1  0
  6  7  1  0
  6 22  1  0
  6 23  1  0
  7  8  1  0
  7 24  1  0
  7 25  1  0
  8 12  1  0
  8  9  2  0
  9 10  1  0
 10 11  2  0
 11 12  1  0
 12 13  1  0
 13 26  1  0
 13 27  1  0
 14 28  1  0
 14 29  1  0
M  END
>  <i_m_ct_stereo_status>  (9) 
1

>  <s_m_source_file>  (9) 
/var/tmp/pbs.5076255.sched01/tmpu3exd1vk/0t_9me_9p.sdf

>  <i_m_source_file_index>  (9) 
3

>  <i_lp_mmshare_version>  (9) 
48012

>  <i_f3d_flags>  (9) 
0

>  <s_epik_input>  (9) 
W0NIMl0xW0NIMl1bQ0gyXVtDSDJdW0NIXTFOKFtDSDJdW0NIMl0yKVtDSDJdbihjMjMpbm5uMw==

>  <s_epik_cmdline>  (9) 
J2VwaWtfcHl0aG9uJywgJy1waHQnLCAnMi4wJywgJy1waCcsICc3LjAnLCAnLXRuJywgJzgnLCAnLW1hJywgJzIwMCcsICctaW1hZScsICc8aW5maWxlLm1hZT4nLCAnLW9tYWUnLCAnPG91dGZpbGUubWFlPic=

>  <r_lp_tautomer_probability>  (9) 
1

>  <r_epik_Ionization_Penalty>  (9) 
0.000981161

>  <r_epik_Ionization_Penalty_Charging>  (9) 
0

>  <r_epik_Ionization_Penalty_Neutral>  (9) 
0.000981161

>  <r_epik_State_Penalty>  (9) 
0.000638734

>  <r_epik_Charging_Adjusted_Penalty>  (9) 
0.000638734

>  <i_epik_Tot_Q>  (9) 
0

>  <i_epik_Tot_abs_Q>  (9) 
0

>  <s_epik_Chemistry_Notes>  (9) 
This compound contains an acetal/aminal-like group ( X-CH(R)-Y where X, Y are N, S, or O) that may be acid/base labile, releasing an aldehyde.

>  <s_lp_Force_Field>  (9) 
OPLS3e

>  <r_lp_Energy>  (9) 
34.6674

>  <b_lp_Chiralities_Consistent>  (9) 
1

>  <s_lp_Variant>  (9) 
2:0-1

>  <s_i_glide_gridfile>  (9) 
pfpi4k_grid

>  <i_i_glide_lignum>  (9) 
3

>  <i_i_glide_rotatable_bonds>  (9) 
1

>  <r_i_docking_score>  (9) 
-2.99701

>  <r_i_glide_ligand_efficiency>  (9) 
-0.214072

>  <r_i_glide_ligand_efficiency_sa>  (9) 
-0.515944

>  <r_i_glide_ligand_efficiency_ln>  (9) 
-0.823567

>  <r_i_glide_gscore>  (9) 
-2.99701

>  <r_i_glide_lipo>  (9) 
-0.278985

>  <r_i_glide_hbond>  (9) 
0

>  <r_i_glide_metal>  (9) 
-0

>  <r_i_glide_rewards>  (9) 
-2.12132

>  <r_i_glide_evdw>  (9) 
-18.3543

>  <r_i_glide_ecoul>  (9) 
0.156812

>  <r_i_glide_erotb>  (9) 
0.432327

>  <r_i_glide_esite>  (9) 
-0.134838

>  <r_i_glide_emodel>  (9) 
-22.3176

>  <r_i_glide_energy>  (9) 
-18.1975

>  <r_i_glide_einternal>  (9) 
0.00320279

>  <r_i_glide_intrahb_reward>  (9) 
-0

>  <i_i_glide_confnum>  (9) 
1

>  <i_i_glide_posenum>  (9) 
4

>  <r_i_glide_eff_state_penalty>  (9) 
0

>  <ligand_id>  (9) 
2

>  <original_smiles>  (9) 
C1CCC(N2CCc3nnnn3C2)C1

>  <smiles>  (9) 
[H]C1([H])N(C2([H])C([H])([H])C([H])([H])C([H])([H])C2([H])[H])C([H])([H])C([H])([H])c2nnnn21

$$$$
3:0:0
     RDKit          3D

 60 64  0  0  1  0  0  0  0  0999 V2000
    5.5727   -1.5992    2.5019 C   0  0  0  0  0  0  0  0  0  0  0  0
    4.6441   -2.1470    1.4093 C   0  0  2  0  0  0  0  0  0  0  0  0
    3.8936   -3.4507    1.7958 C   0  0  0  0  0  0  0  0  0  0  0  0
    3.8368   -3.8898    3.0870 C   0  0  0  0  0  0  0  0  0  0  0  0
    3.0201   -4.9915    3.8139 C   0  0  1  0  0  0  0  0  0  0  0  0
    2.9107   -4.5023    5.1498 O   0  0  0  0  0  0  0  0  0  0  0  0
    1.4982   -5.0869    3.4336 C   0  0  0  0  0  0  0  0  0  0  0  0
    0.8727   -6.5069    3.4366 C   0  0  1  0  0  0  0  0  0  0  0  0
   -0.5327   -6.3772    3.5433 O   0  0  0  0  0  0  0  0  0  0  0  0
    1.1939   -7.4385    2.2230 C   0  0  1  0  0  0  0  0  0  0  0  0
    0.6051   -8.8389    2.4938 C   0  0  0  0  0  0  0  0  0  0  0  0
    0.4744   -7.0289    1.0668 O   0  0  0  0  0  0  0  0  0  0  0  0
    2.7244   -7.5755    1.8888 C   0  0  1  0  0  0  0  0  0  0  0  0
    3.3494   -6.5931    0.9191 C   0  0  0  0  0  0  0  0  0  0  0  0
    4.6156   -6.8787    0.5978 C   0  0  0  0  0  0  0  0  0  0  0  0
    5.8172   -6.0964    1.0491 C   0  0  0  0  0  0  0  0  0  0  0  0
    5.8437   -6.0674    2.5846 C   0  0  0  0  0  0  0  0  0  0  0  0
    6.6038   -5.2606    3.0959 O   0  0  0  0  0  0  0  0  0  0  0  0
    5.0019   -6.9697    3.4767 C   0  0  1  0  0  0  0  0  0  0  0  0
    5.9729   -7.6720    4.4434 C   0  0  0  0  0  0  0  0  0  0  0  0
    3.7228   -6.3667    4.0907 C   0  0  2  0  0  0  0  0  0  0  0  0
    3.6029   -7.5595    3.1694 C   0  0  1  0  0  0  0  0  0  0  0  0
    3.4298   -8.7421    3.8881 O   0  0  0  0  0  0  0  0  0  0  0  0
    2.6537   -5.3944    0.9496 O   0  0  0  0  0  0  0  0  0  0  0  0
    3.1798   -4.1177    0.6220 C   0  0  2  0  0  0  0  0  0  0  0  0
    3.8247   -4.0154   -0.7788 C   0  0  0  0  0  0  0  0  0  0  0  0
    4.4444   -2.6524   -1.0805 C   0  0  1  0  0  0  0  0  0  0  0  0
    3.4456   -1.6670   -1.3145 O   0  0  0  0  0  0  0  0  0  0  0  0
    5.3920   -2.2631    0.0555 C   0  0  1  0  0  0  0  0  0  0  0  0
    6.0280   -1.0560   -0.3147 O   0  0  0  0  0  0  0  0  0  0  0  0
    5.0354   -1.3186    3.4078 H   0  0  0  0  0  0  0  0  0  0  0  0
    6.1287   -0.7154    2.1850 H   0  0  0  0  0  0  0  0  0  0  0  0
    6.2912   -2.3699    2.7637 H   0  0  0  0  0  0  0  0  0  0  0  0
    3.8625   -1.4022    1.2918 H   0  0  0  0  0  0  0  0  0  0  0  0
    4.3980   -3.3243    3.8062 H   0  0  0  0  0  0  0  0  0  0  0  0
    3.7768   -4.4756    5.5403 H   0  0  0  0  0  0  0  0  0  0  0  0
    0.9194   -4.4844    4.1360 H   0  0  0  0  0  0  0  0  0  0  0  0
    1.2642   -4.5755    2.5090 H   0  0  0  0  0  0  0  0  0  0  0  0
    1.1631   -6.9996    4.3656 H   0  0  0  0  0  0  0  0  0  0  0  0
   -0.8905   -7.2271    3.7572 H   0  0  0  0  0  0  0  0  0  0  0  0
    0.9536   -9.2585    3.4373 H   0  0  0  0  0  0  0  0  0  0  0  0
    0.8859   -9.5458    1.7163 H   0  0  0  0  0  0  0  0  0  0  0  0
   -0.4848   -8.8272    2.5342 H   0  0  0  0  0  0  0  0  0  0  0  0
    0.4304   -7.7828    0.4911 H   0  0  0  0  0  0  0  0  0  0  0  0
    2.8766   -8.5518    1.4106 H   0  0  0  0  0  0  0  0  0  0  0  0
    4.8901   -7.9261    0.7079 H   0  0  0  0  0  0  0  0  0  0  0  0
    6.7161   -6.6011    0.6854 H   0  0  0  0  0  0  0  0  0  0  0  0
    5.8395   -5.0789    0.6643 H   0  0  0  0  0  0  0  0  0  0  0  0
    5.4479   -8.1949    5.2311 H   0  0  0  0  0  0  0  0  0  0  0  0
    6.6276   -6.9576    4.9411 H   0  0  0  0  0  0  0  0  0  0  0  0
    6.5903   -8.3926    3.9097 H   0  0  0  0  0  0  0  0  0  0  0  0
    3.5880   -6.6593    5.1296 H   0  0  0  0  0  0  0  0  0  0  0  0
    3.6423   -9.4790    3.3328 H   0  0  0  0  0  0  0  0  0  0  0  0
    2.2905   -3.4910    0.5312 H   0  0  0  0  0  0  0  0  0  0  0  0
    4.5874   -4.7685   -0.9404 H   0  0  0  0  0  0  0  0  0  0  0  0
    3.0595   -4.2305   -1.5212 H   0  0  0  0  0  0  0  0  0  0  0  0
    5.0136   -2.7198   -2.0081 H   0  0  0  0  0  0  0  0  0  0  0  0
    2.7200   -1.7401   -0.6979 H   0  0  0  0  0  0  0  0  0  0  0  0
    6.1828   -3.0104    0.1343 H   0  0  0  0  0  0  0  0  0  0  0  0
    5.3549   -0.3829   -0.3402 H   0  0  0  0  0  0  0  0  0  0  0  0
  1  2  1  0
  1 31  1  0
  1 32  1  0
  1 33  1  0
  2 29  1  0
  2  3  1  0
  2 34  1  6
  3 25  1  0
  3  4  2  3
  4  5  1  0
  4 35  1  0
  5 21  1  0
  5  6  1  1
  5  7  1  0
  6 36  1  0
  7  8  1  0
  7 37  1  0
  7 38  1  0
  8  9  1  0
  8 10  1  0
  8 39  1  1
  9 40  1  0
 10 11  1  0
 10 12  1  6
 10 13  1  0
 11 41  1  0
 11 42  1  0
 11 43  1  0
 12 44  1  0
 13 22  1  0
 13 14  1  0
 13 45  1  6
 14 15  2  0
 14 24  1  0
 15 16  1  0
 15 46  1  0
 16 17  1  0
 16 47  1  0
 16 48  1  0
 17 18  2  0
 17 19  1  0
 19 22  1  0
 19 20  1  1
 19 21  1  0
 20 49  1  0
 20 50  1  0
 20 51  1  0
 21 22  1  0
 21 52  1  1
 22 23  1  1
 23 53  1  0
 24 25  1  0
 25 26  1  0
 25 54  1  6
 26 27  1  0
 26 55  1  0
 26 56  1  0
 27 28  1  0
 27 29  1  0
 27 57  1  6
 28 58  1  0
 29 30  1  0
 29 59  1  1
 30 60  1  0
M  END
>  <i_m_ct_stereo_status>  (10) 
1

>  <s_m_source_file>  (10) 
/var/tmp/pbs.5076255.sched01/tmpu3exd1vk/0t_9me_9p.sdf

>  <i_m_source_file_index>  (10) 
4

>  <i_lp_mmshare_version>  (10) 
48012

>  <i_f3d_flags>  (10) 
0

>  <s_epik_input>  (10) 
W0NIMl0xW0NAQEhdKFtPSF0pW0NAQEhdKFtPSF0pW0NASF0oW0NIM10pL0MoPVtDSF0vMilbQ0BASF0xT0MoPVtDSF1bQ0gyXUMzPU8pW0NASF0oW0NAXShbQ0gzXSkoW09IXSlbQ0BASF0oW0NIMl00KVtPSF0pW0NAQF01KFtPSF0pW0NAXTMoW0NIM10pW0NASF01W0NAQF0yNFtPSF0=

>  <s_epik_cmdline>  (10) 
J2VwaWtfcHl0aG9uJywgJy1waHQnLCAnMi4wJywgJy1waCcsICc3LjAnLCAnLXRuJywgJzgnLCAnLW1hJywgJzIwMCcsICctaW1hZScsICc8aW5maWxlLm1hZT4nLCAnLW9tYWUnLCAnPG91dGZpbGUubWFlPic=

>  <r_lp_tautomer_probability>  (10) 
1

>  <r_epik_Ionization_Penalty>  (10) 
4.03541e-07

>  <r_epik_Ionization_Penalty_Charging>  (10) 
0

>  <r_epik_Ionization_Penalty_Neutral>  (10) 
4.03541e-07

>  <r_epik_State_Penalty>  (10) 
-0

>  <r_epik_Charging_Adjusted_Penalty>  (10) 
0

>  <i_epik_Tot_Q>  (10) 
0

>  <i_epik_Tot_abs_Q>  (10) 
0

>  <s_lp_Force_Field>  (10) 
OPLS3e

>  <r_lp_Energy>  (10) 
98.9881

>  <b_lp_Chiralities_Consistent>  (10) 
1

>  <s_lp_Variant>  (10) 
3:0-1

>  <s_i_glide_gridfile>  (10) 
pfpi4k_grid

>  <i_i_glide_lignum>  (10) 
4

>  <i_i_glide_rotatable_bonds>  (10) 
6

>  <r_i_docking_score>  (10) 
-3.58895

>  <r_i_glide_ligand_efficiency>  (10) 
-0.119632

>  <r_i_glide_ligand_efficiency_sa>  (10) 
-0.371724

>  <r_i_glide_ligand_efficiency_ln>  (10) 
-0.815449

>  <r_i_glide_gscore>  (10) 
-3.58895

>  <r_i_glide_lipo>  (10) 
-0.369276

>  <r_i_glide_hbond>  (10) 
0

>  <r_i_glide_metal>  (10) 
-0

>  <r_i_glide_rewards>  (10) 
-0.545755

>  <r_i_glide_evdw>  (10) 
-22.1949

>  <r_i_glide_ecoul>  (10) 
-10.4279

>  <r_i_glide_erotb>  (10) 
0

>  <r_i_glide_esite>  (10) 
0

>  <r_i_glide_emodel>  (10) 
-40.0876

>  <r_i_glide_energy>  (10) 
-32.6227

>  <r_i_glide_einternal>  (10) 
1.19646

>  <r_i_glide_intrahb_reward>  (10) 
-0

>  <i_i_glide_confnum>  (10) 
2

>  <i_i_glide_posenum>  (10) 
34

>  <r_i_glide_eff_state_penalty>  (10) 
0

>  <ligand_id>  (10) 
3

>  <original_smiles>  (10) 
CC1C2=CC3(O)CC(O)C(C)(O)C4C(=CCC(=O)C5(C)C3C45O)OC2CC(O)C1O

>  <smiles>  (10) 
[H]OC1([H])C([H])([H])C2([H])OC3=C([H])C([H])([H])C(=O)C4(C([H])([H])[H])C5([H])C(O[H])(C([H])=C2C([H])(C([H])([H])[H])C1([H])O[H])C([H])([H])C([H])(O[H])C(O[H])(C([H])([H])[H])C3([H])C54O[H]

$$$$
3:0:1
     RDKit          3D

 60 64  0  0  1  0  0  0  0  0999 V2000
    6.9856   -2.8658   -1.6518 C   0  0  0  0  0  0  0  0  0  0  0  0
    5.4742   -2.5775   -1.7696 C   0  0  2  0  0  0  0  0  0  0  0  0
    4.7711   -2.3369   -0.4305 C   0  0  0  0  0  0  0  0  0  0  0  0
    5.4720   -2.0782    0.7159 C   0  0  0  0  0  0  0  0  0  0  0  0
    5.0681   -1.5988    2.1216 C   0  0  1  0  0  0  0  0  0  0  0  0
    6.1970   -0.8763    2.5292 O   0  0  0  0  0  0  0  0  0  0  0  0
    4.0154   -0.4301    2.1965 C   0  0  0  0  0  0  0  0  0  0  0  0
    3.0619   -0.4468    3.4046 C   0  0  1  0  0  0  0  0  0  0  0  0
    2.5369    0.8631    3.5429 O   0  0  0  0  0  0  0  0  0  0  0  0
    1.8903   -1.4682    3.3460 C   0  0  1  0  0  0  0  0  0  0  0  0
    1.1062   -1.4464    4.6797 C   0  0  0  0  0  0  0  0  0  0  0  0
    0.9665   -0.9865    2.3984 O   0  0  0  0  0  0  0  0  0  0  0  0
    2.3011   -2.9500    3.0267 C   0  0  1  0  0  0  0  0  0  0  0  0
    2.4066   -3.3996    1.5847 C   0  0  0  0  0  0  0  0  0  0  0  0
    2.6181   -4.7001    1.4053 C   0  0  0  0  0  0  0  0  0  0  0  0
    3.8861   -5.2952    0.8680 C   0  0  0  0  0  0  0  0  0  0  0  0
    5.0497   -4.8462    1.7875 C   0  0  0  0  0  0  0  0  0  0  0  0
    6.1832   -5.0157    1.3393 O   0  0  0  0  0  0  0  0  0  0  0  0
    4.8468   -4.2118    3.1773 C   0  0  1  0  0  0  0  0  0  0  0  0
    5.6583   -5.0668    4.1462 C   0  0  0  0  0  0  0  0  0  0  0  0
    4.9677   -2.6655    3.2586 C   0  0  2  0  0  0  0  0  0  0  0  0
    3.6581   -3.3254    3.6305 C   0  0  1  0  0  0  0  0  0  0  0  0
    3.5229   -3.4231    5.0399 O   0  0  0  0  0  0  0  0  0  0  0  0
    2.6545   -2.2958    0.7731 O   0  0  0  0  0  0  0  0  0  0  0  0
    3.2540   -2.3363   -0.5126 C   0  0  2  0  0  0  0  0  0  0  0  0
    2.5582   -3.2605   -1.5496 C   0  0  0  0  0  0  0  0  0  0  0  0
    3.2926   -3.3057   -2.8889 C   0  0  1  0  0  0  0  0  0  0  0  0
    3.1374   -2.0708   -3.5587 O   0  0  0  0  0  0  0  0  0  0  0  0
    4.7638   -3.6460   -2.6229 C   0  0  1  0  0  0  0  0  0  0  0  0
    5.3763   -3.8133   -3.8698 O   0  0  0  0  0  0  0  0  0  0  0  0
    7.5372   -2.0238   -1.2359 H   0  0  0  0  0  0  0  0  0  0  0  0
    7.4084   -3.0425   -2.6347 H   0  0  0  0  0  0  0  0  0  0  0  0
    7.1916   -3.7409   -1.0369 H   0  0  0  0  0  0  0  0  0  0  0  0
    5.3837   -1.6327   -2.3101 H   0  0  0  0  0  0  0  0  0  0  0  0
    6.5439   -2.1167    0.6473 H   0  0  0  0  0  0  0  0  0  0  0  0
    6.0418   -0.4894    3.3706 H   0  0  0  0  0  0  0  0  0  0  0  0
    4.5353    0.5246    2.2466 H   0  0  0  0  0  0  0  0  0  0  0  0
    3.4757   -0.2787    1.2621 H   0  0  0  0  0  0  0  0  0  0  0  0
    3.6355   -0.6156    4.3176 H   0  0  0  0  0  0  0  0  0  0  0  0
    2.0240    1.0628    2.7743 H   0  0  0  0  0  0  0  0  0  0  0  0
    1.7457   -1.6516    5.5318 H   0  0  0  0  0  0  0  0  0  0  0  0
    0.3104   -2.1976    4.6883 H   0  0  0  0  0  0  0  0  0  0  0  0
    0.6372   -0.4841    4.8509 H   0  0  0  0  0  0  0  0  0  0  0  0
    1.3279   -1.0701    1.5236 H   0  0  0  0  0  0  0  0  0  0  0  0
    1.5574   -3.6233    3.4590 H   0  0  0  0  0  0  0  0  0  0  0  0
    2.3122   -5.3332    2.2372 H   0  0  0  0  0  0  0  0  0  0  0  0
    3.7833   -6.3831    0.8957 H   0  0  0  0  0  0  0  0  0  0  0  0
    4.0845   -5.0124   -0.1596 H   0  0  0  0  0  0  0  0  0  0  0  0
    5.7469   -4.5839    5.1155 H   0  0  0  0  0  0  0  0  0  0  0  0
    6.6805   -5.2074    3.7921 H   0  0  0  0  0  0  0  0  0  0  0  0
    5.2039   -6.0420    4.2846 H   0  0  0  0  0  0  0  0  0  0  0  0
    5.5435   -2.3606    4.1286 H   0  0  0  0  0  0  0  0  0  0  0  0
    4.3188   -3.7553    5.4253 H   0  0  0  0  0  0  0  0  0  0  0  0
    3.1001   -1.3361   -0.9211 H   0  0  0  0  0  0  0  0  0  0  0  0
    2.4631   -4.2695   -1.1755 H   0  0  0  0  0  0  0  0  0  0  0  0
    1.5318   -2.9549   -1.7420 H   0  0  0  0  0  0  0  0  0  0  0  0
    2.8478   -4.0704   -3.5273 H   0  0  0  0  0  0  0  0  0  0  0  0
    2.2182   -1.9288   -3.7090 H   0  0  0  0  0  0  0  0  0  0  0  0
    4.8378   -4.6128   -2.1331 H   0  0  0  0  0  0  0  0  0  0  0  0
    6.2708   -3.9985   -3.7276 H   0  0  0  0  0  0  0  0  0  0  0  0
  1  2  1  0
  1 31  1  0
  1 32  1  0
  1 33  1  0
  2 29  1  0
  2  3  1  0
  2 34  1  6
  3 25  1  0
  3  4  2  3
  4  5  1  0
  4 35  1  0
  5 21  1  0
  5  6  1  1
  5  7  1  0
  6 36  1  0
  7  8  1  0
  7 37  1  0
  7 38  1  0
  8  9  1  0
  8 10  1  0
  8 39  1  1
  9 40  1  0
 10 11  1  0
 10 12  1  6
 10 13  1  0
 11 41  1  0
 11 42  1  0
 11 43  1  0
 12 44  1  0
 13 22  1  0
 13 14  1  0
 13 45  1  1
 14 15  2  0
 14 24  1  0
 15 16  1  0
 15 46  1  0
 16 17  1  0
 16 47  1  0
 16 48  1  0
 17 18  2  0
 17 19  1  0
 19 22  1  0
 19 20  1  1
 19 21  1  0
 20 49  1  0
 20 50  1  0
 20 51  1  0
 21 22  1  0
 21 52  1  1
 22 23  1  1
 23 53  1  0
 24 25  1  0
 25 26  1  0
 25 54  1  6
 26 27  1  0
 26 55  1  0
 26 56  1  0
 27 28  1  0
 27 29  1  0
 27 57  1  6
 28 58  1  0
 29 30  1  0
 29 59  1  1
 30 60  1  0
M  END
>  <i_m_ct_stereo_status>  (11) 
1

>  <s_m_source_file>  (11) 
/var/tmp/pbs.5076255.sched01/tmpu3exd1vk/0t_9me_9p.sdf

>  <i_m_source_file_index>  (11) 
4

>  <i_lp_mmshare_version>  (11) 
48012

>  <i_f3d_flags>  (11) 
0

>  <s_epik_input>  (11) 
W0NIMl0xW0NAQEhdKFtPSF0pW0NAQEhdKFtPSF0pW0NASF0oW0NIM10pL0MoPVtDSF0vMilbQ0BASF0xT0MoPVtDSF1bQ0gyXUMzPU8pW0NASF0oW0NAXShbQ0gzXSkoW09IXSlbQ0BASF0oW0NIMl00KVtPSF0pW0NAQF01KFtPSF0pW0NAXTMoW0NIM10pW0NASF01W0NAQF0yNFtPSF0=

>  <s_epik_cmdline>  (11) 
J2VwaWtfcHl0aG9uJywgJy1waHQnLCAnMi4wJywgJy1waCcsICc3LjAnLCAnLXRuJywgJzgnLCAnLW1hJywgJzIwMCcsICctaW1hZScsICc8aW5maWxlLm1hZT4nLCAnLW9tYWUnLCAnPG91dGZpbGUubWFlPic=

>  <r_lp_tautomer_probability>  (11) 
1

>  <r_epik_Ionization_Penalty>  (11) 
4.03541e-07

>  <r_epik_Ionization_Penalty_Charging>  (11) 
0

>  <r_epik_Ionization_Penalty_Neutral>  (11) 
4.03541e-07

>  <r_epik_State_Penalty>  (11) 
-0

>  <r_epik_Charging_Adjusted_Penalty>  (11) 
0

>  <i_epik_Tot_Q>  (11) 
0

>  <i_epik_Tot_abs_Q>  (11) 
0

>  <s_lp_Force_Field>  (11) 
OPLS3e

>  <r_lp_Energy>  (11) 
98.9881

>  <b_lp_Chiralities_Consistent>  (11) 
1

>  <s_lp_Variant>  (11) 
3:0-1

>  <s_i_glide_gridfile>  (11) 
pfpi4k_grid

>  <i_i_glide_lignum>  (11) 
4

>  <i_i_glide_rotatable_bonds>  (11) 
6

>  <r_i_docking_score>  (11) 
-3.2493

>  <r_i_glide_ligand_efficiency>  (11) 
-0.10831

>  <r_i_glide_ligand_efficiency_sa>  (11) 
-0.336545

>  <r_i_glide_ligand_efficiency_ln>  (11) 
-0.738277

>  <r_i_glide_gscore>  (11) 
-3.2493

>  <r_i_glide_lipo>  (11) 
-0.390843

>  <r_i_glide_hbond>  (11) 
0

>  <r_i_glide_metal>  (11) 
-0

>  <r_i_glide_rewards>  (11) 
-1.06744

>  <r_i_glide_evdw>  (11) 
-23.8708

>  <r_i_glide_ecoul>  (11) 
-3.9832

>  <r_i_glide_erotb>  (11) 
0

>  <r_i_glide_esite>  (11) 
0

>  <r_i_glide_emodel>  (11) 
-39.6532

>  <r_i_glide_energy>  (11) 
-27.854

>  <r_i_glide_einternal>  (11) 
1.08579

>  <r_i_glide_intrahb_reward>  (11) 
-0.5

>  <i_i_glide_confnum>  (11) 
2

>  <i_i_glide_posenum>  (11) 
2

>  <r_i_glide_eff_state_penalty>  (11) 
0

>  <ligand_id>  (11) 
3

>  <original_smiles>  (11) 
CC1C2=CC3(O)CC(O)C(C)(O)C4C(=CCC(=O)C5(C)C3C45O)OC2CC(O)C1O

>  <smiles>  (11) 
[H]OC1([H])C([H])([H])C2([H])OC3=C([H])C([H])([H])C(=O)C4(C([H])([H])[H])C5([H])C(O[H])(C([H])=C2C([H])(C([H])([H])[H])C1([H])O[H])C([H])([H])C([H])(O[H])C(O[H])(C([H])([H])[H])C3([H])C54O[H]

$$$$
3:0:2
     RDKit          3D

 60 64  0  0  1  0  0  0  0  0999 V2000
    6.9767   -2.7886   -1.5961 C   0  0  0  0  0  0  0  0  0  0  0  0
    5.4566   -2.5508   -1.7142 C   0  0  2  0  0  0  0  0  0  0  0  0
    4.7507   -2.3157   -0.3703 C   0  0  0  0  0  0  0  0  0  0  0  0
    5.4504   -2.0185    0.7695 C   0  0  0  0  0  0  0  0  0  0  0  0
    5.0329   -1.5400    2.1767 C   0  0  1  0  0  0  0  0  0  0  0  0
    6.1347   -0.7801    2.6147 O   0  0  0  0  0  0  0  0  0  0  0  0
    3.9471   -0.4005    2.2446 C   0  0  0  0  0  0  0  0  0  0  0  0
    2.9952   -0.4206    3.4554 C   0  0  1  0  0  0  0  0  0  0  0  0
    2.4336    0.8747    3.5846 O   0  0  0  0  0  0  0  0  0  0  0  0
    1.8522   -1.4753    3.4137 C   0  0  1  0  0  0  0  0  0  0  0  0
    1.0733   -1.4604    4.7515 C   0  0  0  0  0  0  0  0  0  0  0  0
    0.9074   -1.0338    2.4624 O   0  0  0  0  0  0  0  0  0  0  0  0
    2.3101   -2.9480    3.1120 C   0  0  1  0  0  0  0  0  0  0  0  0
    2.4030   -3.4127    1.6696 C   0  0  0  0  0  0  0  0  0  0  0  0
    2.6538   -4.7067    1.5065 C   0  0  0  0  0  0  0  0  0  0  0  0
    3.9427   -5.2720    0.9732 C   0  0  0  0  0  0  0  0  0  0  0  0
    5.0974   -4.7801    1.8763 C   0  0  0  0  0  0  0  0  0  0  0  0
    6.2324   -4.9138    1.4285 O   0  0  0  0  0  0  0  0  0  0  0  0
    4.8886   -4.1419    3.2578 C   0  0  1  0  0  0  0  0  0  0  0  0
    5.7224   -4.9604    4.2401 C   0  0  0  0  0  0  0  0  0  0  0  0
    4.9712   -2.6004    3.3257 C   0  0  2  0  0  0  0  0  0  0  0  0
    3.6830   -3.2857    3.7205 C   0  0  1  0  0  0  0  0  0  0  0  0
    3.5794   -3.4029    5.1292 O   0  0  0  0  0  0  0  0  0  0  0  0
    2.6143   -2.3164    0.8384 O   0  0  0  0  0  0  0  0  0  0  0  0
    3.2275   -2.3628   -0.4427 C   0  0  2  0  0  0  0  0  0  0  0  0
    2.5594   -3.3226   -1.4695 C   0  0  0  0  0  0  0  0  0  0  0  0
    3.2900   -3.3482   -2.8191 C   0  0  1  0  0  0  0  0  0  0  0  0
    3.0948   -2.1146   -3.4832 O   0  0  0  0  0  0  0  0  0  0  0  0
    4.7756   -3.6503   -2.5634 C   0  0  1  0  0  0  0  0  0  0  0  0
    5.4072   -3.8517   -3.8135 O   0  0  0  0  0  0  0  0  0  0  0  0
    7.4946   -1.9238   -1.1861 H   0  0  0  0  0  0  0  0  0  0  0  0
    7.4136   -2.9631   -2.5731 H   0  0  0  0  0  0  0  0  0  0  0  0
    7.2052   -3.6483   -0.9671 H   0  0  0  0  0  0  0  0  0  0  0  0
    5.3335   -1.6139   -2.2574 H   0  0  0  0  0  0  0  0  0  0  0  0
    6.5217   -2.0257    0.6912 H   0  0  0  0  0  0  0  0  0  0  0  0
    6.9104   -1.3180    2.5760 H   0  0  0  0  0  0  0  0  0  0  0  0
    4.4569    0.5559    2.2902 H   0  0  0  0  0  0  0  0  0  0  0  0
    3.4077   -0.2692    1.3115 H   0  0  0  0  0  0  0  0  0  0  0  0
    3.5828   -0.5573    4.3630 H   0  0  0  0  0  0  0  0  0  0  0  0
    1.9300    1.0612    2.8070 H   0  0  0  0  0  0  0  0  0  0  0  0
    1.7190   -1.6319    5.6070 H   0  0  0  0  0  0  0  0  0  0  0  0
    0.2997   -2.2322    4.7717 H   0  0  0  0  0  0  0  0  0  0  0  0
    0.5754   -0.5090    4.9129 H   0  0  0  0  0  0  0  0  0  0  0  0
    1.2806   -1.0898    1.5885 H   0  0  0  0  0  0  0  0  0  0  0  0
    1.5838   -3.6338    3.5562 H   0  0  0  0  0  0  0  0  0  0  0  0
    2.3726   -5.3383    2.3491 H   0  0  0  0  0  0  0  0  0  0  0  0
    3.8757   -6.3632    1.0170 H   0  0  0  0  0  0  0  0  0  0  0  0
    4.1333   -4.9973   -0.0607 H   0  0  0  0  0  0  0  0  0  0  0  0
    5.7938   -4.4617    5.2049 H   0  0  0  0  0  0  0  0  0  0  0  0
    6.7439   -5.0735    3.8909 H   0  0  0  0  0  0  0  0  0  0  0  0
    5.2948   -5.9436    4.3962 H   0  0  0  0  0  0  0  0  0  0  0  0
    5.5277   -2.2592    4.2000 H   0  0  0  0  0  0  0  0  0  0  0  0
    3.2680   -2.5931    5.4975 H   0  0  0  0  0  0  0  0  0  0  0  0
    3.0408   -1.3698   -0.8574 H   0  0  0  0  0  0  0  0  0  0  0  0
    2.4984   -4.3353   -1.0930 H   0  0  0  0  0  0  0  0  0  0  0  0
    1.5162   -3.0556   -1.6393 H   0  0  0  0  0  0  0  0  0  0  0  0
    2.8540   -4.1127   -3.4661 H   0  0  0  0  0  0  0  0  0  0  0  0
    2.1675   -1.9896   -3.6059 H   0  0  0  0  0  0  0  0  0  0  0  0
    4.8624   -4.6024   -2.0430 H   0  0  0  0  0  0  0  0  0  0  0  0
    6.3082   -4.0047   -3.6583 H   0  0  0  0  0  0  0  0  0  0  0  0
  1  2  1  0
  1 31  1  0
  1 32  1  0
  1 33  1  0
  2 29  1  0
  2  3  1  0
  2 34  1  6
  3 25  1  0
  3  4  2  3
  4  5  1  0
  4 35  1  0
  5 21  1  0
  5  6  1  1
  5  7  1  0
  6 36  1  0
  7  8  1  0
  7 37  1  0
  7 38  1  0
  8  9  1  0
  8 10  1  0
  8 39  1  1
  9 40  1  0
 10 11  1  0
 10 12  1  6
 10 13  1  0
 11 41  1  0
 11 42  1  0
 11 43  1  0
 12 44  1  0
 13 22  1  0
 13 14  1  0
 13 45  1  1
 14 15  2  0
 14 24  1  0
 15 16  1  0
 15 46  1  0
 16 17  1  0
 16 47  1  0
 16 48  1  0
 17 18  2  0
 17 19  1  0
 19 22  1  0
 19 20  1  1
 19 21  1  0
 20 49  1  0
 20 50  1  0
 20 51  1  0
 21 22  1  0
 21 52  1  1
 22 23  1  1
 23 53  1  0
 24 25  1  0
 25 26  1  0
 25 54  1  6
 26 27  1  0
 26 55  1  0
 26 56  1  0
 27 28  1  0
 27 29  1  0
 27 57  1  6
 28 58  1  0
 29 30  1  0
 29 59  1  1
 30 60  1  0
M  END
>  <i_m_ct_stereo_status>  (12) 
1

>  <s_m_source_file>  (12) 
/var/tmp/pbs.5076255.sched01/tmpu3exd1vk/0t_9me_9p.sdf

>  <i_m_source_file_index>  (12) 
4

>  <i_lp_mmshare_version>  (12) 
48012

>  <i_f3d_flags>  (12) 
0

>  <s_epik_input>  (12) 
W0NIMl0xW0NAQEhdKFtPSF0pW0NAQEhdKFtPSF0pW0NASF0oW0NIM10pL0MoPVtDSF0vMilbQ0BASF0xT0MoPVtDSF1bQ0gyXUMzPU8pW0NASF0oW0NAXShbQ0gzXSkoW09IXSlbQ0BASF0oW0NIMl00KVtPSF0pW0NAQF01KFtPSF0pW0NAXTMoW0NIM10pW0NASF01W0NAQF0yNFtPSF0=

>  <s_epik_cmdline>  (12) 
J2VwaWtfcHl0aG9uJywgJy1waHQnLCAnMi4wJywgJy1waCcsICc3LjAnLCAnLXRuJywgJzgnLCAnLW1hJywgJzIwMCcsICctaW1hZScsICc8aW5maWxlLm1hZT4nLCAnLW9tYWUnLCAnPG91dGZpbGUubWFlPic=

>  <r_lp_tautomer_probability>  (12) 
1

>  <r_epik_Ionization_Penalty>  (12) 
4.03541e-07

>  <r_epik_Ionization_Penalty_Charging>  (12) 
0

>  <r_epik_Ionization_Penalty_Neutral>  (12) 
4.03541e-07

>  <r_epik_State_Penalty>  (12) 
-0

>  <r_epik_Charging_Adjusted_Penalty>  (12) 
0

>  <i_epik_Tot_Q>  (12) 
0

>  <i_epik_Tot_abs_Q>  (12) 
0

>  <s_lp_Force_Field>  (12) 
OPLS3e

>  <r_lp_Energy>  (12) 
98.9881

>  <b_lp_Chiralities_Consistent>  (12) 
1

>  <s_lp_Variant>  (12) 
3:0-1

>  <s_i_glide_gridfile>  (12) 
pfpi4k_grid

>  <i_i_glide_lignum>  (12) 
4

>  <i_i_glide_rotatable_bonds>  (12) 
6

>  <r_i_docking_score>  (12) 
-3.24847

>  <r_i_glide_ligand_efficiency>  (12) 
-0.108282

>  <r_i_glide_ligand_efficiency_sa>  (12) 
-0.336458

>  <r_i_glide_ligand_efficiency_ln>  (12) 
-0.738087

>  <r_i_glide_gscore>  (12) 
-3.24847

>  <r_i_glide_lipo>  (12) 
-0.402718

>  <r_i_glide_hbond>  (12) 
0

>  <r_i_glide_metal>  (12) 
-0

>  <r_i_glide_rewards>  (12) 
-1.06597

>  <r_i_glide_evdw>  (12) 
-23.4744

>  <r_i_glide_ecoul>  (12) 
-4.04042

>  <r_i_glide_erotb>  (12) 
0

>  <r_i_glide_esite>  (12) 
0

>  <r_i_glide_emodel>  (12) 
-39.2386

>  <r_i_glide_energy>  (12) 
-27.5148

>  <r_i_glide_einternal>  (12) 
0.797354

>  <r_i_glide_intrahb_reward>  (12) 
-0.5

>  <i_i_glide_confnum>  (12) 
2

>  <i_i_glide_posenum>  (12) 
12

>  <r_i_glide_eff_state_penalty>  (12) 
0

>  <ligand_id>  (12) 
3

>  <original_smiles>  (12) 
CC1C2=CC3(O)CC(O)C(C)(O)C4C(=CCC(=O)C5(C)C3C45O)OC2CC(O)C1O

>  <smiles>  (12) 
[H]OC1([H])C([H])([H])C2([H])OC3=C([H])C([H])([H])C(=O)C4(C([H])([H])[H])C5([H])C(O[H])(C([H])=C2C([H])(C([H])([H])[H])C1([H])O[H])C([H])([H])C([H])(O[H])C(O[H])(C([H])([H])[H])C3([H])C54O[H]

$$$$
3:1:0
     RDKit          3D

 60 64  0  0  1  0  0  0  0  0999 V2000
    0.5096    5.9197    5.1598 C   0  0  0  0  0  0  0  0  0  0  0  0
   -0.4043    4.6590    5.1992 C   0  0  2  0  0  0  0  0  0  0  0  0
    0.1013    3.5596    6.1341 C   0  0  0  0  0  0  0  0  0  0  0  0
    1.1183    3.6489    7.0195 C   0  0  0  0  0  0  0  0  0  0  0  0
    1.2221    4.4864    8.2905 C   0  0  1  0  0  0  0  0  0  0  0  0
    2.3204    5.3568    8.1059 O   0  0  0  0  0  0  0  0  0  0  0  0
   -0.0342    5.3761    8.5643 C   0  0  0  0  0  0  0  0  0  0  0  0
   -1.1667    4.8298    9.4614 C   0  0  1  0  0  0  0  0  0  0  0  0
   -2.1808    5.8221    9.4520 O   0  0  0  0  0  0  0  0  0  0  0  0
   -1.7764    3.4273    9.1103 C   0  0  1  0  0  0  0  0  0  0  0  0
   -2.9646    3.1491   10.0648 C   0  0  0  0  0  0  0  0  0  0  0  0
   -2.3956    3.5181    7.8604 O   0  0  0  0  0  0  0  0  0  0  0  0
   -0.7105    2.2549    9.2191 C   0  0  1  0  0  0  0  0  0  0  0  0
   -0.4319    1.0569    8.2214 C   0  0  0  0  0  0  0  0  0  0  0  0
    0.2047    0.0766    8.8730 C   0  0  0  0  0  0  0  0  0  0  0  0
    1.6765   -0.1441    8.5826 C   0  0  0  0  0  0  0  0  0  0  0  0
    2.4524    1.1851    8.8289 C   0  0  0  0  0  0  0  0  0  0  0  0
    3.4771    1.3957    8.1756 O   0  0  0  0  0  0  0  0  0  0  0  0
    2.0180    2.1974    9.9000 C   0  0  1  0  0  0  0  0  0  0  0  0
    2.9475    2.0217   11.0834 C   0  0  0  0  0  0  0  0  0  0  0  0
    1.5504    3.6588    9.5710 C   0  0  2  0  0  0  0  0  0  0  0  0
    0.5432    2.6206   10.0250 C   0  0  1  0  0  0  0  0  0  0  0  0
    0.2387    2.7807   11.4195 O   0  0  0  0  0  0  0  0  0  0  0  0
   -0.0088    1.2478    6.9005 O   0  0  0  0  0  0  0  0  0  0  0  0
   -0.5504    2.1911    5.9728 C   0  0  2  0  0  0  0  0  0  0  0  0
   -0.4183    1.7120    4.5197 C   0  0  0  0  0  0  0  0  0  0  0  0
   -1.0976    2.7063    3.5553 C   0  0  1  0  0  0  0  0  0  0  0  0
   -2.5006    2.6826    3.7713 O   0  0  0  0  0  0  0  0  0  0  0  0
   -0.5181    4.1339    3.7328 C   0  0  1  0  0  0  0  0  0  0  0  0
   -1.1964    5.0555    2.8837 O   0  0  0  0  0  0  0  0  0  0  0  0
    0.6602    6.4115    6.1180 H   0  0  0  0  0  0  0  0  0  0  0  0
    0.0960    6.6827    4.4961 H   0  0  0  0  0  0  0  0  0  0  0  0
    1.5012    5.6719    4.7766 H   0  0  0  0  0  0  0  0  0  0  0  0
   -1.3916    4.9461    5.5482 H   0  0  0  0  0  0  0  0  0  0  0  0
    1.5623    2.7258    7.2407 H   0  0  0  0  0  0  0  0  0  0  0  0
    2.2026    5.8251    7.3024 H   0  0  0  0  0  0  0  0  0  0  0  0
    0.3109    6.3016    9.0324 H   0  0  0  0  0  0  0  0  0  0  0  0
   -0.5094    5.7065    7.6449 H   0  0  0  0  0  0  0  0  0  0  0  0
   -0.8123    4.8404   10.4948 H   0  0  0  0  0  0  0  0  0  0  0  0
   -2.8111    5.6091   10.1044 H   0  0  0  0  0  0  0  0  0  0  0  0
   -2.6658    3.1547   11.1118 H   0  0  0  0  0  0  0  0  0  0  0  0
   -3.4202    2.1796    9.8557 H   0  0  0  0  0  0  0  0  0  0  0  0
   -3.7548    3.8899    9.9454 H   0  0  0  0  0  0  0  0  0  0  0  0
   -1.7350    3.7364    7.2356 H   0  0  0  0  0  0  0  0  0  0  0  0
   -1.2458    1.6278    9.9267 H   0  0  0  0  0  0  0  0  0  0  0  0
    0.0481   -0.0548    9.9228 H   0  0  0  0  0  0  0  0  0  0  0  0
    2.0640   -0.9305    9.2365 H   0  0  0  0  0  0  0  0  0  0  0  0
    1.8317   -0.4543    7.5523 H   0  0  0  0  0  0  0  0  0  0  0  0
    2.7568    2.7801   11.8435 H   0  0  0  0  0  0  0  0  0  0  0  0
    3.9854    2.1390   10.7882 H   0  0  0  0  0  0  0  0  0  0  0  0
    2.8207    1.0528   11.5502 H   0  0  0  0  0  0  0  0  0  0  0  0
    1.8644    4.3429   10.3545 H   0  0  0  0  0  0  0  0  0  0  0  0
   -0.4408    2.1814   11.6647 H   0  0  0  0  0  0  0  0  0  0  0  0
   -1.6183    2.2304    6.1277 H   0  0  0  0  0  0  0  0  0  0  0  0
    0.6393    1.6207    4.2656 H   0  0  0  0  0  0  0  0  0  0  0  0
   -0.8492    0.7205    4.4023 H   0  0  0  0  0  0  0  0  0  0  0  0
   -0.9189    2.3949    2.5229 H   0  0  0  0  0  0  0  0  0  0  0  0
   -2.8602    1.9141    3.3580 H   0  0  0  0  0  0  0  0  0  0  0  0
    0.4952    4.0856    3.3412 H   0  0  0  0  0  0  0  0  0  0  0  0
   -0.8085    4.9421    1.9997 H   0  0  0  0  0  0  0  0  0  0  0  0
  1  2  1  0
  1 31  1  0
  1 32  1  0
  1 33  1  0
  2 29  1  0
  2  3  1  0
  2 34  1  1
  3 25  1  0
  3  4  2  3
  4  5  1  0
  4 35  1  0
  5 21  1  0
  5  6  1  6
  5  7  1  0
  6 36  1  0
  7  8  1  0
  7 37  1  0
  7 38  1  0
  8  9  1  0
  8 10  1  0
  8 39  1  1
  9 40  1  0
 10 11  1  0
 10 12  1  6
 10 13  1  0
 11 41  1  0
 11 42  1  0
 11 43  1  0
 12 44  1  0
 13 22  1  0
 13 14  1  0
 13 45  1  1
 14 15  2  0
 14 24  1  0
 15 16  1  0
 15 46  1  0
 16 17  1  0
 16 47  1  0
 16 48  1  0
 17 18  2  0
 17 19  1  0
 19 22  1  0
 19 20  1  1
 19 21  1  0
 20 49  1  0
 20 50  1  0
 20 51  1  0
 21 22  1  0
 21 52  1  1
 22 23  1  1
 23 53  1  0
 24 25  1  0
 25 26  1  0
 25 54  1  1
 26 27  1  0
 26 55  1  0
 26 56  1  0
 27 28  1  0
 27 29  1  0
 27 57  1  6
 28 58  1  0
 29 30  1  0
 29 59  1  6
 30 60  1  0
M  END
>  <i_m_ct_stereo_status>  (13) 
1

>  <s_m_source_file>  (13) 
/var/tmp/pbs.5076255.sched01/tmpu3exd1vk/0t_9me_9p.sdf

>  <i_m_source_file_index>  (13) 
5

>  <i_lp_mmshare_version>  (13) 
48012

>  <i_f3d_flags>  (13) 
0

>  <s_epik_input>  (13) 
W0NIMl0xW0NAQEhdKFtPSF0pW0NAQEhdKFtPSF0pW0NASF0oW0NIM10pL0MoPVtDSF0vMilbQ0BASF0xT0MoPVtDSF1bQ0gyXUMzPU8pW0NASF0oW0NAXShbQ0gzXSkoW09IXSlbQ0BASF0oW0NIMl00KVtPSF0pW0NAQF01KFtPSF0pW0NAXTMoW0NIM10pW0NASF01W0NAQF0yNFtPSF0=

>  <s_epik_cmdline>  (13) 
J2VwaWtfcHl0aG9uJywgJy1waHQnLCAnMi4wJywgJy1waCcsICc3LjAnLCAnLXRuJywgJzgnLCAnLW1hJywgJzIwMCcsICctaW1hZScsICc8aW5maWxlLm1hZT4nLCAnLW9tYWUnLCAnPG91dGZpbGUubWFlPic=

>  <r_lp_tautomer_probability>  (13) 
1

>  <r_epik_Ionization_Penalty>  (13) 
4.03541e-07

>  <r_epik_Ionization_Penalty_Charging>  (13) 
0

>  <r_epik_Ionization_Penalty_Neutral>  (13) 
4.03541e-07

>  <r_epik_State_Penalty>  (13) 
-0

>  <r_epik_Charging_Adjusted_Penalty>  (13) 
0

>  <i_epik_Tot_Q>  (13) 
0

>  <i_epik_Tot_abs_Q>  (13) 
0

>  <s_lp_Force_Field>  (13) 
OPLS3e

>  <r_lp_Energy>  (13) 
132.178

>  <b_lp_Chiralities_Consistent>  (13) 
1

>  <s_lp_Variant>  (13) 
3:0-2

>  <s_i_glide_gridfile>  (13) 
pfpi4k_grid

>  <i_i_glide_lignum>  (13) 
5

>  <i_i_glide_rotatable_bonds>  (13) 
6

>  <r_i_docking_score>  (13) 
-3.38952

>  <r_i_glide_ligand_efficiency>  (13) 
-0.112984

>  <r_i_glide_ligand_efficiency_sa>  (13) 
-0.351067

>  <r_i_glide_ligand_efficiency_ln>  (13) 
-0.770135

>  <r_i_glide_gscore>  (13) 
-3.38952

>  <r_i_glide_lipo>  (13) 
0

>  <r_i_glide_hbond>  (13) 
0

>  <r_i_glide_metal>  (13) 
-0

>  <r_i_glide_rewards>  (13) 
-0.528622

>  <r_i_glide_evdw>  (13) 
-18.8936

>  <r_i_glide_ecoul>  (13) 
-12.7748

>  <r_i_glide_erotb>  (13) 
0

>  <r_i_glide_esite>  (13) 
0

>  <r_i_glide_emodel>  (13) 
-38.2224

>  <r_i_glide_energy>  (13) 
-31.6683

>  <r_i_glide_einternal>  (13) 
2.14877

>  <r_i_glide_intrahb_reward>  (13) 
-0

>  <i_i_glide_confnum>  (13) 
2

>  <i_i_glide_posenum>  (13) 
27

>  <r_i_glide_eff_state_penalty>  (13) 
0

>  <ligand_id>  (13) 
3

>  <original_smiles>  (13) 
CC1C2=CC3(O)CC(O)C(C)(O)C4C(=CCC(=O)C5(C)C3C45O)OC2CC(O)C1O

>  <smiles>  (13) 
[H]OC1([H])C([H])([H])C2([H])OC3=C([H])C([H])([H])C(=O)C4(C([H])([H])[H])C5([H])C(O[H])(C([H])=C2C([H])(C([H])([H])[H])C1([H])O[H])C([H])([H])C([H])(O[H])C(O[H])(C([H])([H])[H])C3([H])C54O[H]

$$$$
3:1:1
     RDKit          3D

 60 64  0  0  1  0  0  0  0  0999 V2000
    0.5201    5.8427    5.0552 C   0  0  0  0  0  0  0  0  0  0  0  0
   -0.4467    4.6267    5.1319 C   0  0  2  0  0  0  0  0  0  0  0  0
    0.0669    3.4661    5.9803 C   0  0  0  0  0  0  0  0  0  0  0  0
    1.1630    3.4769    6.7857 C   0  0  0  0  0  0  0  0  0  0  0  0
    1.4022    4.2642    8.0594 C   0  0  1  0  0  0  0  0  0  0  0  0
    2.5210    5.0940    7.8333 O   0  0  0  0  0  0  0  0  0  0  0  0
    0.2156    5.1962    8.4639 C   0  0  0  0  0  0  0  0  0  0  0  0
   -0.8733    4.6724    9.4261 C   0  0  1  0  0  0  0  0  0  0  0  0
   -1.8264    5.7117    9.5430 O   0  0  0  0  0  0  0  0  0  0  0  0
   -1.5775    3.3113    9.0707 C   0  0  1  0  0  0  0  0  0  0  0  0
   -2.7086    3.0579   10.1022 C   0  0  0  0  0  0  0  0  0  0  0  0
   -2.2855    3.4771    7.8771 O   0  0  0  0  0  0  0  0  0  0  0  0
   -0.5725    2.0868    9.0563 C   0  0  1  0  0  0  0  0  0  0  0  0
   -0.4210    0.9107    8.0110 C   0  0  0  0  0  0  0  0  0  0  0  0
    0.2168   -0.1103    8.5721 C   0  0  0  0  0  0  0  0  0  0  0  0
    1.6526   -0.3917    8.1601 C   0  0  0  0  0  0  0  0  0  0  0  0
    2.5005    0.8901    8.4013 C   0  0  0  0  0  0  0  0  0  0  0  0
    3.4796    1.0738    7.6758 O   0  0  0  0  0  0  0  0  0  0  0  0
    2.1921    1.8815    9.5217 C   0  0  1  0  0  0  0  0  0  0  0  0
    3.2074    1.6112   10.6281 C   0  0  0  0  0  0  0  0  0  0  0  0
    1.7846    3.3762    9.2813 C   0  0  2  0  0  0  0  0  0  0  0  0
    0.7635    2.3812    9.7716 C   0  0  1  0  0  0  0  0  0  0  0  0
    0.6044    2.4599   11.1845 O   0  0  0  0  0  0  0  0  0  0  0  0
   -0.0861    1.1421    6.6643 O   0  0  0  0  0  0  0  0  0  0  0  0
   -0.6528    2.1397    5.8174 C   0  0  2  0  0  0  0  0  0  0  0  0
   -0.6547    1.7038    4.3439 C   0  0  0  0  0  0  0  0  0  0  0  0
   -1.3509    2.7701    3.4724 C   0  0  1  0  0  0  0  0  0  0  0  0
   -2.7306    2.8051    3.7863 O   0  0  0  0  0  0  0  0  0  0  0  0
   -0.6955    4.1615    3.6703 C   0  0  1  0  0  0  0  0  0  0  0  0
   -1.3858    5.1295    2.8749 O   0  0  0  0  0  0  0  0  0  0  0  0
    0.7690    6.2941    6.0109 H   0  0  0  0  0  0  0  0  0  0  0  0
    0.0950    6.6461    4.4478 H   0  0  0  0  0  0  0  0  0  0  0  0
    1.4647    5.5635    4.5850 H   0  0  0  0  0  0  0  0  0  0  0  0
   -1.3884    4.9466    5.5643 H   0  0  0  0  0  0  0  0  0  0  0  0
    1.5726    2.5249    6.9302 H   0  0  0  0  0  0  0  0  0  0  0  0
    2.3452    5.6238    7.0753 H   0  0  0  0  0  0  0  0  0  0  0  0
    0.6403    6.0828    8.9348 H   0  0  0  0  0  0  0  0  0  0  0  0
   -0.3142    5.5831    7.5990 H   0  0  0  0  0  0  0  0  0  0  0  0
   -0.4439    4.6204   10.4315 H   0  0  0  0  0  0  0  0  0  0  0  0
   -1.4238    6.4464    9.9706 H   0  0  0  0  0  0  0  0  0  0  0  0
   -2.3334    2.9964   11.1229 H   0  0  0  0  0  0  0  0  0  0  0  0
   -3.2421    2.1331    9.8933 H   0  0  0  0  0  0  0  0  0  0  0  0
   -3.4621    3.8474   10.0842 H   0  0  0  0  0  0  0  0  0  0  0  0
   -1.6619    3.7179    7.2154 H   0  0  0  0  0  0  0  0  0  0  0  0
   -1.0686    1.4621    9.7959 H   0  0  0  0  0  0  0  0  0  0  0  0
    0.1360   -0.2798    9.6365 H   0  0  0  0  0  0  0  0  0  0  0  0
    2.0434   -1.2223    8.7482 H   0  0  0  0  0  0  0  0  0  0  0  0
    1.7082   -0.6717    7.1106 H   0  0  0  0  0  0  0  0  0  0  0  0
    3.1132    2.3450   11.4249 H   0  0  0  0  0  0  0  0  0  0  0  0
    4.2251    1.6915   10.2535 H   0  0  0  0  0  0  0  0  0  0  0  0
    3.0668    0.6295   11.0669 H   0  0  0  0  0  0  0  0  0  0  0  0
    2.1926    4.0121   10.0613 H   0  0  0  0  0  0  0  0  0  0  0  0
   -0.2555    2.7712   11.4077 H   0  0  0  0  0  0  0  0  0  0  0  0
   -1.7046    2.2205    6.0490 H   0  0  0  0  0  0  0  0  0  0  0  0
    0.3723    1.5795    4.0008 H   0  0  0  0  0  0  0  0  0  0  0  0
   -1.1461    0.7403    4.2193 H   0  0  0  0  0  0  0  0  0  0  0  0
   -1.2654    2.4947    2.4191 H   0  0  0  0  0  0  0  0  0  0  0  0
   -3.1407    2.0284    3.4325 H   0  0  0  0  0  0  0  0  0  0  0  0
    0.2922    4.0711    3.2074 H   0  0  0  0  0  0  0  0  0  0  0  0
   -1.0320    5.0080    2.0116 H   0  0  0  0  0  0  0  0  0  0  0  0
  1  2  1  0
  1 31  1  0
  1 32  1  0
  1 33  1  0
  2 29  1  0
  2  3  1  0
  2 34  1  1
  3 25  1  0
  3  4  2  3
  4  5  1  0
  4 35  1  0
  5 21  1  0
  5  6  1  6
  5  7  1  0
  6 36  1  0
  7  8  1  0
  7 37  1  0
  7 38  1  0
  8  9  1  0
  8 10  1  0
  8 39  1  1
  9 40  1  0
 10 11  1  0
 10 12  1  6
 10 13  1  0
 11 41  1  0
 11 42  1  0
 11 43  1  0
 12 44  1  0
 13 22  1  0
 13 14  1  0
 13 45  1  1
 14 15  2  0
 14 24  1  0
 15 16  1  0
 15 46  1  0
 16 17  1  0
 16 47  1  0
 16 48  1  0
 17 18  2  0
 17 19  1  0
 19 22  1  0
 19 20  1  1
 19 21  1  0
 20 49  1  0
 20 50  1  0
 20 51  1  0
 21 22  1  0
 21 52  1  1
 22 23  1  1
 23 53  1  0
 24 25  1  0
 25 26  1  0
 25 54  1  1
 26 27  1  0
 26 55  1  0
 26 56  1  0
 27 28  1  0
 27 29  1  0
 27 57  1  6
 28 58  1  0
 29 30  1  0
 29 59  1  6
 30 60  1  0
M  END
>  <i_m_ct_stereo_status>  (14) 
1

>  <s_m_source_file>  (14) 
/var/tmp/pbs.5076255.sched01/tmpu3exd1vk/0t_9me_9p.sdf

>  <i_m_source_file_index>  (14) 
5

>  <i_lp_mmshare_version>  (14) 
48012

>  <i_f3d_flags>  (14) 
0

>  <s_epik_input>  (14) 
W0NIMl0xW0NAQEhdKFtPSF0pW0NAQEhdKFtPSF0pW0NASF0oW0NIM10pL0MoPVtDSF0vMilbQ0BASF0xT0MoPVtDSF1bQ0gyXUMzPU8pW0NASF0oW0NAXShbQ0gzXSkoW09IXSlbQ0BASF0oW0NIMl00KVtPSF0pW0NAQF01KFtPSF0pW0NAXTMoW0NIM10pW0NASF01W0NAQF0yNFtPSF0=

>  <s_epik_cmdline>  (14) 
J2VwaWtfcHl0aG9uJywgJy1waHQnLCAnMi4wJywgJy1waCcsICc3LjAnLCAnLXRuJywgJzgnLCAnLW1hJywgJzIwMCcsICctaW1hZScsICc8aW5maWxlLm1hZT4nLCAnLW9tYWUnLCAnPG91dGZpbGUubWFlPic=

>  <r_lp_tautomer_probability>  (14) 
1

>  <r_epik_Ionization_Penalty>  (14) 
4.03541e-07

>  <r_epik_Ionization_Penalty_Charging>  (14) 
0

>  <r_epik_Ionization_Penalty_Neutral>  (14) 
4.03541e-07

>  <r_epik_State_Penalty>  (14) 
-0

>  <r_epik_Charging_Adjusted_Penalty>  (14) 
0

>  <i_epik_Tot_Q>  (14) 
0

>  <i_epik_Tot_abs_Q>  (14) 
0

>  <s_lp_Force_Field>  (14) 
OPLS3e

>  <r_lp_Energy>  (14) 
132.178

>  <b_lp_Chiralities_Consistent>  (14) 
1

>  <s_lp_Variant>  (14) 
3:0-2

>  <s_i_glide_gridfile>  (14) 
pfpi4k_grid

>  <i_i_glide_lignum>  (14) 
5

>  <i_i_glide_rotatable_bonds>  (14) 
6

>  <r_i_docking_score>  (14) 
-3.19797

>  <r_i_glide_ligand_efficiency>  (14) 
-0.106599

>  <r_i_glide_ligand_efficiency_sa>  (14) 
-0.331227

>  <r_i_glide_ligand_efficiency_ln>  (14) 
-0.726613

>  <r_i_glide_gscore>  (14) 
-3.19797

>  <r_i_glide_lipo>  (14) 
0

>  <r_i_glide_hbond>  (14) 
0

>  <r_i_glide_metal>  (14) 
-0

>  <r_i_glide_rewards>  (14) 
-0.528622

>  <r_i_glide_evdw>  (14) 
-19.7396

>  <r_i_glide_ecoul>  (14) 
-11.2158

>  <r_i_glide_erotb>  (14) 
0

>  <r_i_glide_esite>  (14) 
0

>  <r_i_glide_emodel>  (14) 
-37.1218

>  <r_i_glide_energy>  (14) 
-30.9553

>  <r_i_glide_einternal>  (14) 
2.01306

>  <r_i_glide_intrahb_reward>  (14) 
-0

>  <i_i_glide_confnum>  (14) 
2

>  <i_i_glide_posenum>  (14) 
1

>  <r_i_glide_eff_state_penalty>  (14) 
0

>  <ligand_id>  (14) 
3

>  <original_smiles>  (14) 
CC1C2=CC3(O)CC(O)C(C)(O)C4C(=CCC(=O)C5(C)C3C45O)OC2CC(O)C1O

>  <smiles>  (14) 
[H]OC1([H])C([H])([H])C2([H])OC3=C([H])C([H])([H])C(=O)C4(C([H])([H])[H])C5([H])C(O[H])(C([H])=C2C([H])(C([H])([H])[H])C1([H])O[H])C([H])([H])C([H])(O[H])C(O[H])(C([H])([H])[H])C3([H])C54O[H]

$$$$
3:1:2
     RDKit          3D

 60 64  0  0  1  0  0  0  0  0999 V2000
    2.2439   -4.0984   -0.7221 C   0  0  0  0  0  0  0  0  0  0  0  0
    3.6502   -3.7726   -0.1558 C   0  0  2  0  0  0  0  0  0  0  0  0
    3.7385   -3.9197    1.3762 C   0  0  0  0  0  0  0  0  0  0  0  0
    2.8128   -4.4595    2.1925 C   0  0  0  0  0  0  0  0  0  0  0  0
    2.3358   -5.9029    2.2975 C   0  0  1  0  0  0  0  0  0  0  0  0
    0.9494   -5.8967    2.0035 O   0  0  0  0  0  0  0  0  0  0  0  0
    3.0212   -6.8651    1.2715 C   0  0  0  0  0  0  0  0  0  0  0  0
    4.2962   -7.6502    1.6691 C   0  0  1  0  0  0  0  0  0  0  0  0
    4.6844   -8.3825    0.5230 O   0  0  0  0  0  0  0  0  0  0  0  0
    5.5045   -6.8318    2.2600 C   0  0  1  0  0  0  0  0  0  0  0  0
    6.7100   -7.7902    2.4706 C   0  0  0  0  0  0  0  0  0  0  0  0
    5.9678   -5.9667    1.2608 O   0  0  0  0  0  0  0  0  0  0  0  0
    5.1260   -6.1121    3.6267 C   0  0  1  0  0  0  0  0  0  0  0  0
    5.4286   -4.6471    4.0821 C   0  0  0  0  0  0  0  0  0  0  0  0
    5.3740   -4.5484    5.4295 C   0  0  0  0  0  0  0  0  0  0  0  0
    4.1832   -3.8533    6.0585 C   0  0  0  0  0  0  0  0  0  0  0  0
    2.8684   -4.5006    5.5341 C   0  0  0  0  0  0  0  0  0  0  0  0
    1.8577   -3.8040    5.4573 O   0  0  0  0  0  0  0  0  0  0  0  0
    2.7816   -5.9848    5.1611 C   0  0  1  0  0  0  0  0  0  0  0  0
    2.0737   -6.6985    6.3149 C   0  0  0  0  0  0  0  0  0  0  0  0
    2.4621   -6.5248    3.7285 C   0  0  2  0  0  0  0  0  0  0  0  0
    3.8540   -6.6856    4.3123 C   0  0  1  0  0  0  0  0  0  0  0  0
    4.0954   -7.9724    4.8534 O   0  0  0  0  0  0  0  0  0  0  0  0
    4.9586   -3.4979    3.4429 O   0  0  0  0  0  0  0  0  0  0  0  0
    4.9652   -3.2926    2.0280 C   0  0  2  0  0  0  0  0  0  0  0  0
    5.0539   -1.7999    1.6646 C   0  0  0  0  0  0  0  0  0  0  0  0
    5.1535   -1.6183    0.1364 C   0  0  1  0  0  0  0  0  0  0  0  0
    6.4020   -2.1037   -0.3329 O   0  0  0  0  0  0  0  0  0  0  0  0
    3.9546   -2.2974   -0.5675 C   0  0  1  0  0  0  0  0  0  0  0  0
    4.0991   -2.1803   -1.9699 O   0  0  0  0  0  0  0  0  0  0  0  0
    1.8748   -5.0963   -0.5009 H   0  0  0  0  0  0  0  0  0  0  0  0
    2.2190   -4.0112   -1.8081 H   0  0  0  0  0  0  0  0  0  0  0  0
    1.5084   -3.3901   -0.3479 H   0  0  0  0  0  0  0  0  0  0  0  0
    4.3892   -4.4343   -0.6078 H   0  0  0  0  0  0  0  0  0  0  0  0
    2.8758   -4.0999    3.1786 H   0  0  0  0  0  0  0  0  0  0  0  0
    0.6272   -6.7824    2.1088 H   0  0  0  0  0  0  0  0  0  0  0  0
    2.2843   -7.6153    0.9816 H   0  0  0  0  0  0  0  0  0  0  0  0
    3.2648   -6.3543    0.3480 H   0  0  0  0  0  0  0  0  0  0  0  0
    4.0105   -8.4360    2.3685 H   0  0  0  0  0  0  0  0  0  0  0  0
    4.2104   -9.2036    0.5005 H   0  0  0  0  0  0  0  0  0  0  0  0
    6.4614   -8.6041    3.1545 H   0  0  0  0  0  0  0  0  0  0  0  0
    7.5736   -7.2641    2.8809 H   0  0  0  0  0  0  0  0  0  0  0  0
    7.0394   -8.2458    1.5349 H   0  0  0  0  0  0  0  0  0  0  0  0
    5.2347   -5.4351    0.9896 H   0  0  0  0  0  0  0  0  0  0  0  0
    5.9072   -6.5482    4.2498 H   0  0  0  0  0  0  0  0  0  0  0  0
    5.6092   -5.4261    6.0223 H   0  0  0  0  0  0  0  0  0  0  0  0
    4.2415   -3.9448    7.1451 H   0  0  0  0  0  0  0  0  0  0  0  0
    4.1865   -2.7956    5.8060 H   0  0  0  0  0  0  0  0  0  0  0  0
    1.8899   -7.7461    6.0855 H   0  0  0  0  0  0  0  0  0  0  0  0
    1.1035   -6.2489    6.5092 H   0  0  0  0  0  0  0  0  0  0  0  0
    2.6654   -6.6603    7.2268 H   0  0  0  0  0  0  0  0  0  0  0  0
    1.8749   -7.4397    3.7598 H   0  0  0  0  0  0  0  0  0  0  0  0
    4.1931   -8.5978    4.1504 H   0  0  0  0  0  0  0  0  0  0  0  0
    5.8895   -3.6991    1.6440 H   0  0  0  0  0  0  0  0  0  0  0  0
    4.1679   -1.2835    2.0340 H   0  0  0  0  0  0  0  0  0  0  0  0
    5.9115   -1.3350    2.1514 H   0  0  0  0  0  0  0  0  0  0  0  0
    5.1325   -0.5534   -0.0968 H   0  0  0  0  0  0  0  0  0  0  0  0
    6.4247   -3.0425   -0.2116 H   0  0  0  0  0  0  0  0  0  0  0  0
    3.0803   -1.6929   -0.3097 H   0  0  0  0  0  0  0  0  0  0  0  0
    3.2587   -2.3738   -2.3641 H   0  0  0  0  0  0  0  0  0  0  0  0
  1  2  1  0
  1 31  1  0
  1 32  1  0
  1 33  1  0
  2 29  1  0
  2  3  1  0
  2 34  1  6
  3 25  1  0
  3  4  2  3
  4  5  1  0
  4 35  1  0
  5 21  1  0
  5  6  1  6
  5  7  1  0
  6 36  1  0
  7  8  1  0
  7 37  1  0
  7 38  1  0
  8  9  1  0
  8 10  1  0
  8 39  1  1
  9 40  1  0
 10 11  1  0
 10 12  1  6
 10 13  1  0
 11 41  1  0
 11 42  1  0
 11 43  1  0
 12 44  1  0
 13 22  1  0
 13 14  1  0
 13 45  1  1
 14 15  2  0
 14 24  1  0
 15 16  1  0
 15 46  1  0
 16 17  1  0
 16 47  1  0
 16 48  1  0
 17 18  2  0
 17 19  1  0
 19 22  1  0
 19 20  1  1
 19 21  1  0
 20 49  1  0
 20 50  1  0
 20 51  1  0
 21 22  1  0
 21 52  1  1
 22 23  1  1
 23 53  1  0
 24 25  1  0
 25 26  1  0
 25 54  1  6
 26 27  1  0
 26 55  1  0
 26 56  1  0
 27 28  1  0
 27 29  1  0
 27 57  1  1
 28 58  1  0
 29 30  1  0
 29 59  1  1
 30 60  1  0
M  END
>  <i_m_ct_stereo_status>  (15) 
1

>  <s_m_source_file>  (15) 
/var/tmp/pbs.5076255.sched01/tmpu3exd1vk/0t_9me_9p.sdf

>  <i_m_source_file_index>  (15) 
5

>  <i_lp_mmshare_version>  (15) 
48012

>  <i_f3d_flags>  (15) 
0

>  <s_epik_input>  (15) 
W0NIMl0xW0NAQEhdKFtPSF0pW0NAQEhdKFtPSF0pW0NASF0oW0NIM10pL0MoPVtDSF0vMilbQ0BASF0xT0MoPVtDSF1bQ0gyXUMzPU8pW0NASF0oW0NAXShbQ0gzXSkoW09IXSlbQ0BASF0oW0NIMl00KVtPSF0pW0NAQF01KFtPSF0pW0NAXTMoW0NIM10pW0NASF01W0NAQF0yNFtPSF0=

>  <s_epik_cmdline>  (15) 
J2VwaWtfcHl0aG9uJywgJy1waHQnLCAnMi4wJywgJy1waCcsICc3LjAnLCAnLXRuJywgJzgnLCAnLW1hJywgJzIwMCcsICctaW1hZScsICc8aW5maWxlLm1hZT4nLCAnLW9tYWUnLCAnPG91dGZpbGUubWFlPic=

>  <r_lp_tautomer_probability>  (15) 
1

>  <r_epik_Ionization_Penalty>  (15) 
4.03541e-07

>  <r_epik_Ionization_Penalty_Charging>  (15) 
0

>  <r_epik_Ionization_Penalty_Neutral>  (15) 
4.03541e-07

>  <r_epik_State_Penalty>  (15) 
-0

>  <r_epik_Charging_Adjusted_Penalty>  (15) 
0

>  <i_epik_Tot_Q>  (15) 
0

>  <i_epik_Tot_abs_Q>  (15) 
0

>  <s_lp_Force_Field>  (15) 
OPLS3e

>  <r_lp_Energy>  (15) 
132.178

>  <b_lp_Chiralities_Consistent>  (15) 
1

>  <s_lp_Variant>  (15) 
3:0-2

>  <s_i_glide_gridfile>  (15) 
pfpi4k_grid

>  <i_i_glide_lignum>  (15) 
5

>  <i_i_glide_rotatable_bonds>  (15) 
6

>  <r_i_docking_score>  (15) 
-2.84617

>  <r_i_glide_ligand_efficiency>  (15) 
-0.0948724

>  <r_i_glide_ligand_efficiency_sa>  (15) 
-0.294791

>  <r_i_glide_ligand_efficiency_ln>  (15) 
-0.646681

>  <r_i_glide_gscore>  (15) 
-2.84617

>  <r_i_glide_lipo>  (15) 
-0.274251

>  <r_i_glide_hbond>  (15) 
-0.111555

>  <r_i_glide_metal>  (15) 
-0

>  <r_i_glide_rewards>  (15) 
-0.528622

>  <r_i_glide_evdw>  (15) 
-22.2023

>  <r_i_glide_ecoul>  (15) 
-5.47753

>  <r_i_glide_erotb>  (15) 
0

>  <r_i_glide_esite>  (15) 
0

>  <r_i_glide_emodel>  (15) 
-33.3534

>  <r_i_glide_energy>  (15) 
-27.6798

>  <r_i_glide_einternal>  (15) 
1.43818

>  <r_i_glide_intrahb_reward>  (15) 
-0

>  <i_i_glide_confnum>  (15) 
2

>  <i_i_glide_posenum>  (15) 
29

>  <r_i_glide_eff_state_penalty>  (15) 
0

>  <ligand_id>  (15) 
3

>  <original_smiles>  (15) 
CC1C2=CC3(O)CC(O)C(C)(O)C4C(=CCC(=O)C5(C)C3C45O)OC2CC(O)C1O

>  <smiles>  (15) 
[H]OC1([H])C([H])([H])C2([H])OC3=C([H])C([H])([H])C(=O)C4(C([H])([H])[H])C5([H])C(O[H])(C([H])=C2C([H])(C([H])([H])[H])C1([H])O[H])C([H])([H])C([H])(O[H])C(O[H])(C([H])([H])[H])C3([H])C54O[H]

$$$$
4:0:0
     RDKit          3D

 33 34  0  0  1  0  0  0  0  0999 V2000
    2.2264   -0.3213    1.3311 O   0  0  0  0  0  0  0  0  0  0  0  0
    1.5200   -0.5744    2.5420 C   0  0  0  0  0  0  0  0  0  0  0  0
    1.3335    0.7428    3.3645 C   0  0  1  0  0  0  0  0  0  0  0  0
    2.6536    1.1944    3.6568 O   0  0  0  0  0  0  0  0  0  0  0  0
    0.5248    1.8865    2.6978 C   0  0  1  0  0  0  0  0  0  0  0  0
   -0.6019    1.3613    2.0024 O   0  0  0  0  0  0  0  0  0  0  0  0
    0.1011    2.8380    3.8597 C   0  0  1  0  0  0  0  0  0  0  0  0
    0.9747    3.9577    3.8654 O   0  0  0  0  0  0  0  0  0  0  0  0
   -1.3388    3.4279    3.8759 C   0  0  1  0  0  0  0  0  0  0  0  0
   -1.9449    3.6002    2.6102 O   0  0  0  0  0  0  0  0  0  0  0  0
   -2.1704    2.4760    4.7328 C   0  0  0  0  0  0  0  0  0  0  0  0
   -1.1996    2.1436    5.8604 C   0  0  1  0  0  0  0  0  0  0  0  0
   -1.6045    1.0009    6.5912 O   0  0  0  0  0  0  0  0  0  0  0  0
    0.1880    1.9979    5.1796 C   0  0  2  0  0  0  0  0  0  0  0  0
    1.1520    2.5053    6.0895 O   0  0  0  0  0  0  0  0  0  0  0  0
    0.6293    0.5699    4.7373 C   0  0  1  0  0  0  0  0  0  0  0  0
   -0.5011   -0.2677    4.5457 O   0  0  0  0  0  0  0  0  0  0  0  0
    1.6429   -0.5113    0.5844 H   0  0  0  0  0  0  0  0  0  0  0  0
    0.5703   -1.0162    2.2439 H   0  0  0  0  0  0  0  0  0  0  0  0
    2.0350   -1.3561    3.1186 H   0  0  0  0  0  0  0  0  0  0  0  0
    3.0815    1.4531    2.8556 H   0  0  0  0  0  0  0  0  0  0  0  0
    1.1262    2.3881    1.9450 H   0  0  0  0  0  0  0  0  0  0  0  0
   -0.3490    1.1466    1.1259 H   0  0  0  0  0  0  0  0  0  0  0  0
    0.9412    4.3485    3.0047 H   0  0  0  0  0  0  0  0  0  0  0  0
   -1.3374    4.3774    4.4195 H   0  0  0  0  0  0  0  0  0  0  0  0
   -1.2591    3.7824    1.9598 H   0  0  0  0  0  0  0  0  0  0  0  0
   -3.1157    2.9035    5.0833 H   0  0  0  0  0  0  0  0  0  0  0  0
   -2.3984    1.5726    4.1707 H   0  0  0  0  0  0  0  0  0  0  0  0
   -1.2046    2.9804    6.5524 H   0  0  0  0  0  0  0  0  0  0  0  0
   -1.3234    0.2437    6.0787 H   0  0  0  0  0  0  0  0  0  0  0  0
    1.2099    1.9057    6.8089 H   0  0  0  0  0  0  0  0  0  0  0  0
    1.2727    0.0605    5.4584 H   0  0  0  0  0  0  0  0  0  0  0  0
   -0.9583    0.0561    3.7797 H   0  0  0  0  0  0  0  0  0  0  0  0
  1  2  1  0
  1 18  1  0
  2  3  1  0
  2 19  1  0
  2 20  1  0
  3 16  1  0
  3  4  1  1
  3  5  1  0
  4 21  1  0
  5  6  1  0
  5  7  1  0
  5 22  1  6
  6 23  1  0
  7 14  1  0
  7  8  1  1
  7  9  1  0
  8 24  1  0
  9 10  1  0
  9 11  1  0
  9 25  1  1
 10 26  1  0
 11 12  1  0
 11 27  1  0
 11 28  1  0
 12 13  1  0
 12 14  1  0
 12 29  1  1
 13 30  1  0
 14 15  1  1
 14 16  1  0
 15 31  1  0
 16 17  1  0
 16 32  1  1
 17 33  1  0
M  END
>  <i_m_ct_stereo_status>  (16) 
1

>  <s_m_source_file>  (16) 
/var/tmp/pbs.5076255.sched01/tmpu3exd1vk/0t_9me_9p.sdf

>  <i_m_source_file_index>  (16) 
6

>  <i_lp_mmshare_version>  (16) 
48012

>  <i_f3d_flags>  (16) 
0

>  <s_epik_input>  (16) 
W09IXVtDSDJdW0NAQF0oW09IXSkoW0NASF0xW09IXSlbQ0BIXShbT0hdKVtDQEBdKFtPSF0pKFtDQEBdMTJbT0hdKVtDQEhdKFtPSF0pW0NIMl1bQ0BASF0yW09IXQ==

>  <s_epik_cmdline>  (16) 
J2VwaWtfcHl0aG9uJywgJy1waHQnLCAnMi4wJywgJy1waCcsICc3LjAnLCAnLXRuJywgJzgnLCAnLW1hJywgJzIwMCcsICctaW1hZScsICc8aW5maWxlLm1hZT4nLCAnLW9tYWUnLCAnPG91dGZpbGUubWFlPic=

>  <r_lp_tautomer_probability>  (16) 
1

>  <r_epik_Ionization_Penalty>  (16) 
5.19356e-07

>  <r_epik_Ionization_Penalty_Charging>  (16) 
0

>  <r_epik_Ionization_Penalty_Neutral>  (16) 
5.19356e-07

>  <r_epik_State_Penalty>  (16) 
-0

>  <r_epik_Charging_Adjusted_Penalty>  (16) 
0

>  <i_epik_Tot_Q>  (16) 
0

>  <i_epik_Tot_abs_Q>  (16) 
0

>  <s_lp_Force_Field>  (16) 
OPLS3e

>  <r_lp_Energy>  (16) 
33.2876

>  <b_lp_Chiralities_Consistent>  (16) 
1

>  <s_lp_Variant>  (16) 
4:0-1

>  <s_i_glide_gridfile>  (16) 
pfpi4k_grid

>  <i_i_glide_lignum>  (16) 
6

>  <i_i_glide_rotatable_bonds>  (16) 
9

>  <r_i_docking_score>  (16) 
-4.42237

>  <r_i_glide_ligand_efficiency>  (16) 
-0.26014

>  <r_i_glide_ligand_efficiency_sa>  (16) 
-0.668892

>  <r_i_glide_ligand_efficiency_ln>  (16) 
-1.1537

>  <r_i_glide_gscore>  (16) 
-4.42237

>  <r_i_glide_lipo>  (16) 
0

>  <r_i_glide_hbond>  (16) 
0

>  <r_i_glide_metal>  (16) 
-0

>  <r_i_glide_rewards>  (16) 
-2.18942

>  <r_i_glide_evdw>  (16) 
-12.7765

>  <r_i_glide_ecoul>  (16) 
-12.4661

>  <r_i_glide_erotb>  (16) 
0.275789

>  <r_i_glide_esite>  (16) 
0

>  <r_i_glide_emodel>  (16) 
-36.5359

>  <r_i_glide_energy>  (16) 
-25.2426

>  <r_i_glide_einternal>  (16) 
4.09361

>  <r_i_glide_intrahb_reward>  (16) 
-0.5

>  <i_i_glide_confnum>  (16) 
1

>  <i_i_glide_posenum>  (16) 
37

>  <r_i_glide_eff_state_penalty>  (16) 
0

>  <ligand_id>  (16) 
4

>  <original_smiles>  (16) 
OCC1(O)C(O)C2(O)C(O)CC(O)C2(O)C1O

>  <smiles>  (16) 
[H]OC([H])([H])C1(O[H])C([H])(O[H])C2(O[H])C([H])(O[H])C([H])([H])C([H])(O[H])C2(O[H])C1([H])O[H]

$$$$
4:0:1
     RDKit          3D

 33 34  0  0  1  0  0  0  0  0999 V2000
    2.0218    0.0740    1.2789 O   0  0  0  0  0  0  0  0  0  0  0  0
    1.3576   -0.2458    2.4824 C   0  0  0  0  0  0  0  0  0  0  0  0
    1.2228    1.0051    3.3613 C   0  0  1  0  0  0  0  0  0  0  0  0
    2.5346    1.4355    3.6741 O   0  0  0  0  0  0  0  0  0  0  0  0
    0.4489    2.1987    2.7430 C   0  0  1  0  0  0  0  0  0  0  0  0
   -0.6825    1.7155    2.0545 O   0  0  0  0  0  0  0  0  0  0  0  0
    0.0245    3.1284    3.9316 C   0  0  1  0  0  0  0  0  0  0  0  0
    0.9641    4.1811    4.0326 O   0  0  0  0  0  0  0  0  0  0  0  0
   -1.4140    3.7326    3.9321 C   0  0  1  0  0  0  0  0  0  0  0  0
   -1.9660    4.0115    2.6665 O   0  0  0  0  0  0  0  0  0  0  0  0
   -2.2663    2.7584    4.7463 C   0  0  0  0  0  0  0  0  0  0  0  0
   -1.3220    2.3609    5.8806 C   0  0  1  0  0  0  0  0  0  0  0  0
   -1.7665    1.2439    6.6337 O   0  0  0  0  0  0  0  0  0  0  0  0
    0.0716    2.2081    5.1934 C   0  0  2  0  0  0  0  0  0  0  0  0
    1.0508    2.6157    6.1340 O   0  0  0  0  0  0  0  0  0  0  0  0
    0.4693    0.7639    4.6900 C   0  0  1  0  0  0  0  0  0  0  0  0
   -0.6914   -0.0316    4.4561 O   0  0  0  0  0  0  0  0  0  0  0  0
    1.5569   -0.3014    0.5562 H   0  0  0  0  0  0  0  0  0  0  0  0
    0.3945   -0.6446    2.1861 H   0  0  0  0  0  0  0  0  0  0  0  0
    1.8875   -1.0583    2.9678 H   0  0  0  0  0  0  0  0  0  0  0  0
    2.9798    1.6615    2.8655 H   0  0  0  0  0  0  0  0  0  0  0  0
    1.0854    2.7264    2.0223 H   0  0  0  0  0  0  0  0  0  0  0  0
   -0.4108    1.5027    1.1624 H   0  0  0  0  0  0  0  0  0  0  0  0
    0.9531    4.6217    3.1917 H   0  0  0  0  0  0  0  0  0  0  0  0
   -1.3685    4.6575    4.5077 H   0  0  0  0  0  0  0  0  0  0  0  0
   -1.2597    4.0405    2.0183 H   0  0  0  0  0  0  0  0  0  0  0  0
   -3.2066    3.1915    5.0815 H   0  0  0  0  0  0  0  0  0  0  0  0
   -2.5069    1.8889    4.1345 H   0  0  0  0  0  0  0  0  0  0  0  0
   -1.2715    3.2261    6.5485 H   0  0  0  0  0  0  0  0  0  0  0  0
   -1.0535    1.0295    7.2197 H   0  0  0  0  0  0  0  0  0  0  0  0
    1.8295    2.7562    5.6124 H   0  0  0  0  0  0  0  0  0  0  0  0
    1.0949    0.2212    5.4113 H   0  0  0  0  0  0  0  0  0  0  0  0
   -1.1707    0.4208    3.7738 H   0  0  0  0  0  0  0  0  0  0  0  0
  1  2  1  0
  1 18  1  0
  2  3  1  0
  2 19  1  0
  2 20  1  0
  3 16  1  0
  3  4  1  1
  3  5  1  0
  4 21  1  0
  5  6  1  0
  5  7  1  0
  5 22  1  6
  6 23  1  0
  7 14  1  0
  7  8  1  1
  7  9  1  0
  8 24  1  0
  9 10  1  0
  9 11  1  0
  9 25  1  1
 10 26  1  0
 11 12  1  0
 11 27  1  0
 11 28  1  0
 12 13  1  0
 12 14  1  0
 12 29  1  1
 13 30  1  0
 14 15  1  1
 14 16  1  0
 15 31  1  0
 16 17  1  0
 16 32  1  1
 17 33  1  0
M  END
>  <i_m_ct_stereo_status>  (17) 
1

>  <s_m_source_file>  (17) 
/var/tmp/pbs.5076255.sched01/tmpu3exd1vk/0t_9me_9p.sdf

>  <i_m_source_file_index>  (17) 
6

>  <i_lp_mmshare_version>  (17) 
48012

>  <i_f3d_flags>  (17) 
0

>  <s_epik_input>  (17) 
W09IXVtDSDJdW0NAQF0oW09IXSkoW0NASF0xW09IXSlbQ0BIXShbT0hdKVtDQEBdKFtPSF0pKFtDQEBdMTJbT0hdKVtDQEhdKFtPSF0pW0NIMl1bQ0BASF0yW09IXQ==

>  <s_epik_cmdline>  (17) 
J2VwaWtfcHl0aG9uJywgJy1waHQnLCAnMi4wJywgJy1waCcsICc3LjAnLCAnLXRuJywgJzgnLCAnLW1hJywgJzIwMCcsICctaW1hZScsICc8aW5maWxlLm1hZT4nLCAnLW9tYWUnLCAnPG91dGZpbGUubWFlPic=

>  <r_lp_tautomer_probability>  (17) 
1

>  <r_epik_Ionization_Penalty>  (17) 
5.19356e-07

>  <r_epik_Ionization_Penalty_Charging>  (17) 
0

>  <r_epik_Ionization_Penalty_Neutral>  (17) 
5.19356e-07

>  <r_epik_State_Penalty>  (17) 
-0

>  <r_epik_Charging_Adjusted_Penalty>  (17) 
0

>  <i_epik_Tot_Q>  (17) 
0

>  <i_epik_Tot_abs_Q>  (17) 
0

>  <s_lp_Force_Field>  (17) 
OPLS3e

>  <r_lp_Energy>  (17) 
33.2876

>  <b_lp_Chiralities_Consistent>  (17) 
1

>  <s_lp_Variant>  (17) 
4:0-1

>  <s_i_glide_gridfile>  (17) 
pfpi4k_grid

>  <i_i_glide_lignum>  (17) 
6

>  <i_i_glide_rotatable_bonds>  (17) 
9

>  <r_i_docking_score>  (17) 
-4.4093

>  <r_i_glide_ligand_efficiency>  (17) 
-0.259371

>  <r_i_glide_ligand_efficiency_sa>  (17) 
-0.666915

>  <r_i_glide_ligand_efficiency_ln>  (17) 
-1.15029

>  <r_i_glide_gscore>  (17) 
-4.4093

>  <r_i_glide_lipo>  (17) 
-0.000984159

>  <r_i_glide_hbond>  (17) 
0

>  <r_i_glide_metal>  (17) 
-0

>  <r_i_glide_rewards>  (17) 
-2.18942

>  <r_i_glide_evdw>  (17) 
-12.3518

>  <r_i_glide_ecoul>  (17) 
-12.514

>  <r_i_glide_erotb>  (17) 
0.275789

>  <r_i_glide_esite>  (17) 
0

>  <r_i_glide_emodel>  (17) 
-36.5005

>  <r_i_glide_energy>  (17) 
-24.8658

>  <r_i_glide_einternal>  (17) 
3.45253

>  <r_i_glide_intrahb_reward>  (17) 
-0.5

>  <i_i_glide_confnum>  (17) 
4

>  <i_i_glide_posenum>  (17) 
22

>  <r_i_glide_eff_state_penalty>  (17) 
0

>  <ligand_id>  (17) 
4

>  <original_smiles>  (17) 
OCC1(O)C(O)C2(O)C(O)CC(O)C2(O)C1O

>  <smiles>  (17) 
[H]OC([H])([H])C1(O[H])C([H])(O[H])C2(O[H])C([H])(O[H])C([H])([H])C([H])(O[H])C2(O[H])C1([H])O[H]

$$$$
4:0:2
     RDKit          3D

 33 34  0  0  1  0  0  0  0  0999 V2000
    1.9553   -0.1263    1.6508 O   0  0  0  0  0  0  0  0  0  0  0  0
    1.4875   -0.1615    2.9876 C   0  0  0  0  0  0  0  0  0  0  0  0
    1.1125    1.2766    3.4668 C   0  0  1  0  0  0  0  0  0  0  0  0
    2.2989    2.0638    3.4148 O   0  0  0  0  0  0  0  0  0  0  0  0
    0.0210    2.0399    2.6546 C   0  0  1  0  0  0  0  0  0  0  0  0
   -0.9898    1.0883    2.2699 O   0  0  0  0  0  0  0  0  0  0  0  0
   -0.5204    3.1564    3.6197 C   0  0  1  0  0  0  0  0  0  0  0  0
    0.0725    4.3973    3.3118 O   0  0  0  0  0  0  0  0  0  0  0  0
   -2.0535    3.4359    3.7038 C   0  0  1  0  0  0  0  0  0  0  0  0
   -2.8633    3.0472    2.6089 O   0  0  0  0  0  0  0  0  0  0  0  0
   -2.5184    2.6518    4.9273 C   0  0  0  0  0  0  0  0  0  0  0  0
   -1.4050    2.8683    5.9289 C   0  0  1  0  0  0  0  0  0  0  0  0
   -1.5141    2.0220    7.0564 O   0  0  0  0  0  0  0  0  0  0  0  0
   -0.1097    2.7229    5.0643 C   0  0  2  0  0  0  0  0  0  0  0  0
    0.8490    3.5735    5.6511 O   0  0  0  0  0  0  0  0  0  0  0  0
    0.6038    1.3337    4.9341 C   0  0  1  0  0  0  0  0  0  0  0  0
   -0.3045    0.2646    5.1031 O   0  0  0  0  0  0  0  0  0  0  0  0
    1.2401   -0.1701    1.0638 H   0  0  0  0  0  0  0  0  0  0  0  0
    0.6359   -0.8411    2.9942 H   0  0  0  0  0  0  0  0  0  0  0  0
    2.2142   -0.6224    3.6519 H   0  0  0  0  0  0  0  0  0  0  0  0
    2.5903    2.1035    2.5149 H   0  0  0  0  0  0  0  0  0  0  0  0
    0.4401    2.4133    1.7273 H   0  0  0  0  0  0  0  0  0  0  0  0
   -1.0717    1.0969    1.3219 H   0  0  0  0  0  0  0  0  0  0  0  0
    0.0968    4.5214    2.3374 H   0  0  0  0  0  0  0  0  0  0  0  0
   -2.2708    4.4931    3.8733 H   0  0  0  0  0  0  0  0  0  0  0  0
   -2.5748    2.1725    2.3423 H   0  0  0  0  0  0  0  0  0  0  0  0
   -3.4929    2.9799    5.2752 H   0  0  0  0  0  0  0  0  0  0  0  0
   -2.5731    1.6024    4.6567 H   0  0  0  0  0  0  0  0  0  0  0  0
   -1.4870    3.8878    6.3014 H   0  0  0  0  0  0  0  0  0  0  0  0
   -0.6910    2.0346    7.5202 H   0  0  0  0  0  0  0  0  0  0  0  0
    1.5193    3.7620    5.0023 H   0  0  0  0  0  0  0  0  0  0  0  0
    1.4182    1.1934    5.6469 H   0  0  0  0  0  0  0  0  0  0  0  0
   -0.9668    0.3682    4.4376 H   0  0  0  0  0  0  0  0  0  0  0  0
  1  2  1  0
  1 18  1  0
  2  3  1  0
  2 19  1  0
  2 20  1  0
  3 16  1  0
  3  4  1  1
  3  5  1  0
  4 21  1  0
  5  6  1  0
  5  7  1  0
  5 22  1  6
  6 23  1  0
  7 14  1  0
  7  8  1  6
  7  9  1  0
  8 24  1  0
  9 10  1  0
  9 11  1  0
  9 25  1  1
 10 26  1  0
 11 12  1  0
 11 27  1  0
 11 28  1  0
 12 13  1  0
 12 14  1  0
 12 29  1  1
 13 30  1  0
 14 15  1  1
 14 16  1  0
 15 31  1  0
 16 17  1  0
 16 32  1  1
 17 33  1  0
M  END
>  <i_m_ct_stereo_status>  (18) 
1

>  <s_m_source_file>  (18) 
/var/tmp/pbs.5076255.sched01/tmpu3exd1vk/0t_9me_9p.sdf

>  <i_m_source_file_index>  (18) 
6

>  <i_lp_mmshare_version>  (18) 
48012

>  <i_f3d_flags>  (18) 
0

>  <s_epik_input>  (18) 
W09IXVtDSDJdW0NAQF0oW09IXSkoW0NASF0xW09IXSlbQ0BIXShbT0hdKVtDQEBdKFtPSF0pKFtDQEBdMTJbT0hdKVtDQEhdKFtPSF0pW0NIMl1bQ0BASF0yW09IXQ==

>  <s_epik_cmdline>  (18) 
J2VwaWtfcHl0aG9uJywgJy1waHQnLCAnMi4wJywgJy1waCcsICc3LjAnLCAnLXRuJywgJzgnLCAnLW1hJywgJzIwMCcsICctaW1hZScsICc8aW5maWxlLm1hZT4nLCAnLW9tYWUnLCAnPG91dGZpbGUubWFlPic=

>  <r_lp_tautomer_probability>  (18) 
1

>  <r_epik_Ionization_Penalty>  (18) 
5.19356e-07

>  <r_epik_Ionization_Penalty_Charging>  (18) 
0

>  <r_epik_Ionization_Penalty_Neutral>  (18) 
5.19356e-07

>  <r_epik_State_Penalty>  (18) 
-0

>  <r_epik_Charging_Adjusted_Penalty>  (18) 
0

>  <i_epik_Tot_Q>  (18) 
0

>  <i_epik_Tot_abs_Q>  (18) 
0

>  <s_lp_Force_Field>  (18) 
OPLS3e

>  <r_lp_Energy>  (18) 
33.2876

>  <b_lp_Chiralities_Consistent>  (18) 
1

>  <s_lp_Variant>  (18) 
4:0-1

>  <s_i_glide_gridfile>  (18) 
pfpi4k_grid

>  <i_i_glide_lignum>  (18) 
6

>  <i_i_glide_rotatable_bonds>  (18) 
9

>  <r_i_docking_score>  (18) 
-4.31259

>  <r_i_glide_ligand_efficiency>  (18) 
-0.253682

>  <r_i_glide_ligand_efficiency_sa>  (18) 
-0.652287

>  <r_i_glide_ligand_efficiency_ln>  (18) 
-1.12506

>  <r_i_glide_gscore>  (18) 
-4.31259

>  <r_i_glide_lipo>  (18) 
-0.0224595

>  <r_i_glide_hbond>  (18) 
0

>  <r_i_glide_metal>  (18) 
-0

>  <r_i_glide_rewards>  (18) 
-2.18942

>  <r_i_glide_evdw>  (18) 
-13.2091

>  <r_i_glide_ecoul>  (18) 
-11.4403

>  <r_i_glide_erotb>  (18) 
0.275789

>  <r_i_glide_esite>  (18) 
0

>  <r_i_glide_emodel>  (18) 
-36.5812

>  <r_i_glide_energy>  (18) 
-24.6494

>  <r_i_glide_einternal>  (18) 
2.86008

>  <r_i_glide_intrahb_reward>  (18) 
-0.5

>  <i_i_glide_confnum>  (18) 
4

>  <i_i_glide_posenum>  (18) 
6

>  <r_i_glide_eff_state_penalty>  (18) 
0

>  <ligand_id>  (18) 
4

>  <original_smiles>  (18) 
OCC1(O)C(O)C2(O)C(O)CC(O)C2(O)C1O

>  <smiles>  (18) 
[H]OC([H])([H])C1(O[H])C([H])(O[H])C2(O[H])C([H])(O[H])C([H])([H])C([H])(O[H])C2(O[H])C1([H])O[H]

$$$$
4:1:0
     RDKit          3D

 33 34  0  0  1  0  0  0  0  0999 V2000
    3.5949   -0.1992   -3.0797 O   0  0  0  0  0  0  0  0  0  0  0  0
    3.2814   -1.3284   -3.8359 C   0  0  0  0  0  0  0  0  0  0  0  0
    3.4345   -2.6756   -3.0870 C   0  0  2  0  0  0  0  0  0  0  0  0
    2.8953   -3.6106   -3.9992 O   0  0  0  0  0  0  0  0  0  0  0  0
    2.6764   -2.7180   -1.7441 C   0  0  1  0  0  0  0  0  0  0  0  0
    2.2221   -4.0049   -1.3980 O   0  0  0  0  0  0  0  0  0  0  0  0
    3.6962   -2.1627   -0.6592 C   0  0  1  0  0  0  0  0  0  0  0  0
    3.4351   -0.8230   -0.3283 O   0  0  0  0  0  0  0  0  0  0  0  0
    3.8114   -2.8506    0.7337 C   0  0  1  0  0  0  0  0  0  0  0  0
    2.6673   -3.5602    1.1471 O   0  0  0  0  0  0  0  0  0  0  0  0
    4.9965   -3.7886    0.5711 C   0  0  0  0  0  0  0  0  0  0  0  0
    5.9939   -2.9917   -0.2603 C   0  0  1  0  0  0  0  0  0  0  0  0
    6.9763   -3.8444   -0.7584 O   0  0  0  0  0  0  0  0  0  0  0  0
    5.1179   -2.3102   -1.3261 C   0  0  2  0  0  0  0  0  0  0  0  0
    5.7175   -1.0667   -1.5752 O   0  0  0  0  0  0  0  0  0  0  0  0
    4.8972   -2.9857   -2.7154 C   0  0  1  0  0  0  0  0  0  0  0  0
    4.9949   -4.4130   -2.6394 O   0  0  0  0  0  0  0  0  0  0  0  0
    3.0055   -0.1614   -2.3315 H   0  0  0  0  0  0  0  0  0  0  0  0
    2.2548   -1.1951   -4.1878 H   0  0  0  0  0  0  0  0  0  0  0  0
    3.9699   -1.2826   -4.6774 H   0  0  0  0  0  0  0  0  0  0  0  0
    2.7589   -4.4460   -3.5727 H   0  0  0  0  0  0  0  0  0  0  0  0
    1.7062   -2.2963   -1.9148 H   0  0  0  0  0  0  0  0  0  0  0  0
    2.7369   -4.6883   -1.8249 H   0  0  0  0  0  0  0  0  0  0  0  0
    2.4792   -0.7128   -0.3335 H   0  0  0  0  0  0  0  0  0  0  0  0
    4.0455   -2.1046    1.4990 H   0  0  0  0  0  0  0  0  0  0  0  0
    2.3624   -3.9951    0.3580 H   0  0  0  0  0  0  0  0  0  0  0  0
    5.4104   -4.0812    1.5284 H   0  0  0  0  0  0  0  0  0  0  0  0
    4.6821   -4.6889    0.0346 H   0  0  0  0  0  0  0  0  0  0  0  0
    6.4960   -2.2414    0.3537 H   0  0  0  0  0  0  0  0  0  0  0  0
    6.5485   -4.3416   -1.4514 H   0  0  0  0  0  0  0  0  0  0  0  0
    5.0404   -0.5057   -1.9517 H   0  0  0  0  0  0  0  0  0  0  0  0
    5.6040   -2.6783   -3.4850 H   0  0  0  0  0  0  0  0  0  0  0  0
    4.2322   -4.8208   -2.3341 H   0  0  0  0  0  0  0  0  0  0  0  0
  1  2  1  0
  1 18  1  0
  2  3  1  0
  2 19  1  0
  2 20  1  0
  3 16  1  0
  3  4  1  6
  3  5  1  0
  4 21  1  0
  5  6  1  0
  5  7  1  0
  5 22  1  6
  6 23  1  0
  7 14  1  0
  7  8  1  1
  7  9  1  0
  8 24  1  0
  9 10  1  0
  9 11  1  0
  9 25  1  1
 10 26  1  0
 11 12  1  0
 11 27  1  0
 11 28  1  0
 12 13  1  0
 12 14  1  0
 12 29  1  1
 13 30  1  0
 14 15  1  6
 14 16  1  0
 15 31  1  0
 16 17  1  0
 16 32  1  6
 17 33  1  0
M  END
>  <i_m_ct_stereo_status>  (19) 
1

>  <s_m_source_file>  (19) 
/var/tmp/pbs.5076255.sched01/tmpu3exd1vk/0t_9me_9p.sdf

>  <i_m_source_file_index>  (19) 
7

>  <i_lp_mmshare_version>  (19) 
48012

>  <i_f3d_flags>  (19) 
0

>  <s_epik_input>  (19) 
W09IXVtDSDJdW0NAQF0oW09IXSkoW0NASF0xW09IXSlbQ0BIXShbT0hdKVtDQEBdKFtPSF0pKFtDQEBdMTJbT0hdKVtDQEhdKFtPSF0pW0NIMl1bQ0BASF0yW09IXQ==

>  <s_epik_cmdline>  (19) 
J2VwaWtfcHl0aG9uJywgJy1waHQnLCAnMi4wJywgJy1waCcsICc3LjAnLCAnLXRuJywgJzgnLCAnLW1hJywgJzIwMCcsICctaW1hZScsICc8aW5maWxlLm1hZT4nLCAnLW9tYWUnLCAnPG91dGZpbGUubWFlPic=

>  <r_lp_tautomer_probability>  (19) 
1

>  <r_epik_Ionization_Penalty>  (19) 
5.19356e-07

>  <r_epik_Ionization_Penalty_Charging>  (19) 
0

>  <r_epik_Ionization_Penalty_Neutral>  (19) 
5.19356e-07

>  <r_epik_State_Penalty>  (19) 
-0

>  <r_epik_Charging_Adjusted_Penalty>  (19) 
0

>  <i_epik_Tot_Q>  (19) 
0

>  <i_epik_Tot_abs_Q>  (19) 
0

>  <s_lp_Force_Field>  (19) 
OPLS3e

>  <r_lp_Energy>  (19) 
30.9249

>  <b_lp_Chiralities_Consistent>  (19) 
1

>  <s_lp_Variant>  (19) 
4:0-2

>  <s_i_glide_gridfile>  (19) 
pfpi4k_grid

>  <i_i_glide_lignum>  (19) 
7

>  <i_i_glide_rotatable_bonds>  (19) 
9

>  <r_i_docking_score>  (19) 
-5.94396

>  <r_i_glide_ligand_efficiency>  (19) 
-0.349645

>  <r_i_glide_ligand_efficiency_sa>  (19) 
-0.899035

>  <r_i_glide_ligand_efficiency_ln>  (19) 
-1.55065

>  <r_i_glide_gscore>  (19) 
-5.94396

>  <r_i_glide_lipo>  (19) 
-0.443564

>  <r_i_glide_hbond>  (19) 
0

>  <r_i_glide_metal>  (19) 
-0

>  <r_i_glide_rewards>  (19) 
-3.18942

>  <r_i_glide_evdw>  (19) 
-0.320882

>  <r_i_glide_ecoul>  (19) 
-17.1381

>  <r_i_glide_erotb>  (19) 
0.275789

>  <r_i_glide_esite>  (19) 
0

>  <r_i_glide_emodel>  (19) 
-29.8386

>  <r_i_glide_energy>  (19) 
-17.459

>  <r_i_glide_einternal>  (19) 
13.0181

>  <r_i_glide_intrahb_reward>  (19) 
-1.5

>  <i_i_glide_confnum>  (19) 
2

>  <i_i_glide_posenum>  (19) 
2

>  <r_i_glide_eff_state_penalty>  (19) 
0

>  <ligand_id>  (19) 
4

>  <original_smiles>  (19) 
OCC1(O)C(O)C2(O)C(O)CC(O)C2(O)C1O

>  <smiles>  (19) 
[H]OC([H])([H])C1(O[H])C([H])(O[H])C2(O[H])C([H])(O[H])C([H])([H])C([H])(O[H])C2(O[H])C1([H])O[H]

$$$$
4:1:1
     RDKit          3D

 33 34  0  0  1  0  0  0  0  0999 V2000
    2.9079   -0.3534   -4.7057 O   0  0  0  0  0  0  0  0  0  0  0  0
    3.7632   -1.4070   -4.3262 C   0  0  0  0  0  0  0  0  0  0  0  0
    4.2541   -1.2525   -2.8646 C   0  0  2  0  0  0  0  0  0  0  0  0
    4.6098    0.0610   -2.7196 O   0  0  0  0  0  0  0  0  0  0  0  0
    5.4205   -2.1559   -2.4542 C   0  0  1  0  0  0  0  0  0  0  0  0
    6.1636   -1.6053   -1.3688 O   0  0  0  0  0  0  0  0  0  0  0  0
    4.7229   -3.4568   -2.0467 C   0  0  1  0  0  0  0  0  0  0  0  0
    4.7375   -4.1976   -3.2553 O   0  0  0  0  0  0  0  0  0  0  0  0
    5.3527   -4.2386   -0.8382 C   0  0  1  0  0  0  0  0  0  0  0  0
    6.6864   -3.9212   -0.4246 O   0  0  0  0  0  0  0  0  0  0  0  0
    4.4833   -3.8469    0.3463 C   0  0  0  0  0  0  0  0  0  0  0  0
    3.0857   -3.7579   -0.2448 C   0  0  1  0  0  0  0  0  0  0  0  0
    2.2152   -3.0729    0.6072 O   0  0  0  0  0  0  0  0  0  0  0  0
    3.2682   -3.0962   -1.6223 C   0  0  2  0  0  0  0  0  0  0  0  0
    2.2476   -3.5424   -2.4707 O   0  0  0  0  0  0  0  0  0  0  0  0
    3.1839   -1.5708   -1.8050 C   0  0  1  0  0  0  0  0  0  0  0  0
    3.5589   -0.9582   -0.5601 O   0  0  0  0  0  0  0  0  0  0  0  0
    2.1631   -0.3383   -4.1123 H   0  0  0  0  0  0  0  0  0  0  0  0
    3.2548   -2.3503   -4.5148 H   0  0  0  0  0  0  0  0  0  0  0  0
    4.6064   -1.3890   -5.0055 H   0  0  0  0  0  0  0  0  0  0  0  0
    3.8239    0.6061   -2.8302 H   0  0  0  0  0  0  0  0  0  0  0  0
    6.1076   -2.3319   -3.2684 H   0  0  0  0  0  0  0  0  0  0  0  0
    5.5186   -1.2740   -0.7310 H   0  0  0  0  0  0  0  0  0  0  0  0
    4.2948   -5.0136   -3.1124 H   0  0  0  0  0  0  0  0  0  0  0  0
    5.2632   -5.3125   -1.0022 H   0  0  0  0  0  0  0  0  0  0  0  0
    6.8526   -3.0047   -0.6351 H   0  0  0  0  0  0  0  0  0  0  0  0
    4.5831   -4.5352    1.1929 H   0  0  0  0  0  0  0  0  0  0  0  0
    4.8057   -2.8616    0.6855 H   0  0  0  0  0  0  0  0  0  0  0  0
    2.7273   -4.7748   -0.3607 H   0  0  0  0  0  0  0  0  0  0  0  0
    1.8327   -2.3596    0.0966 H   0  0  0  0  0  0  0  0  0  0  0  0
    2.3899   -4.4578   -2.6691 H   0  0  0  0  0  0  0  0  0  0  0  0
    2.2352   -1.2301   -2.1931 H   0  0  0  0  0  0  0  0  0  0  0  0
    2.7780   -0.7252   -0.0712 H   0  0  0  0  0  0  0  0  0  0  0  0
  1  2  1  0
  1 18  1  0
  2  3  1  0
  2 19  1  0
  2 20  1  0
  3 16  1  0
  3  4  1  6
  3  5  1  0
  4 21  1  0
  5  6  1  0
  5  7  1  0
  5 22  1  6
  6 23  1  0
  7 14  1  0
  7  8  1  6
  7  9  1  0
  8 24  1  0
  9 10  1  0
  9 11  1  0
  9 25  1  6
 10 26  1  0
 11 12  1  0
 11 27  1  0
 11 28  1  0
 12 13  1  0
 12 14  1  0
 12 29  1  6
 13 30  1  0
 14 15  1  6
 14 16  1  0
 15 31  1  0
 16 17  1  0
 16 32  1  6
 17 33  1  0
M  END
>  <i_m_ct_stereo_status>  (20) 
1

>  <s_m_source_file>  (20) 
/var/tmp/pbs.5076255.sched01/tmpu3exd1vk/0t_9me_9p.sdf

>  <i_m_source_file_index>  (20) 
7

>  <i_lp_mmshare_version>  (20) 
48012

>  <i_f3d_flags>  (20) 
0

>  <s_epik_input>  (20) 
W09IXVtDSDJdW0NAQF0oW09IXSkoW0NASF0xW09IXSlbQ0BIXShbT0hdKVtDQEBdKFtPSF0pKFtDQEBdMTJbT0hdKVtDQEhdKFtPSF0pW0NIMl1bQ0BASF0yW09IXQ==

>  <s_epik_cmdline>  (20) 
J2VwaWtfcHl0aG9uJywgJy1waHQnLCAnMi4wJywgJy1waCcsICc3LjAnLCAnLXRuJywgJzgnLCAnLW1hJywgJzIwMCcsICctaW1hZScsICc8aW5maWxlLm1hZT4nLCAnLW9tYWUnLCAnPG91dGZpbGUubWFlPic=

>  <r_lp_tautomer_probability>  (20) 
1

>  <r_epik_Ionization_Penalty>  (20) 
5.19356e-07

>  <r_epik_Ionization_Penalty_Charging>  (20) 
0

>  <r_epik_Ionization_Penalty_Neutral>  (20) 
5.19356e-07

>  <r_epik_State_Penalty>  (20) 
-0

>  <r_epik_Charging_Adjusted_Penalty>  (20) 
0

>  <i_epik_Tot_Q>  (20) 
0

>  <i_epik_Tot_abs_Q>  (20) 
0

>  <s_lp_Force_Field>  (20) 
OPLS3e

>  <r_lp_Energy>  (20) 
30.9249

>  <b_lp_Chiralities_Consistent>  (20) 
1

>  <s_lp_Variant>  (20) 
4:0-2

>  <s_i_glide_gridfile>  (20) 
pfpi4k_grid

>  <i_i_glide_lignum>  (20) 
7

>  <i_i_glide_rotatable_bonds>  (20) 
9

>  <r_i_docking_score>  (20) 
-5.14858

>  <r_i_glide_ligand_efficiency>  (20) 
-0.302858

>  <r_i_glide_ligand_efficiency_sa>  (20) 
-0.778733

>  <r_i_glide_ligand_efficiency_ln>  (20) 
-1.34315

>  <r_i_glide_gscore>  (20) 
-5.14858

>  <r_i_glide_lipo>  (20) 
-0.138329

>  <r_i_glide_hbond>  (20) 
0

>  <r_i_glide_metal>  (20) 
-0

>  <r_i_glide_rewards>  (20) 
-2.68942

>  <r_i_glide_evdw>  (20) 
-5.04046

>  <r_i_glide_ecoul>  (20) 
-15.0791

>  <r_i_glide_erotb>  (20) 
0.193052

>  <r_i_glide_esite>  (20) 
0

>  <r_i_glide_emodel>  (20) 
-30.6698

>  <r_i_glide_energy>  (20) 
-20.1195

>  <r_i_glide_einternal>  (20) 
4.07002

>  <r_i_glide_intrahb_reward>  (20) 
-1

>  <i_i_glide_confnum>  (20) 
4

>  <i_i_glide_posenum>  (20) 
23

>  <r_i_glide_eff_state_penalty>  (20) 
0

>  <ligand_id>  (20) 
4

>  <original_smiles>  (20) 
OCC1(O)C(O)C2(O)C(O)CC(O)C2(O)C1O

>  <smiles>  (20) 
[H]OC([H])([H])C1(O[H])C([H])(O[H])C2(O[H])C([H])(O[H])C([H])([H])C([H])(O[H])C2(O[H])C1([H])O[H]

$$$$
4:1:2
     RDKit          3D

 33 34  0  0  1  0  0  0  0  0999 V2000
    2.9563   -0.2488   -4.7746 O   0  0  0  0  0  0  0  0  0  0  0  0
    3.8213   -1.3145   -4.4204 C   0  0  0  0  0  0  0  0  0  0  0  0
    4.2690   -1.1813   -2.9421 C   0  0  2  0  0  0  0  0  0  0  0  0
    4.6141    0.1718   -2.7557 O   0  0  0  0  0  0  0  0  0  0  0  0
    5.3995   -2.1378   -2.5277 C   0  0  1  0  0  0  0  0  0  0  0  0
    6.0709   -1.5901   -1.4019 O   0  0  0  0  0  0  0  0  0  0  0  0
    4.6739   -3.4698   -2.2128 C   0  0  1  0  0  0  0  0  0  0  0  0
    4.7235   -4.2023   -3.4025 O   0  0  0  0  0  0  0  0  0  0  0  0
    5.2061   -4.3154   -0.9972 C   0  0  1  0  0  0  0  0  0  0  0  0
    6.5036   -4.0461   -0.4919 O   0  0  0  0  0  0  0  0  0  0  0  0
    4.2687   -3.9487    0.1275 C   0  0  0  0  0  0  0  0  0  0  0  0
    2.9207   -3.8351   -0.5576 C   0  0  1  0  0  0  0  0  0  0  0  0
    2.1914   -3.0470    0.3324 O   0  0  0  0  0  0  0  0  0  0  0  0
    3.1858   -3.1015   -1.8993 C   0  0  2  0  0  0  0  0  0  0  0  0
    2.2272   -3.4451   -2.8973 O   0  0  0  0  0  0  0  0  0  0  0  0
    3.1652   -1.5666   -1.9684 C   0  0  1  0  0  0  0  0  0  0  0  0
    3.4593   -1.0308   -0.6845 O   0  0  0  0  0  0  0  0  0  0  0  0
    2.1715   -0.3141   -4.2514 H   0  0  0  0  0  0  0  0  0  0  0  0
    3.3500   -2.2745   -4.6766 H   0  0  0  0  0  0  0  0  0  0  0  0
    4.6897   -1.2563   -5.0561 H   0  0  0  0  0  0  0  0  0  0  0  0
    3.8022    0.6587   -2.8294 H   0  0  0  0  0  0  0  0  0  0  0  0
    6.1088   -2.3382   -3.3136 H   0  0  0  0  0  0  0  0  0  0  0  0
    5.3843   -1.3887   -0.7645 H   0  0  0  0  0  0  0  0  0  0  0  0
    4.1401   -4.9707   -3.2560 H   0  0  0  0  0  0  0  0  0  0  0  0
    5.0819   -5.3851   -1.1921 H   0  0  0  0  0  0  0  0  0  0  0  0
    6.6539   -3.1061   -0.6034 H   0  0  0  0  0  0  0  0  0  0  0  0
    4.2733   -4.6552    0.9575 H   0  0  0  0  0  0  0  0  0  0  0  0
    4.5638   -2.9804    0.5501 H   0  0  0  0  0  0  0  0  0  0  0  0
    2.4985   -4.8321   -0.7233 H   0  0  0  0  0  0  0  0  0  0  0  0
    1.7635   -2.3867   -0.1864 H   0  0  0  0  0  0  0  0  0  0  0  0
    1.3348   -3.3563   -2.5777 H   0  0  0  0  0  0  0  0  0  0  0  0
    2.2397   -1.1596   -2.3288 H   0  0  0  0  0  0  0  0  0  0  0  0
    2.6522   -0.8018   -0.2508 H   0  0  0  0  0  0  0  0  0  0  0  0
  1  2  1  0
  1 18  1  0
  2  3  1  0
  2 19  1  0
  2 20  1  0
  3 16  1  0
  3  4  1  1
  3  5  1  0
  4 21  1  0
  5  6  1  0
  5  7  1  0
  5 22  1  6
  6 23  1  0
  7 14  1  0
  7  8  1  6
  7  9  1  0
  8 24  1  0
  9 10  1  0
  9 11  1  0
  9 25  1  6
 10 26  1  0
 11 12  1  0
 11 27  1  0
 11 28  1  0
 12 13  1  0
 12 14  1  0
 12 29  1  6
 13 30  1  0
 14 15  1  6
 14 16  1  0
 15 31  1  0
 16 17  1  0
 16 32  1  6
 17 33  1  0
M  END
>  <i_m_ct_stereo_status>  (21) 
1

>  <s_m_source_file>  (21) 
/var/tmp/pbs.5076255.sched01/tmpu3exd1vk/0t_9me_9p.sdf

>  <i_m_source_file_index>  (21) 
7

>  <i_lp_mmshare_version>  (21) 
48012

>  <i_f3d_flags>  (21) 
0

>  <s_epik_input>  (21) 
W09IXVtDSDJdW0NAQF0oW09IXSkoW0NASF0xW09IXSlbQ0BIXShbT0hdKVtDQEBdKFtPSF0pKFtDQEBdMTJbT0hdKVtDQEhdKFtPSF0pW0NIMl1bQ0BASF0yW09IXQ==

>  <s_epik_cmdline>  (21) 
J2VwaWtfcHl0aG9uJywgJy1waHQnLCAnMi4wJywgJy1waCcsICc3LjAnLCAnLXRuJywgJzgnLCAnLW1hJywgJzIwMCcsICctaW1hZScsICc8aW5maWxlLm1hZT4nLCAnLW9tYWUnLCAnPG91dGZpbGUubWFlPic=

>  <r_lp_tautomer_probability>  (21) 
1

>  <r_epik_Ionization_Penalty>  (21) 
5.19356e-07

>  <r_epik_Ionization_Penalty_Charging>  (21) 
0

>  <r_epik_Ionization_Penalty_Neutral>  (21) 
5.19356e-07

>  <r_epik_State_Penalty>  (21) 
-0

>  <r_epik_Charging_Adjusted_Penalty>  (21) 
0

>  <i_epik_Tot_Q>  (21) 
0

>  <i_epik_Tot_abs_Q>  (21) 
0

>  <s_lp_Force_Field>  (21) 
OPLS3e

>  <r_lp_Energy>  (21) 
30.9249

>  <b_lp_Chiralities_Consistent>  (21) 
1

>  <s_lp_Variant>  (21) 
4:0-2

>  <s_i_glide_gridfile>  (21) 
pfpi4k_grid

>  <i_i_glide_lignum>  (21) 
7

>  <i_i_glide_rotatable_bonds>  (21) 
9

>  <r_i_docking_score>  (21) 
-4.51462

>  <r_i_glide_ligand_efficiency>  (21) 
-0.265566

>  <r_i_glide_ligand_efficiency_sa>  (21) 
-0.682845

>  <r_i_glide_ligand_efficiency_ln>  (21) 
-1.17776

>  <r_i_glide_gscore>  (21) 
-4.51462

>  <r_i_glide_lipo>  (21) 
-0.0857229

>  <r_i_glide_hbond>  (21) 
0

>  <r_i_glide_metal>  (21) 
-0

>  <r_i_glide_rewards>  (21) 
-2.68942

>  <r_i_glide_evdw>  (21) 
-4.45184

>  <r_i_glide_ecoul>  (21) 
-12.8619

>  <r_i_glide_erotb>  (21) 
0.193052

>  <r_i_glide_esite>  (21) 
0

>  <r_i_glide_emodel>  (21) 
-26.4753

>  <r_i_glide_energy>  (21) 
-17.3137

>  <r_i_glide_einternal>  (21) 
3.70701

>  <r_i_glide_intrahb_reward>  (21) 
-1

>  <i_i_glide_confnum>  (21) 
1

>  <i_i_glide_posenum>  (21) 
13

>  <r_i_glide_eff_state_penalty>  (21) 
0

>  <ligand_id>  (21) 
4

>  <original_smiles>  (21) 
OCC1(O)C(O)C2(O)C(O)CC(O)C2(O)C1O

>  <smiles>  (21) 
[H]OC([H])([H])C1(O[H])C([H])(O[H])C2(O[H])C([H])(O[H])C([H])([H])C([H])(O[H])C2(O[H])C1([H])O[H]

$$$$
5:0:0
     RDKit          3D

 29 34  0  0  1  0  0  0  0  0999 V2000
    3.6723   -2.8776   -2.7438 C   0  0  0  0  0  0  0  0  0  0  0  0
    5.0816   -3.4819   -2.8483 C   0  0  0  0  0  0  0  0  0  0  0  0
    5.9850   -2.6285   -1.9404 C   0  0  1  0  0  0  0  0  0  0  0  0
    5.1604   -1.3512   -1.5417 C   0  0  1  0  0  0  0  0  0  0  0  0
    3.7311   -1.8800   -1.5782 C   0  0  2  0  0  0  0  0  0  0  0  0
    3.5372   -2.4265   -0.1391 C   0  0  1  0  0  0  0  0  0  0  0  0
    3.9548   -3.9266    0.0818 C   0  0  0  0  0  0  0  0  0  0  0  0
    5.4568   -3.9033    0.4174 C   0  0  1  0  0  0  0  0  0  0  0  0
    6.4435   -3.3045   -0.6158 C   0  0  2  0  0  0  0  0  0  0  0  0
    6.4009   -2.1145    0.3643 C   0  0  2  0  0  0  0  0  0  0  0  0
    4.6413   -1.6281    0.6717 C   0  0  1  0  0  0  0  0  0  0  0  0
    5.4820   -1.0774    0.0092 C   0  0  1  0  0  0  0  0  0  0  0  0
    5.6517   -2.5166    1.1554 C   0  0  1  0  0  0  0  0  0  0  0  0
    2.8863   -3.6283   -2.6250 H   0  0  0  0  0  0  0  0  0  0  0  0
    3.4491   -2.3389   -3.6683 H   0  0  0  0  0  0  0  0  0  0  0  0
    5.0837   -4.5287   -2.5432 H   0  0  0  0  0  0  0  0  0  0  0  0
    5.4319   -3.4569   -3.8800 H   0  0  0  0  0  0  0  0  0  0  0  0
    6.8738   -2.3243   -2.4903 H   0  0  0  0  0  0  0  0  0  0  0  0
    5.3241   -0.5037   -2.2067 H   0  0  0  0  0  0  0  0  0  0  0  0
    3.0266   -1.0617   -1.7332 H   0  0  0  0  0  0  0  0  0  0  0  0
    2.5272   -2.2476    0.2203 H   0  0  0  0  0  0  0  0  0  0  0  0
    3.4138   -4.2980    0.9517 H   0  0  0  0  0  0  0  0  0  0  0  0
    3.7044   -4.6051   -0.7297 H   0  0  0  0  0  0  0  0  0  0  0  0
    5.8562   -4.7568    0.9656 H   0  0  0  0  0  0  0  0  0  0  0  0
    7.4034   -3.8196   -0.6406 H   0  0  0  0  0  0  0  0  0  0  0  0
    7.3294   -1.8042    0.8977 H   0  0  0  0  0  0  0  0  0  0  0  0
    4.2738   -0.8918    1.4295 H   0  0  0  0  0  0  0  0  0  0  0  0
    5.6051   -0.0281    0.3444 H   0  0  0  0  0  0  0  0  0  0  0  0
    6.1017   -2.4808    2.1648 H   0  0  0  0  0  0  0  0  0  0  0  0
  1  5  1  0
  1  2  1  0
  1 14  1  0
  1 15  1  0
  2  3  1  0
  2 16  1  0
  2 17  1  0
  3  9  1  0
  3  4  1  0
  3 18  1  6
  4 12  1  0
  4  5  1  0
  4 19  1  6
  5  6  1  0
  5 20  1  6
  6 11  1  0
  6  7  1  0
  6 21  1  1
  7  8  1  0
  7 22  1  0
  7 23  1  0
  8 13  1  0
  8  9  1  0
  8 24  1  1
  9 10  1  0
  9 25  1  6
 10 13  1  0
 10 11  1  0
 10 26  1  1
 11 12  1  0
 11 27  1  1
 12 13  1  0
 12 28  1  6
 13 29  1  1
M  END
>  <i_m_ct_stereo_status>  (22) 
1

>  <s_m_source_file>  (22) 
/var/tmp/pbs.5076255.sched01/tmpu3exd1vk/0t_9me_9p.sdf

>  <i_m_source_file_index>  (22) 
8

>  <i_lp_mmshare_version>  (22) 
48012

>  <i_f3d_flags>  (22) 
0

>  <s_epik_input>  (22) 
W0NIMl0xW0NIMl1bQ0BIXShbQ0BASF0yW0NASF0xMylbQ0BASF00W0NASF01W0NAQEhdNltDQEhdM1tDQEhdKFtDSDJdNClbQ0BASF02W0NAQEhdMjU=

>  <s_epik_cmdline>  (22) 
J2VwaWtfcHl0aG9uJywgJy1waHQnLCAnMi4wJywgJy1waCcsICc3LjAnLCAnLXRuJywgJzgnLCAnLW1hJywgJzIwMCcsICctaW1hZScsICc8aW5maWxlLm1hZT4nLCAnLW9tYWUnLCAnPG91dGZpbGUubWFlPic=

>  <r_lp_tautomer_probability>  (22) 
1

>  <r_epik_Ionization_Penalty>  (22) 
0

>  <r_epik_Ionization_Penalty_Charging>  (22) 
0

>  <r_epik_Ionization_Penalty_Neutral>  (22) 
0

>  <r_epik_State_Penalty>  (22) 
-0

>  <r_epik_Charging_Adjusted_Penalty>  (22) 
0

>  <i_epik_Tot_Q>  (22) 
0

>  <i_epik_Tot_abs_Q>  (22) 
0

>  <s_lp_Force_Field>  (22) 
OPLS3e

>  <r_lp_Energy>  (22) 
405.602

>  <b_lp_Chiralities_Consistent>  (22) 
1

>  <s_lp_Variant>  (22) 
5:0-1

>  <s_i_glide_gridfile>  (22) 
pfpi4k_grid

>  <i_i_glide_lignum>  (22) 
8

>  <i_i_glide_rotatable_bonds>  (22) 
0

>  <r_i_docking_score>  (22) 
-3.82654

>  <r_i_glide_ligand_efficiency>  (22) 
-0.294349

>  <r_i_glide_ligand_efficiency_sa>  (22) 
-0.692114

>  <r_i_glide_ligand_efficiency_ln>  (22) 
-1.07338

>  <r_i_glide_gscore>  (22) 
-3.82654

>  <r_i_glide_lipo>  (22) 
-0.487287

>  <r_i_glide_hbond>  (22) 
0

>  <r_i_glide_metal>  (22) 
-0

>  <r_i_glide_rewards>  (22) 
-2.23455

>  <r_i_glide_evdw>  (22) 
-19.9076

>  <r_i_glide_ecoul>  (22) 
-0.72884

>  <r_i_glide_erotb>  (22) 
0

>  <r_i_glide_esite>  (22) 
0

>  <r_i_glide_emodel>  (22) 
-25.5165

>  <r_i_glide_energy>  (22) 
-20.6364

>  <r_i_glide_einternal>  (22) 
0

>  <r_i_glide_intrahb_reward>  (22) 
-0

>  <i_i_glide_confnum>  (22) 
1

>  <i_i_glide_posenum>  (22) 
1

>  <r_i_glide_eff_state_penalty>  (22) 
0

>  <ligand_id>  (22) 
5

>  <original_smiles>  (22) 
C1CC2C3C1C1CC4C2C2C1C3C42

>  <smiles>  (22) 
[H]C1([H])C([H])([H])C2([H])C3([H])C1([H])C1([H])C([H])([H])C4([H])C2([H])C2([H])C1([H])C3([H])C42[H]

$$$$
5:0:1
     RDKit          3D

 29 34  0  0  1  0  0  0  0  0999 V2000
    4.1788   -1.9774   -2.8208 C   0  0  0  0  0  0  0  0  0  0  0  0
    4.6149   -0.7166   -2.0618 C   0  0  0  0  0  0  0  0  0  0  0  0
    4.4735   -1.0377   -0.5637 C   0  0  1  0  0  0  0  0  0  0  0  0
    3.6817   -2.3876   -0.4570 C   0  0  1  0  0  0  0  0  0  0  0  0
    4.0674   -3.0806   -1.7599 C   0  0  2  0  0  0  0  0  0  0  0  0
    5.3561   -3.8395   -1.3579 C   0  0  1  0  0  0  0  0  0  0  0  0
    6.7039   -3.0423   -1.5262 C   0  0  0  0  0  0  0  0  0  0  0  0
    6.9000   -2.2552   -0.2194 C   0  0  1  0  0  0  0  0  0  0  0  0
    5.8146   -1.2368    0.2070 C   0  0  2  0  0  0  0  0  0  0  0  0
    5.4420   -2.3755    1.1738 C   0  0  2  0  0  0  0  0  0  0  0  0
    5.2099   -3.9513    0.2156 C   0  0  1  0  0  0  0  0  0  0  0  0
    4.3811   -3.2279    0.7146 C   0  0  1  0  0  0  0  0  0  0  0  0
    6.2269   -3.1828    0.8732 C   0  0  1  0  0  0  0  0  0  0  0  0
    4.8468   -2.2411   -3.6439 H   0  0  0  0  0  0  0  0  0  0  0  0
    3.1910   -1.7986   -3.2551 H   0  0  0  0  0  0  0  0  0  0  0  0
    5.6356   -0.4376   -2.3089 H   0  0  0  0  0  0  0  0  0  0  0  0
    3.9886    0.1286   -2.3442 H   0  0  0  0  0  0  0  0  0  0  0  0
    3.8991   -0.2551   -0.0703 H   0  0  0  0  0  0  0  0  0  0  0  0
    2.6104   -2.2415   -0.3405 H   0  0  0  0  0  0  0  0  0  0  0  0
    3.3046   -3.8097   -2.0339 H   0  0  0  0  0  0  0  0  0  0  0  0
    5.4014   -4.8065   -1.8507 H   0  0  0  0  0  0  0  0  0  0  0  0
    7.5200   -3.7584   -1.6170 H   0  0  0  0  0  0  0  0  0  0  0  0
    6.7630   -2.4250   -2.4171 H   0  0  0  0  0  0  0  0  0  0  0  0
    7.9195   -1.9565    0.0310 H   0  0  0  0  0  0  0  0  0  0  0  0
    6.2211   -0.3535    0.7034 H   0  0  0  0  0  0  0  0  0  0  0  0
    5.5192   -2.2171    2.2737 H   0  0  0  0  0  0  0  0  0  0  0  0
    5.0617   -4.9744    0.6362 H   0  0  0  0  0  0  0  0  0  0  0  0
    3.7351   -3.8038    1.4075 H   0  0  0  0  0  0  0  0  0  0  0  0
    6.7997   -3.5103    1.7547 H   0  0  0  0  0  0  0  0  0  0  0  0
  1  5  1  0
  1  2  1  0
  1 14  1  0
  1 15  1  0
  2  3  1  0
  2 16  1  0
  2 17  1  0
  3  9  1  0
  3  4  1  0
  3 18  1  1
  4 12  1  0
  4  5  1  0
  4 19  1  1
  5  6  1  0
  5 20  1  6
  6 11  1  0
  6  7  1  0
  6 21  1  6
  7  8  1  0
  7 22  1  0
  7 23  1  0
  8 13  1  0
  8  9  1  0
  8 24  1  1
  9 10  1  0
  9 25  1  1
 10 13  1  0
 10 11  1  0
 10 26  1  1
 11 12  1  0
 11 27  1  1
 12 13  1  0
 12 28  1  1
 13 29  1  1
M  END
>  <i_m_ct_stereo_status>  (23) 
1

>  <s_m_source_file>  (23) 
/var/tmp/pbs.5076255.sched01/tmpu3exd1vk/0t_9me_9p.sdf

>  <i_m_source_file_index>  (23) 
8

>  <i_lp_mmshare_version>  (23) 
48012

>  <i_f3d_flags>  (23) 
0

>  <s_epik_input>  (23) 
W0NIMl0xW0NIMl1bQ0BIXShbQ0BASF0yW0NASF0xMylbQ0BASF00W0NASF01W0NAQEhdNltDQEhdM1tDQEhdKFtDSDJdNClbQ0BASF02W0NAQEhdMjU=

>  <s_epik_cmdline>  (23) 
J2VwaWtfcHl0aG9uJywgJy1waHQnLCAnMi4wJywgJy1waCcsICc3LjAnLCAnLXRuJywgJzgnLCAnLW1hJywgJzIwMCcsICctaW1hZScsICc8aW5maWxlLm1hZT4nLCAnLW9tYWUnLCAnPG91dGZpbGUubWFlPic=

>  <r_lp_tautomer_probability>  (23) 
1

>  <r_epik_Ionization_Penalty>  (23) 
0

>  <r_epik_Ionization_Penalty_Charging>  (23) 
0

>  <r_epik_Ionization_Penalty_Neutral>  (23) 
0

>  <r_epik_State_Penalty>  (23) 
-0

>  <r_epik_Charging_Adjusted_Penalty>  (23) 
0

>  <i_epik_Tot_Q>  (23) 
0

>  <i_epik_Tot_abs_Q>  (23) 
0

>  <s_lp_Force_Field>  (23) 
OPLS3e

>  <r_lp_Energy>  (23) 
405.602

>  <b_lp_Chiralities_Consistent>  (23) 
1

>  <s_lp_Variant>  (23) 
5:0-1

>  <s_i_glide_gridfile>  (23) 
pfpi4k_grid

>  <i_i_glide_lignum>  (23) 
8

>  <i_i_glide_rotatable_bonds>  (23) 
0

>  <r_i_docking_score>  (23) 
-3.62796

>  <r_i_glide_ligand_efficiency>  (23) 
-0.279074

>  <r_i_glide_ligand_efficiency_sa>  (23) 
-0.656195

>  <r_i_glide_ligand_efficiency_ln>  (23) 
-1.01767

>  <r_i_glide_gscore>  (23) 
-3.62796

>  <r_i_glide_lipo>  (23) 
-0.376272

>  <r_i_glide_hbond>  (23) 
0

>  <r_i_glide_metal>  (23) 
-0

>  <r_i_glide_rewards>  (23) 
-2.23455

>  <r_i_glide_evdw>  (23) 
-18.0818

>  <r_i_glide_ecoul>  (23) 
-0.753639

>  <r_i_glide_erotb>  (23) 
0

>  <r_i_glide_esite>  (23) 
0

>  <r_i_glide_emodel>  (23) 
-23.4612

>  <r_i_glide_energy>  (23) 
-18.8354

>  <r_i_glide_einternal>  (23) 
0

>  <r_i_glide_intrahb_reward>  (23) 
-0

>  <i_i_glide_confnum>  (23) 
2

>  <i_i_glide_posenum>  (23) 
6

>  <r_i_glide_eff_state_penalty>  (23) 
0

>  <ligand_id>  (23) 
5

>  <original_smiles>  (23) 
C1CC2C3C1C1CC4C2C2C1C3C42

>  <smiles>  (23) 
[H]C1([H])C([H])([H])C2([H])C3([H])C1([H])C1([H])C([H])([H])C4([H])C2([H])C2([H])C1([H])C3([H])C42[H]

$$$$
5:0:2
     RDKit          3D

 29 34  0  0  1  0  0  0  0  0999 V2000
    4.1041   -4.2813    1.6036 C   0  0  0  0  0  0  0  0  0  0  0  0
    5.5590   -3.7858    1.6821 C   0  0  0  0  0  0  0  0  0  0  0  0
    6.1015   -3.8226    0.2431 C   0  0  1  0  0  0  0  0  0  0  0  0
    5.0547   -4.6106   -0.6242 C   0  0  1  0  0  0  0  0  0  0  0  0
    3.7501   -4.3208    0.1088 C   0  0  2  0  0  0  0  0  0  0  0  0
    3.2732   -3.0076   -0.5605 C   0  0  1  0  0  0  0  0  0  0  0  0
    3.7977   -1.6788    0.1000 C   0  0  0  0  0  0  0  0  0  0  0  0
    5.1562   -1.3814   -0.5568 C   0  0  1  0  0  0  0  0  0  0  0  0
    6.2937   -2.4290   -0.4309 C   0  0  2  0  0  0  0  0  0  0  0  0
    5.8674   -2.7335   -1.8829 C   0  0  2  0  0  0  0  0  0  0  0  0
    4.0406   -3.0385   -1.9464 C   0  0  1  0  0  0  0  0  0  0  0  0
    4.9507   -3.8227   -2.0204 C   0  0  1  0  0  0  0  0  0  0  0  0
    4.9969   -1.9752   -2.0138 C   0  0  1  0  0  0  0  0  0  0  0  0
    3.4075   -3.6806    2.1939 H   0  0  0  0  0  0  0  0  0  0  0  0
    4.0595   -5.2967    2.0060 H   0  0  0  0  0  0  0  0  0  0  0  0
    5.6183   -2.7834    2.1072 H   0  0  0  0  0  0  0  0  0  0  0  0
    6.1456   -4.4401    2.3282 H   0  0  0  0  0  0  0  0  0  0  0  0
    7.0505   -4.3584    0.2212 H   0  0  0  0  0  0  0  0  0  0  0  0
    5.2794   -5.6729   -0.7109 H   0  0  0  0  0  0  0  0  0  0  0  0
    3.0227   -5.1042   -0.1039 H   0  0  0  0  0  0  0  0  0  0  0  0
    2.1927   -2.9909   -0.6731 H   0  0  0  0  0  0  0  0  0  0  0  0
    3.1013   -0.8830   -0.1658 H   0  0  0  0  0  0  0  0  0  0  0  0
    3.8346   -1.6812    1.1866 H   0  0  0  0  0  0  0  0  0  0  0  0
    5.4975   -0.3464   -0.5338 H   0  0  0  0  0  0  0  0  0  0  0  0
    7.2826   -1.9816   -0.3421 H   0  0  0  0  0  0  0  0  0  0  0  0
    6.5936   -2.5947   -2.7171 H   0  0  0  0  0  0  0  0  0  0  0  0
    3.4136   -3.1594   -2.8640 H   0  0  0  0  0  0  0  0  0  0  0  0
    4.8679   -4.4187   -2.9513 H   0  0  0  0  0  0  0  0  0  0  0  0
    5.1586   -1.3383   -2.9008 H   0  0  0  0  0  0  0  0  0  0  0  0
  1  5  1  0
  1  2  1  0
  1 14  1  0
  1 15  1  0
  2  3  1  0
  2 16  1  0
  2 17  1  0
  3  9  1  0
  3  4  1  0
  3 18  1  1
  4 12  1  0
  4  5  1  0
  4 19  1  6
  5  6  1  0
  5 20  1  1
  6 11  1  0
  6  7  1  0
  6 21  1  6
  7  8  1  0
  7 22  1  0
  7 23  1  0
  8 13  1  0
  8  9  1  0
  8 24  1  6
  9 10  1  0
  9 25  1  6
 10 13  1  0
 10 11  1  0
 10 26  1  6
 11 12  1  0
 11 27  1  6
 12 13  1  0
 12 28  1  6
 13 29  1  6
M  END
>  <i_m_ct_stereo_status>  (24) 
1

>  <s_m_source_file>  (24) 
/var/tmp/pbs.5076255.sched01/tmpu3exd1vk/0t_9me_9p.sdf

>  <i_m_source_file_index>  (24) 
8

>  <i_lp_mmshare_version>  (24) 
48012

>  <i_f3d_flags>  (24) 
0

>  <s_epik_input>  (24) 
W0NIMl0xW0NIMl1bQ0BIXShbQ0BASF0yW0NASF0xMylbQ0BASF00W0NASF01W0NAQEhdNltDQEhdM1tDQEhdKFtDSDJdNClbQ0BASF02W0NAQEhdMjU=

>  <s_epik_cmdline>  (24) 
J2VwaWtfcHl0aG9uJywgJy1waHQnLCAnMi4wJywgJy1waCcsICc3LjAnLCAnLXRuJywgJzgnLCAnLW1hJywgJzIwMCcsICctaW1hZScsICc8aW5maWxlLm1hZT4nLCAnLW9tYWUnLCAnPG91dGZpbGUubWFlPic=

>  <r_lp_tautomer_probability>  (24) 
1

>  <r_epik_Ionization_Penalty>  (24) 
0

>  <r_epik_Ionization_Penalty_Charging>  (24) 
0

>  <r_epik_Ionization_Penalty_Neutral>  (24) 
0

>  <r_epik_State_Penalty>  (24) 
-0

>  <r_epik_Charging_Adjusted_Penalty>  (24) 
0

>  <i_epik_Tot_Q>  (24) 
0

>  <i_epik_Tot_abs_Q>  (24) 
0

>  <s_lp_Force_Field>  (24) 
OPLS3e

>  <r_lp_Energy>  (24) 
405.602

>  <b_lp_Chiralities_Consistent>  (24) 
1

>  <s_lp_Variant>  (24) 
5:0-1

>  <s_i_glide_gridfile>  (24) 
pfpi4k_grid

>  <i_i_glide_lignum>  (24) 
8

>  <i_i_glide_rotatable_bonds>  (24) 
0

>  <r_i_docking_score>  (24) 
-3.34393

>  <r_i_glide_ligand_efficiency>  (24) 
-0.257225

>  <r_i_glide_ligand_efficiency_sa>  (24) 
-0.604823

>  <r_i_glide_ligand_efficiency_ln>  (24) 
-0.938002

>  <r_i_glide_gscore>  (24) 
-3.34393

>  <r_i_glide_lipo>  (24) 
-0.173155

>  <r_i_glide_hbond>  (24) 
0

>  <r_i_glide_metal>  (24) 
-0

>  <r_i_glide_rewards>  (24) 
-2.23455

>  <r_i_glide_evdw>  (24) 
-17.6013

>  <r_i_glide_ecoul>  (24) 
-0.374404

>  <r_i_glide_erotb>  (24) 
0

>  <r_i_glide_esite>  (24) 
0

>  <r_i_glide_emodel>  (24) 
-22.2414

>  <r_i_glide_energy>  (24) 
-17.9757

>  <r_i_glide_einternal>  (24) 
0

>  <r_i_glide_intrahb_reward>  (24) 
-0

>  <i_i_glide_confnum>  (24) 
1

>  <i_i_glide_posenum>  (24) 
10

>  <r_i_glide_eff_state_penalty>  (24) 
0

>  <ligand_id>  (24) 
5

>  <original_smiles>  (24) 
C1CC2C3C1C1CC4C2C2C1C3C42

>  <smiles>  (24) 
[H]C1([H])C([H])([H])C2([H])C3([H])C1([H])C1([H])C([H])([H])C4([H])C2([H])C2([H])C1([H])C3([H])C42[H]

$$$$
6:0:0
     RDKit          3D

 46 51  0  0  1  0  0  0  0  0999 V2000
    8.9711   -2.9314    0.0854 C   0  0  0  0  0  0  0  0  0  0  0  0
    7.8581   -3.2444    0.9195 O   0  0  0  0  0  0  0  0  0  0  0  0
    6.5948   -3.2490    0.2565 C   0  0  2  0  0  0  0  0  0  0  0  0
    6.1152   -1.7459   -0.0270 C   0  0  2  0  0  0  0  0  0  0  0  0
    4.3735   -1.2091    0.5174 C   0  0  2  0  0  0  0  0  0  0  0  0
    5.3546   -1.2989    1.1832 C   0  0  1  0  0  0  0  0  0  0  0  0
    5.4642   -2.5872    2.1319 C   0  0  1  0  0  0  0  0  0  0  0  0
    4.5752   -2.6428    3.3159 N   0  0  0  0  0  0  0  0  0  0  0  0
    3.2290   -3.2244    3.0755 C   0  0  0  0  0  0  0  0  0  0  0  0
    2.5018   -2.4386    2.0049 C   0  0  0  0  0  0  0  0  0  0  0  0
    3.2346   -2.3255    0.6554 C   0  0  2  0  0  0  0  0  0  0  0  0
    4.0563   -3.5357    0.0824 C   0  0  2  0  0  0  0  0  0  0  0  0
    3.2253   -4.6748   -0.0155 O   0  0  0  0  0  0  0  0  0  0  0  0
    5.3578   -3.7323    1.0641 C   0  0  1  0  0  0  0  0  0  0  0  0
    4.4275   -2.8460   -1.3470 C   0  0  2  0  0  0  0  0  0  0  0  0
    3.1799   -2.4842   -2.2570 C   0  0  1  0  0  0  0  0  0  0  0  0
    3.0184   -1.0712   -2.3699 O   0  0  0  0  0  0  0  0  0  0  0  0
    3.3973   -3.0755   -3.6171 C   0  0  0  0  0  0  0  0  0  0  0  0
    4.5386   -3.7341   -3.6843 C   0  0  0  0  0  0  0  0  0  0  0  0
    5.3150   -3.6532   -2.3943 C   0  0  1  0  0  0  0  0  0  0  0  0
    6.5503   -3.0165   -2.6695 O   0  0  0  0  0  0  0  0  0  0  0  0
    5.1539   -1.5200   -0.7022 C   0  0  2  0  0  0  0  0  0  0  0  0
    9.8746   -2.8222    0.6874 H   0  0  0  0  0  0  0  0  0  0  0  0
    8.8504   -2.0036   -0.4697 H   0  0  0  0  0  0  0  0  0  0  0  0
    9.1395   -3.7286   -0.6355 H   0  0  0  0  0  0  0  0  0  0  0  0
    6.7415   -3.9245   -0.5699 H   0  0  0  0  0  0  0  0  0  0  0  0
    6.9239   -1.0366   -0.3064 H   0  0  0  0  0  0  0  0  0  0  0  0
    3.9990   -0.1655    0.5337 H   0  0  0  0  0  0  0  0  0  0  0  0
    5.6307   -0.3152    1.6268 H   0  0  0  0  0  0  0  0  0  0  0  0
    6.4430   -2.5740    2.6114 H   0  0  0  0  0  0  0  0  0  0  0  0
    5.0190   -3.2516    3.9717 H   0  0  0  0  0  0  0  0  0  0  0  0
    3.2955   -4.2874    2.8101 H   0  0  0  0  0  0  0  0  0  0  0  0
    2.6684   -3.1509    4.0114 H   0  0  0  0  0  0  0  0  0  0  0  0
    1.5501   -2.9649    1.8531 H   0  0  0  0  0  0  0  0  0  0  0  0
    2.2365   -1.4354    2.3661 H   0  0  0  0  0  0  0  0  0  0  0  0
    2.3971   -2.0766    0.0209 H   0  0  0  0  0  0  0  0  0  0  0  0
    3.4452   -5.1327   -0.8238 H   0  0  0  0  0  0  0  0  0  0  0  0
    5.4763   -4.7451    1.4613 H   0  0  0  0  0  0  0  0  0  0  0  0
    2.2450   -2.9339   -1.9339 H   0  0  0  0  0  0  0  0  0  0  0  0
    2.3033   -0.8212   -1.8007 H   0  0  0  0  0  0  0  0  0  0  0  0
    2.6771   -2.9518   -4.4205 H   0  0  0  0  0  0  0  0  0  0  0  0
    4.9215   -4.2526   -4.5460 H   0  0  0  0  0  0  0  0  0  0  0  0
    5.4670   -4.6716   -2.0661 H   0  0  0  0  0  0  0  0  0  0  0  0
    7.0902   -3.5481   -3.2562 H   0  0  0  0  0  0  0  0  0  0  0  0
    5.3354   -0.6761   -1.3986 H   0  0  0  0  0  0  0  0  0  0  0  0
    4.4702   -1.7020    3.6721 H   0  0  0  0  0  0  0  0  0  0  0  0
  1  2  1  0
  1 23  1  0
  1 24  1  0
  1 25  1  0
  2  3  1  0
  3 14  1  0
  3  4  1  0
  3 26  1  6
  4 22  1  0
  4  5  1  0
  4 27  1  6
  5 11  1  0
  5  6  1  0
  5 28  1  6
  6 22  1  0
  6  7  1  0
  6 29  1  6
  7 14  1  0
  7  8  1  0
  7 30  1  1
  8  9  1  0
  8 31  1  0
  8 46  1  0
  9 10  1  0
  9 32  1  0
  9 33  1  0
 10 11  1  0
 10 34  1  0
 10 35  1  0
 11 12  1  0
 11 36  1  6
 12 13  1  6
 12 14  1  0
 15 12  1  1
 13 37  1  0
 14 38  1  1
 15 20  1  0
 15 16  1  0
 15 22  1  0
 16 17  1  0
 16 18  1  0
 16 39  1  1
 17 40  1  0
 18 19  2  0
 18 41  1  0
 19 20  1  0
 19 42  1  0
 20 21  1  0
 20 43  1  1
 21 44  1  0
 22 45  1  6
M  CHG  1   8   1
M  END
>  <i_m_ct_stereo_status>  (25) 
1

>  <s_m_source_file>  (25) 
/var/tmp/pbs.5076255.sched01/tmpu3exd1vk/0t_9me_9p.sdf

>  <i_m_source_file_index>  (25) 
9

>  <i_lp_mmshare_version>  (25) 
48012

>  <i_f3d_flags>  (25) 
0

>  <s_epik_input>  (25) 
W0NIM11PW0NASF0xW0NASF0yW0NASF0oW05IXVtDSDJdW0NIMl0zKVtDQEhdNFtDQEhdNVtDQEhdMVtDQEhdNFtDQEhdM1tDQEBdMihbT0hdKVtDQF01NltDQEBIXShbT0hdKVtDSF09W0NIXVtDQEhdNltPSF0=

>  <s_epik_cmdline>  (25) 
J2VwaWtfcHl0aG9uJywgJy1waHQnLCAnMi4wJywgJy1waCcsICc3LjAnLCAnLXRuJywgJzgnLCAnLW1hJywgJzIwMCcsICctaW1hZScsICc8aW5maWxlLm1hZT4nLCAnLW9tYWUnLCAnPG91dGZpbGUubWFlPic=

>  <r_epik_Ionization_Penalty>  (25) 
0.000371096

>  <r_epik_Ionization_Penalty_Charging>  (25) 
0.000370838

>  <r_epik_Ionization_Penalty_Neutral>  (25) 
2.58231e-07

>  <r_epik_State_Penalty>  (25) 
0.000226129

>  <r_epik_Charging_Adjusted_Penalty>  (25) 
0.000596967

>  <i_epik_Tot_Q>  (25) 
1

>  <i_epik_Tot_abs_Q>  (25) 
1

>  <s_lp_Force_Field>  (25) 
OPLS3e

>  <r_lp_Energy>  (25) 
469.818

>  <b_lp_Chiralities_Consistent>  (25) 
1

>  <s_lp_Variant>  (25) 
6:0-1

>  <s_i_glide_gridfile>  (25) 
pfpi4k_grid

>  <i_i_glide_lignum>  (25) 
9

>  <i_i_glide_rotatable_bonds>  (25) 
4

>  <r_i_docking_score>  (25) 
-5.0238

>  <r_i_glide_ligand_efficiency>  (25) 
-0.228355

>  <r_i_glide_ligand_efficiency_sa>  (25) 
-0.639859

>  <r_i_glide_ligand_efficiency_ln>  (25) 
-1.228

>  <r_i_glide_gscore>  (25) 
-5.0238

>  <r_i_glide_lipo>  (25) 
-0.729466

>  <r_i_glide_hbond>  (25) 
-0.5886

>  <r_i_glide_metal>  (25) 
-0

>  <r_i_glide_rewards>  (25) 
-1.32016

>  <r_i_glide_evdw>  (25) 
-18.827

>  <r_i_glide_ecoul>  (25) 
-9.62821

>  <r_i_glide_erotb>  (25) 
0

>  <r_i_glide_esite>  (25) 
0

>  <r_i_glide_emodel>  (25) 
-36.0173

>  <r_i_glide_energy>  (25) 
-28.4552

>  <r_i_glide_einternal>  (25) 
2.92416

>  <r_i_glide_intrahb_reward>  (25) 
-0

>  <i_i_glide_confnum>  (25) 
2

>  <i_i_glide_posenum>  (25) 
17

>  <r_i_glide_eff_state_penalty>  (25) 
0

>  <ligand_id>  (25) 
6

>  <original_smiles>  (25) 
COC1C2C3C4C5NCCC3C(O)(C51)C1(C(O)C=CC1O)C42

>  <smiles>  (25) 
[H]OC1([H])C([H])=C([H])C([H])(O[H])C12C1([H])C3([H])C([H])(OC([H])([H])[H])C4([H])C2(O[H])C2([H])C([H])([H])C([H])([H])[N+]([H])([H])C4([H])C1([H])C32[H]

$$$$
6:0:1
     RDKit          3D

 46 51  0  0  1  0  0  0  0  0999 V2000
    1.6045   -1.0880    2.6091 C   0  0  0  0  0  0  0  0  0  0  0  0
    2.9286   -0.8694    2.1620 O   0  0  0  0  0  0  0  0  0  0  0  0
    3.6468   -2.0478    1.8136 C   0  0  2  0  0  0  0  0  0  0  0  0
    5.1286   -1.6184    1.3655 C   0  0  2  0  0  0  0  0  0  0  0  0
    5.7860   -2.2010   -0.3229 C   0  0  2  0  0  0  0  0  0  0  0  0
    5.0377   -1.3146   -0.0903 C   0  0  1  0  0  0  0  0  0  0  0  0
    3.4781   -1.5792   -0.4039 C   0  0  1  0  0  0  0  0  0  0  0  0
    3.0322   -1.6950   -1.8122 N   0  0  0  0  0  0  0  0  0  0  0  0
    3.1455   -3.0188   -2.4311 C   0  0  0  0  0  0  0  0  0  0  0  0
    4.5913   -3.5203   -2.3630 C   0  0  0  0  0  0  0  0  0  0  0  0
    5.2076   -3.5620   -0.9478 C   0  0  2  0  0  0  0  0  0  0  0  0
    4.3405   -4.0051    0.2822 C   0  0  2  0  0  0  0  0  0  0  0  0
    3.7547   -5.2901    0.0924 O   0  0  0  0  0  0  0  0  0  0  0  0
    3.2339   -2.8220    0.5379 C   0  0  1  0  0  0  0  0  0  0  0  0
    5.5376   -3.9899    1.3655 C   0  0  2  0  0  0  0  0  0  0  0  0
    6.7244   -5.0017    1.0543 C   0  0  1  0  0  0  0  0  0  0  0  0
    7.9450   -4.3788    0.6855 O   0  0  0  0  0  0  0  0  0  0  0  0
    6.9507   -5.8157    2.2822 C   0  0  0  0  0  0  0  0  0  0  0  0
    6.1122   -5.4740    3.2705 C   0  0  0  0  0  0  0  0  0  0  0  0
    5.1925   -4.3602    2.8688 C   0  0  1  0  0  0  0  0  0  0  0  0
    5.4170   -3.3375    3.8321 O   0  0  0  0  0  0  0  0  0  0  0  0
    5.9709   -2.4345    1.1273 C   0  0  2  0  0  0  0  0  0  0  0  0
    1.1630   -0.1348    2.9053 H   0  0  0  0  0  0  0  0  0  0  0  0
    1.5679   -1.7585    3.4694 H   0  0  0  0  0  0  0  0  0  0  0  0
    1.0104   -1.5145    1.8031 H   0  0  0  0  0  0  0  0  0  0  0  0
    3.5090   -2.6835    2.6737 H   0  0  0  0  0  0  0  0  0  0  0  0
    5.5889   -0.8200    2.0002 H   0  0  0  0  0  0  0  0  0  0  0  0
    6.7057   -1.8159   -0.8185 H   0  0  0  0  0  0  0  0  0  0  0  0
    5.4506   -0.3275   -0.4152 H   0  0  0  0  0  0  0  0  0  0  0  0
    2.9053   -0.7046   -0.0937 H   0  0  0  0  0  0  0  0  0  0  0  0
    2.0428   -1.4258   -1.7394 H   0  0  0  0  0  0  0  0  0  0  0  0
    2.4467   -3.7206   -1.9579 H   0  0  0  0  0  0  0  0  0  0  0  0
    2.8398   -2.9263   -3.4768 H   0  0  0  0  0  0  0  0  0  0  0  0
    4.6152   -4.5340   -2.7748 H   0  0  0  0  0  0  0  0  0  0  0  0
    5.2276   -2.9227   -3.0237 H   0  0  0  0  0  0  0  0  0  0  0  0
    6.0461   -4.2246   -1.1418 H   0  0  0  0  0  0  0  0  0  0  0  0
    3.4408   -5.3621   -0.7903 H   0  0  0  0  0  0  0  0  0  0  0  0
    2.2090   -3.1793    0.5686 H   0  0  0  0  0  0  0  0  0  0  0  0
    6.4619   -5.7269    0.2861 H   0  0  0  0  0  0  0  0  0  0  0  0
    8.1962   -3.7825    1.3763 H   0  0  0  0  0  0  0  0  0  0  0  0
    7.7203   -6.5572    2.3544 H   0  0  0  0  0  0  0  0  0  0  0  0
    6.1176   -5.8788    4.2588 H   0  0  0  0  0  0  0  0  0  0  0  0
    4.1741   -4.7177    2.9791 H   0  0  0  0  0  0  0  0  0  0  0  0
    4.9533   -2.5224    3.5209 H   0  0  0  0  0  0  0  0  0  0  0  0
    6.9499   -2.1503    1.5639 H   0  0  0  0  0  0  0  0  0  0  0  0
    3.5237   -0.9916   -2.3533 H   0  0  0  0  0  0  0  0  0  0  0  0
  1  2  1  0
  1 23  1  0
  1 24  1  0
  1 25  1  0
  2  3  1  0
  3 14  1  0
  3  4  1  0
  3 26  1  1
  4 22  1  0
  4  5  1  0
  4 27  1  1
  5 11  1  0
  5  6  1  0
  5 28  1  1
  6 22  1  0
  6  7  1  0
  6 29  1  1
  7 14  1  0
  7  8  1  0
  7 30  1  1
  8  9  1  0
  8 31  1  0
  8 46  1  0
  9 10  1  0
  9 32  1  0
  9 33  1  0
 10 11  1  0
 10 34  1  0
 10 35  1  0
 11 12  1  0
 11 36  1  6
 12 13  1  6
 12 14  1  0
 15 12  1  6
 13 37  1  0
 14 38  1  1
 15 20  1  0
 15 16  1  0
 15 22  1  0
 16 17  1  0
 16 18  1  0
 16 39  1  6
 17 40  1  0
 18 19  2  0
 18 41  1  0
 19 20  1  0
 19 42  1  0
 20 21  1  0
 20 43  1  6
 21 44  1  0
 22 45  1  1
M  CHG  1   8   1
M  END
>  <i_m_ct_stereo_status>  (26) 
1

>  <s_m_source_file>  (26) 
/var/tmp/pbs.5076255.sched01/tmpu3exd1vk/0t_9me_9p.sdf

>  <i_m_source_file_index>  (26) 
9

>  <i_lp_mmshare_version>  (26) 
48012

>  <i_f3d_flags>  (26) 
0

>  <s_epik_input>  (26) 
W0NIM11PW0NASF0xW0NASF0yW0NASF0oW05IXVtDSDJdW0NIMl0zKVtDQEhdNFtDQEhdNVtDQEhdMVtDQEhdNFtDQEhdM1tDQEBdMihbT0hdKVtDQF01NltDQEBIXShbT0hdKVtDSF09W0NIXVtDQEhdNltPSF0=

>  <s_epik_cmdline>  (26) 
J2VwaWtfcHl0aG9uJywgJy1waHQnLCAnMi4wJywgJy1waCcsICc3LjAnLCAnLXRuJywgJzgnLCAnLW1hJywgJzIwMCcsICctaW1hZScsICc8aW5maWxlLm1hZT4nLCAnLW9tYWUnLCAnPG91dGZpbGUubWFlPic=

>  <r_epik_Ionization_Penalty>  (26) 
0.000371096

>  <r_epik_Ionization_Penalty_Charging>  (26) 
0.000370838

>  <r_epik_Ionization_Penalty_Neutral>  (26) 
2.58231e-07

>  <r_epik_State_Penalty>  (26) 
0.000226129

>  <r_epik_Charging_Adjusted_Penalty>  (26) 
0.000596967

>  <i_epik_Tot_Q>  (26) 
1

>  <i_epik_Tot_abs_Q>  (26) 
1

>  <s_lp_Force_Field>  (26) 
OPLS3e

>  <r_lp_Energy>  (26) 
469.818

>  <b_lp_Chiralities_Consistent>  (26) 
1

>  <s_lp_Variant>  (26) 
6:0-1

>  <s_i_glide_gridfile>  (26) 
pfpi4k_grid

>  <i_i_glide_lignum>  (26) 
9

>  <i_i_glide_rotatable_bonds>  (26) 
4

>  <r_i_docking_score>  (26) 
-4.86104

>  <r_i_glide_ligand_efficiency>  (26) 
-0.220956

>  <r_i_glide_ligand_efficiency_sa>  (26) 
-0.619129

>  <r_i_glide_ligand_efficiency_ln>  (26) 
-1.18822

>  <r_i_glide_gscore>  (26) 
-4.86104

>  <r_i_glide_lipo>  (26) 
-0.477927

>  <r_i_glide_hbond>  (26) 
-0.52

>  <r_i_glide_metal>  (26) 
-0

>  <r_i_glide_rewards>  (26) 
-1.32016

>  <r_i_glide_evdw>  (26) 
-16.4059

>  <r_i_glide_ecoul>  (26) 
-10.8442

>  <r_i_glide_erotb>  (26) 
0

>  <r_i_glide_esite>  (26) 
-0.0960226

>  <r_i_glide_emodel>  (26) 
-35.7506

>  <r_i_glide_energy>  (26) 
-27.2502

>  <r_i_glide_einternal>  (26) 
0.848936

>  <r_i_glide_intrahb_reward>  (26) 
-0

>  <i_i_glide_confnum>  (26) 
1

>  <i_i_glide_posenum>  (26) 
5

>  <r_i_glide_eff_state_penalty>  (26) 
0

>  <ligand_id>  (26) 
6

>  <original_smiles>  (26) 
COC1C2C3C4C5NCCC3C(O)(C51)C1(C(O)C=CC1O)C42

>  <smiles>  (26) 
[H]OC1([H])C([H])=C([H])C([H])(O[H])C12C1([H])C3([H])C([H])(OC([H])([H])[H])C4([H])C2(O[H])C2([H])C([H])([H])C([H])([H])[N+]([H])([H])C4([H])C1([H])C32[H]

$$$$
6:0:2
     RDKit          3D

 46 51  0  0  1  0  0  0  0  0999 V2000
    7.8295   -5.0423    1.3501 C   0  0  0  0  0  0  0  0  0  0  0  0
    7.5855   -3.7023    0.9692 O   0  0  0  0  0  0  0  0  0  0  0  0
    6.3985   -3.5172    0.1931 C   0  0  2  0  0  0  0  0  0  0  0  0
    6.2943   -1.9607   -0.1909 C   0  0  2  0  0  0  0  0  0  0  0  0
    4.7005   -1.0153    0.2222 C   0  0  2  0  0  0  0  0  0  0  0  0
    5.5873   -1.2949    0.9500 C   0  0  1  0  0  0  0  0  0  0  0  0
    5.3312   -2.5429    1.9409 C   0  0  1  0  0  0  0  0  0  0  0  0
    4.3871   -2.3431    3.0613 N   0  0  0  0  0  0  0  0  0  0  0  0
    2.9564   -2.6087    2.7356 C   0  0  0  0  0  0  0  0  0  0  0  0
    2.5073   -1.7275    1.6014 C   0  0  0  0  0  0  0  0  0  0  0  0
    3.3142   -1.8290    0.3088 C   0  0  2  0  0  0  0  0  0  0  0  0
    3.8639   -3.2282   -0.1798 C   0  0  2  0  0  0  0  0  0  0  0  0
    2.8187   -4.1656   -0.3027 O   0  0  0  0  0  0  0  0  0  0  0  0
    5.0208   -3.6741    0.8927 C   0  0  1  0  0  0  0  0  0  0  0  0
    4.4632   -2.6814   -1.5929 C   0  0  2  0  0  0  0  0  0  0  0  0
    3.3717   -2.0812   -2.5895 C   0  0  1  0  0  0  0  0  0  0  0  0
    3.5099   -0.6935   -2.8358 O   0  0  0  0  0  0  0  0  0  0  0  0
    3.5398   -2.7882   -3.8999 C   0  0  0  0  0  0  0  0  0  0  0  0
    4.5215   -3.6741   -3.8826 C   0  0  0  0  0  0  0  0  0  0  0  0
    5.2065   -3.7124   -2.5345 C   0  0  1  0  0  0  0  0  0  0  0  0
    6.5613   -3.3244   -2.7217 O   0  0  0  0  0  0  0  0  0  0  0  0
    5.4354   -1.5611   -0.9348 C   0  0  2  0  0  0  0  0  0  0  0  0
    8.7827   -5.0916    1.8811 H   0  0  0  0  0  0  0  0  0  0  0  0
    7.8861   -5.7100    0.4896 H   0  0  0  0  0  0  0  0  0  0  0  0
    7.0372   -5.3855    2.0124 H   0  0  0  0  0  0  0  0  0  0  0  0
    6.4961   -4.2345   -0.5938 H   0  0  0  0  0  0  0  0  0  0  0  0
    7.2501   -1.4863   -0.4908 H   0  0  0  0  0  0  0  0  0  0  0  0
    4.5951    0.0892    0.1706 H   0  0  0  0  0  0  0  0  0  0  0  0
    6.0744   -0.3910    1.3644 H   0  0  0  0  0  0  0  0  0  0  0  0
    6.2359   -2.7425    2.5088 H   0  0  0  0  0  0  0  0  0  0  0  0
    4.6429   -3.0140    3.7444 H   0  0  0  0  0  0  0  0  0  0  0  0
    2.8008   -3.6660    2.5167 H   0  0  0  0  0  0  0  0  0  0  0  0
    2.3913   -2.3787    3.6289 H   0  0  0  0  0  0  0  0  0  0  0  0
    1.4682   -2.0148    1.3800 H   0  0  0  0  0  0  0  0  0  0  0  0
    2.4514   -0.6780    1.9177 H   0  0  0  0  0  0  0  0  0  0  0  0
    2.6267   -1.3888   -0.3789 H   0  0  0  0  0  0  0  0  0  0  0  0
    3.0623   -4.8138   -0.9644 H   0  0  0  0  0  0  0  0  0  0  0  0
    4.8676   -4.6747    1.3101 H   0  0  0  0  0  0  0  0  0  0  0  0
    2.3477   -2.3093   -2.3090 H   0  0  0  0  0  0  0  0  0  0  0  0
    2.6974   -0.2555   -2.5818 H   0  0  0  0  0  0  0  0  0  0  0  0
    2.9387   -2.5176   -4.7440 H   0  0  0  0  0  0  0  0  0  0  0  0
    4.8467   -4.2746   -4.7111 H   0  0  0  0  0  0  0  0  0  0  0  0
    5.1355   -4.7323   -2.2065 H   0  0  0  0  0  0  0  0  0  0  0  0
    6.9022   -3.7259   -3.5066 H   0  0  0  0  0  0  0  0  0  0  0  0
    5.8491   -0.8158   -1.6386 H   0  0  0  0  0  0  0  0  0  0  0  0
    4.4931   -1.3967    3.3852 H   0  0  0  0  0  0  0  0  0  0  0  0
  1  2  1  0
  1 23  1  0
  1 24  1  0
  1 25  1  0
  2  3  1  0
  3 14  1  0
  3  4  1  0
  3 26  1  6
  4 22  1  0
  4  5  1  0
  4 27  1  6
  5 11  1  0
  5  6  1  0
  5 28  1  6
  6 22  1  0
  6  7  1  0
  6 29  1  6
  7 14  1  0
  7  8  1  0
  7 30  1  1
  8  9  1  0
  8 31  1  0
  8 46  1  0
  9 10  1  0
  9 32  1  0
  9 33  1  0
 10 11  1  0
 10 34  1  0
 10 35  1  0
 11 12  1  0
 11 36  1  6
 12 13  1  6
 12 14  1  0
 15 12  1  1
 13 37  1  0
 14 38  1  1
 15 20  1  0
 15 16  1  0
 15 22  1  0
 16 17  1  0
 16 18  1  0
 16 39  1  1
 17 40  1  0
 18 19  2  0
 18 41  1  0
 19 20  1  0
 19 42  1  0
 20 21  1  0
 20 43  1  1
 21 44  1  0
 22 45  1  6
M  CHG  1   8   1
M  END
>  <i_m_ct_stereo_status>  (27) 
1

>  <s_m_source_file>  (27) 
/var/tmp/pbs.5076255.sched01/tmpu3exd1vk/0t_9me_9p.sdf

>  <i_m_source_file_index>  (27) 
9

>  <i_lp_mmshare_version>  (27) 
48012

>  <i_f3d_flags>  (27) 
0

>  <s_epik_input>  (27) 
W0NIM11PW0NASF0xW0NASF0yW0NASF0oW05IXVtDSDJdW0NIMl0zKVtDQEhdNFtDQEhdNVtDQEhdMVtDQEhdNFtDQEhdM1tDQEBdMihbT0hdKVtDQF01NltDQEBIXShbT0hdKVtDSF09W0NIXVtDQEhdNltPSF0=

>  <s_epik_cmdline>  (27) 
J2VwaWtfcHl0aG9uJywgJy1waHQnLCAnMi4wJywgJy1waCcsICc3LjAnLCAnLXRuJywgJzgnLCAnLW1hJywgJzIwMCcsICctaW1hZScsICc8aW5maWxlLm1hZT4nLCAnLW9tYWUnLCAnPG91dGZpbGUubWFlPic=

>  <r_epik_Ionization_Penalty>  (27) 
0.000371096

>  <r_epik_Ionization_Penalty_Charging>  (27) 
0.000370838

>  <r_epik_Ionization_Penalty_Neutral>  (27) 
2.58231e-07

>  <r_epik_State_Penalty>  (27) 
0.000226129

>  <r_epik_Charging_Adjusted_Penalty>  (27) 
0.000596967

>  <i_epik_Tot_Q>  (27) 
1

>  <i_epik_Tot_abs_Q>  (27) 
1

>  <s_lp_Force_Field>  (27) 
OPLS3e

>  <r_lp_Energy>  (27) 
469.818

>  <b_lp_Chiralities_Consistent>  (27) 
1

>  <s_lp_Variant>  (27) 
6:0-1

>  <s_i_glide_gridfile>  (27) 
pfpi4k_grid

>  <i_i_glide_lignum>  (27) 
9

>  <i_i_glide_rotatable_bonds>  (27) 
4

>  <r_i_docking_score>  (27) 
-4.60216

>  <r_i_glide_ligand_efficiency>  (27) 
-0.209189

>  <r_i_glide_ligand_efficiency_sa>  (27) 
-0.586156

>  <r_i_glide_ligand_efficiency_ln>  (27) 
-1.12494

>  <r_i_glide_gscore>  (27) 
-4.60216

>  <r_i_glide_lipo>  (27) 
-0.672086

>  <r_i_glide_hbond>  (27) 
-0.420005

>  <r_i_glide_metal>  (27) 
-0

>  <r_i_glide_rewards>  (27) 
-1.32016

>  <r_i_glide_evdw>  (27) 
-20.9001

>  <r_i_glide_ecoul>  (27) 
-7.63272

>  <r_i_glide_erotb>  (27) 
0

>  <r_i_glide_esite>  (27) 
0

>  <r_i_glide_emodel>  (27) 
-35.8495

>  <r_i_glide_energy>  (27) 
-28.5328

>  <r_i_glide_einternal>  (27) 
2.0075

>  <r_i_glide_intrahb_reward>  (27) 
-0

>  <i_i_glide_confnum>  (27) 
2

>  <i_i_glide_posenum>  (27) 
34

>  <r_i_glide_eff_state_penalty>  (27) 
0

>  <ligand_id>  (27) 
6

>  <original_smiles>  (27) 
COC1C2C3C4C5NCCC3C(O)(C51)C1(C(O)C=CC1O)C42

>  <smiles>  (27) 
[H]OC1([H])C([H])=C([H])C([H])(O[H])C12C1([H])C3([H])C([H])(OC([H])([H])[H])C4([H])C2(O[H])C2([H])C([H])([H])C([H])([H])[N+]([H])([H])C4([H])C1([H])C32[H]

$$$$
8:0:0
     RDKit          3D

106116  0  0  1  0  0  0  0  0999 V2000
    7.3801   -6.6942    3.9681 C   0  0  0  0  0  0  0  0  0  0  0  0
    7.2799   -8.2178    3.7133 C   0  0  0  0  0  0  0  0  0  0  0  0
    8.7564   -8.7040    3.7775 C   0  0  0  0  0  0  0  0  0  0  0  0
    6.3829   -8.9290    4.8049 C   0  0  0  0  0  0  0  0  0  0  0  0
    5.2244  -10.0615    4.6768 C   0  0  2  0  0  0  0  0  0  0  0  0
    6.1595  -11.2470    4.2807 C   0  0  1  0  0  0  0  0  0  0  0  0
    5.6415  -12.5326    4.5550 O   0  0  0  0  0  0  0  0  0  0  0  0
    6.5065  -10.9266    2.7404 C   0  0  1  0  0  0  0  0  0  0  0  0
    6.4420  -12.0272    1.8377 O   0  0  0  0  0  0  0  0  0  0  0  0
    5.8050   -9.5792    2.1353 C   0  0  2  0  0  0  0  0  0  0  0  0
    6.7345   -8.4095    2.3076 C   0  0  0  0  0  0  0  0  0  0  0  0
    7.0189   -7.6672    1.3695 O   0  0  0  0  0  0  0  0  0  0  0  0
    4.2914   -9.1883    2.5669 C   0  0  1  0  0  0  0  0  0  0  0  0
    3.4762   -9.2835    1.2416 C   0  0  0  0  0  0  0  0  0  0  0  0
    4.1324  -10.3053    3.4896 C   0  0  1  0  0  0  0  0  0  0  0  0
    3.8530  -11.5811    2.8953 O   0  0  0  0  0  0  0  0  0  0  0  0
    3.8054   -7.9617    3.5682 C   0  0  1  0  0  0  0  0  0  0  0  0
    3.5375   -6.5680    2.6717 C   0  0  0  0  0  0  0  0  0  0  0  0
    2.2292   -5.6844    2.7976 C   0  0  1  0  0  0  0  0  0  0  0  0
    0.8915   -5.5778    2.1110 O   0  0  0  0  0  0  0  0  0  0  0  0
    0.2607   -6.0594    3.3995 C   0  0  2  0  0  0  0  0  0  0  0  0
    1.5265   -6.6498    3.4808 C   0  0  1  0  0  0  0  0  0  0  0  0
    1.3870   -7.7830    2.5936 O   0  0  0  0  0  0  0  0  0  0  0  0
    0.2149   -8.4242    2.8706 C   0  0  1  0  0  0  0  0  0  0  0  0
    0.8407   -9.5698    3.6197 C   0  0  0  0  0  0  0  0  0  0  0  0
    1.4649   -8.9934    4.9530 C   0  0  2  0  0  0  0  0  0  0  0  0
    1.3237  -10.2258    5.6275 O   0  0  0  0  0  0  0  0  0  0  0  0
    0.1439   -8.0756    5.1820 C   0  0  0  0  0  0  0  0  0  0  0  0
   -0.4044   -7.4227    3.8140 C   0  0  1  0  0  0  0  0  0  0  0  0
   -1.9385   -7.3942    3.7611 C   0  0  0  0  0  0  0  0  0  0  0  0
    3.1169   -8.4125    5.1680 C   0  0  1  0  0  0  0  0  0  0  0  0
    4.1432   -9.6660    5.8118 C   0  0  2  0  0  0  0  0  0  0  0  0
    4.5503   -9.7056    7.3418 N   0  0  0  0  0  0  0  0  0  0  0  0
    5.8709  -10.3745    7.5847 C   0  0  0  0  0  0  0  0  0  0  0  0
    3.6781  -10.7015    8.0485 C   0  0  0  0  0  0  0  0  0  0  0  0
    4.4555   -8.3443    8.0179 C   0  0  1  0  0  0  0  0  0  0  0  0
    5.7458   -7.3711    7.9410 C   0  0  1  0  0  0  0  0  0  0  0  0
    7.2695   -7.6365    7.8583 C   0  0  0  0  0  0  0  0  0  0  0  0
    5.4689   -6.0315    7.2375 C   0  0  0  0  0  0  0  0  0  0  0  0
    4.3818   -6.1906    6.1594 C   0  0  0  0  0  0  0  0  0  0  0  0
    3.1728   -7.1972    6.3482 C   0  0  1  0  0  0  0  0  0  0  0  0
    2.1747   -6.2111    6.5092 O   0  0  0  0  0  0  0  0  0  0  0  0
    3.0320   -7.7459    7.7968 C   0  0  1  0  0  0  0  0  0  0  0  0
    1.6763   -8.4078    8.1525 C   0  0  0  0  0  0  0  0  0  0  0  0
    3.2364   -6.9154    9.0939 C   0  0  1  0  0  0  0  0  0  0  0  0
    2.1877   -6.6342   10.0160 O   0  0  0  0  0  0  0  0  0  0  0  0
    4.2874   -7.9500    9.5214 C   0  0  1  0  0  0  0  0  0  0  0  0
    4.0815   -8.8346   10.7630 C   0  0  0  0  0  0  0  0  0  0  0  0
    5.6529   -7.2794    9.4893 C   0  0  0  0  0  0  0  0  0  0  0  0
    6.3542   -6.7913   10.3705 O   0  0  0  0  0  0  0  0  0  0  0  0
    7.6512   -6.4756    4.9986 H   0  0  0  0  0  0  0  0  0  0  0  0
    6.4587   -6.1685    3.7401 H   0  0  0  0  0  0  0  0  0  0  0  0
    8.1459   -6.2400    3.3385 H   0  0  0  0  0  0  0  0  0  0  0  0
    9.2783   -8.2403    4.6148 H   0  0  0  0  0  0  0  0  0  0  0  0
    9.3102   -8.4240    2.8792 H   0  0  0  0  0  0  0  0  0  0  0  0
    8.8778   -9.7776    3.9123 H   0  0  0  0  0  0  0  0  0  0  0  0
    7.1713   -9.3567    5.4038 H   0  0  0  0  0  0  0  0  0  0  0  0
    6.0138   -8.1828    5.4747 H   0  0  0  0  0  0  0  0  0  0  0  0
    7.1034  -11.2790    4.8247 H   0  0  0  0  0  0  0  0  0  0  0  0
    4.8550  -12.6152    4.0202 H   0  0  0  0  0  0  0  0  0  0  0  0
    7.5742  -10.7998    2.6975 H   0  0  0  0  0  0  0  0  0  0  0  0
    5.5710  -12.1129    1.4462 H   0  0  0  0  0  0  0  0  0  0  0  0
    5.8165   -9.7279    1.0636 H   0  0  0  0  0  0  0  0  0  0  0  0
    2.4032   -9.2968    1.3161 H   0  0  0  0  0  0  0  0  0  0  0  0
    3.6879  -10.1998    0.7222 H   0  0  0  0  0  0  0  0  0  0  0  0
    3.7622   -8.5067    0.5400 H   0  0  0  0  0  0  0  0  0  0  0  0
    3.1574  -10.3363    3.8760 H   0  0  0  0  0  0  0  0  0  0  0  0
    3.8545  -11.5467    1.9157 H   0  0  0  0  0  0  0  0  0  0  0  0
    4.7572   -7.6167    3.8340 H   0  0  0  0  0  0  0  0  0  0  0  0
    4.3390   -5.8933    2.9649 H   0  0  0  0  0  0  0  0  0  0  0  0
    3.7581   -6.7129    1.6159 H   0  0  0  0  0  0  0  0  0  0  0  0
    2.3884   -4.8158    3.4364 H   0  0  0  0  0  0  0  0  0  0  0  0
    0.1431   -5.2485    4.1226 H   0  0  0  0  0  0  0  0  0  0  0  0
    1.8747   -6.5786    4.4476 H   0  0  0  0  0  0  0  0  0  0  0  0
   -0.3584   -8.6747    1.9772 H   0  0  0  0  0  0  0  0  0  0  0  0
   -0.0264  -10.2038    3.8341 H   0  0  0  0  0  0  0  0  0  0  0  0
    1.4484  -10.1875    2.9630 H   0  0  0  0  0  0  0  0  0  0  0  0
    0.4483  -10.5734    5.5129 H   0  0  0  0  0  0  0  0  0  0  0  0
   -0.6479   -8.7460    5.5178 H   0  0  0  0  0  0  0  0  0  0  0  0
    0.1934   -7.3551    5.9847 H   0  0  0  0  0  0  0  0  0  0  0  0
   -2.3496   -8.3849    3.9528 H   0  0  0  0  0  0  0  0  0  0  0  0
   -2.2825   -7.0953    2.7752 H   0  0  0  0  0  0  0  0  0  0  0  0
   -2.3508   -6.7100    4.5019 H   0  0  0  0  0  0  0  0  0  0  0  0
    3.5943  -10.5960    5.7966 H   0  0  0  0  0  0  0  0  0  0  0  0
    6.0433  -10.5494    8.6378 H   0  0  0  0  0  0  0  0  0  0  0  0
    6.7542   -9.9053    7.2321 H   0  0  0  0  0  0  0  0  0  0  0  0
    5.8916  -11.3507    7.1251 H   0  0  0  0  0  0  0  0  0  0  0  0
    3.8362  -10.7700    9.1107 H   0  0  0  0  0  0  0  0  0  0  0  0
    3.8559  -11.7037    7.6870 H   0  0  0  0  0  0  0  0  0  0  0  0
    2.6378  -10.5828    7.8658 H   0  0  0  0  0  0  0  0  0  0  0  0
    7.6154   -7.8093    6.8577 H   0  0  0  0  0  0  0  0  0  0  0  0
    7.6149   -8.4488    8.4996 H   0  0  0  0  0  0  0  0  0  0  0  0
    7.8374   -6.7544    8.1863 H   0  0  0  0  0  0  0  0  0  0  0  0
    5.2096   -5.2243    7.9261 H   0  0  0  0  0  0  0  0  0  0  0  0
    6.3677   -5.6180    6.7746 H   0  0  0  0  0  0  0  0  0  0  0  0
    4.0511   -5.2125    5.8030 H   0  0  0  0  0  0  0  0  0  0  0  0
    4.9783   -6.4687    5.3317 H   0  0  0  0  0  0  0  0  0  0  0  0
    1.4017   -6.6409    6.8349 H   0  0  0  0  0  0  0  0  0  0  0  0
    0.8680   -7.6864    8.2536 H   0  0  0  0  0  0  0  0  0  0  0  0
    1.7331   -8.9432    9.0948 H   0  0  0  0  0  0  0  0  0  0  0  0
    1.2897   -9.1202    7.5009 H   0  0  0  0  0  0  0  0  0  0  0  0
    3.6467   -5.9538    8.8876 H   0  0  0  0  0  0  0  0  0  0  0  0
    1.8814   -7.4598   10.3671 H   0  0  0  0  0  0  0  0  0  0  0  0
    3.1410   -9.3839   10.7346 H   0  0  0  0  0  0  0  0  0  0  0  0
    4.0382   -8.2296   11.6741 H   0  0  0  0  0  0  0  0  0  0  0  0
    4.8951   -9.5487   10.8990 H   0  0  0  0  0  0  0  0  0  0  0  0
  1  2  1  0
  1 51  1  0
  1 52  1  0
  1 53  1  0
  2 11  1  0
  2  3  1  0
  2  4  1  0
  3 54  1  0
  3 55  1  0
  3 56  1  0
  5  4  1  6
  4 57  1  0
  4 58  1  0
  5 15  1  0
  5 32  1  0
  5  6  1  0
  6  7  1  0
  6  8  1  0
  6 59  1  1
  7 60  1  0
  8  9  1  0
  8 10  1  0
  8 61  1  1
  9 62  1  0
 10 11  1  0
 10 13  1  0
 10 63  1  6
 11 12  2  0
 13 14  1  6
 13 15  1  0
 13 17  1  0
 14 64  1  0
 14 65  1  0
 14 66  1  0
 15 16  1  0
 15 67  1  1
 16 68  1  0
 17 31  1  0
 17 18  1  0
 17 69  1  1
 18 19  1  0
 18 70  1  0
 18 71  1  0
 19 22  1  0
 19 20  1  0
 19 72  1  1
 20 21  1  0
 21 29  1  0
 21 22  1  0
 21 73  1  1
 22 23  1  0
 22 74  1  1
 23 24  1  0
 24 29  1  0
 24 25  1  0
 24 75  1  6
 25 26  1  0
 25 76  1  0
 25 77  1  0
 26 27  1  1
 26 28  1  0
 31 26  1  6
 27 78  1  0
 28 29  1  0
 28 79  1  0
 28 80  1  0
 29 30  1  1
 30 81  1  0
 30 82  1  0
 30 83  1  0
 31 41  1  0
 31 32  1  0
 32 33  1  0
 32 84  1  1
 33 34  1  0
 33 35  1  0
 36 33  1  1
 34 85  1  0
 34 86  1  0
 34 87  1  0
 35 88  1  0
 35 89  1  0
 35 90  1  0
 36 43  1  0
 36 47  1  0
 36 37  1  0
 37 49  1  0
 37 38  1  1
 37 39  1  0
 38 91  1  0
 38 92  1  0
 38 93  1  0
 39 40  1  0
 39 94  1  0
 39 95  1  0
 40 41  1  0
 40 96  1  0
 40 97  1  0
 41 42  1  6
 41 43  1  0
 42 98  1  0
 43 44  1  6
 43 45  1  0
 44 99  1  0
 44100  1  0
 44101  1  0
 45 46  1  0
 45 47  1  0
 45102  1  6
 46103  1  0
 47 48  1  1
 47 49  1  0
 48104  1  0
 48105  1  0
 48106  1  0
 49 50  2  0
M  CHG  1  33   1
M  END
>  <i_m_ct_stereo_status>  (28) 
1

>  <s_m_source_file>  (28) 
/var/tmp/pbs.5076255.sched01/tmpu3exd1vk/0t_9me_9p.sdf

>  <i_m_source_file_index>  (28) 
11

>  <i_lp_mmshare_version>  (28) 
48012

>  <i_f3d_flags>  (28) 
0

>  <s_epik_input>  (28) 
W09IXVtDQEhdMVtDQF0yKFtDSDNdKUMoPU8pW0NAXShbQ0gzXSkoW0NIMl1bQ0gyXTMpW0NAXTIoW04rXTQoW0NIM10pW0NIM10pW0NAXTEoW0NIM10pW0NAXTMoW09IXSlbQ0BdNShbQ0BIXTRbQ0BAXTY3OClbQ0BASF0oW0NAXShbQ0gzXSkoW0NASF04W09IXSlbQ0BIXShbQ0BIXShbT0hdKVtDQEBIXTdbT0hdKUMoPU8pQyhbQ0gzXSkoW0NIM10pW0NIMl02KVtDSDJdW0NAQEhdOVtDQEhdMVtDQEhdKE85KVtDQEBdMihbQ0gzXSlbQ0BASF0oTzEpW0NIMl1bQ0BdNShbT0hdKVtDSDJdMg==

>  <s_epik_cmdline>  (28) 
J2VwaWtfcHl0aG9uJywgJy1waHQnLCAnMi4wJywgJy1waCcsICc3LjAnLCAnLXRuJywgJzgnLCAnLW1hJywgJzIwMCcsICctaW1hZScsICc8aW5maWxlLm1hZT4nLCAnLW9tYWUnLCAnPG91dGZpbGUubWFlPic=

>  <r_lp_tautomer_probability>  (28) 
1

>  <r_epik_Ionization_Penalty>  (28) 
8.19987e-05

>  <r_epik_Ionization_Penalty_Charging>  (28) 
0

>  <r_epik_Ionization_Penalty_Neutral>  (28) 
8.19987e-05

>  <r_epik_State_Penalty>  (28) 
-0

>  <r_epik_Charging_Adjusted_Penalty>  (28) 
0

>  <i_epik_Tot_Q>  (28) 
1

>  <i_epik_Tot_abs_Q>  (28) 
1

>  <s_lp_Force_Field>  (28) 
OPLS3e

>  <r_lp_Energy>  (28) 
552.583

>  <b_lp_Chiralities_Consistent>  (28) 
1

>  <s_lp_Variant>  (28) 
8:0-1

>  <s_i_glide_gridfile>  (28) 
pfpi4k_grid

>  <i_i_glide_lignum>  (28) 
11

>  <i_i_glide_rotatable_bonds>  (28) 
6

>  <r_i_docking_score>  (28) 
-3.61721

>  <r_i_glide_ligand_efficiency>  (28) 
-0.0723443

>  <r_i_glide_ligand_efficiency_sa>  (28) 
-0.266519

>  <r_i_glide_ligand_efficiency_ln>  (28) 
-0.7364

>  <r_i_glide_gscore>  (28) 
-3.61721

>  <r_i_glide_lipo>  (28) 
-0.0134153

>  <r_i_glide_hbond>  (28) 
-0.0928217

>  <r_i_glide_metal>  (28) 
-0

>  <r_i_glide_rewards>  (28) 
-0.598794

>  <r_i_glide_evdw>  (28) 
-22.0834

>  <r_i_glide_ecoul>  (28) 
-11.9545

>  <r_i_glide_erotb>  (28) 
0

>  <r_i_glide_esite>  (28) 
-0.0148465

>  <r_i_glide_emodel>  (28) 
-44.3762

>  <r_i_glide_energy>  (28) 
-34.0378

>  <r_i_glide_einternal>  (28) 
1.8666

>  <r_i_glide_intrahb_reward>  (28) 
-0.5

>  <i_i_glide_confnum>  (28) 
1

>  <i_i_glide_posenum>  (28) 
33

>  <r_i_glide_eff_state_penalty>  (28) 
0

>  <ligand_id>  (28) 
8

>  <original_smiles>  (28) 
CC1(C)CC23C(O)C(O)C(C1=O)C(C)(C2O)C1CC2OC4C2OC2CC(O)(CC24C)C12C3[N+](C)(C)C13C4(C)CCC2(O)C1(C)C(O)C3(C)C4=O

>  <smiles>  (28) 
[H]OC1([H])C([H])(O[H])C23C([H])([H])C(C([H])([H])[H])(C([H])([H])[H])C(=O)C1([H])C(C([H])([H])[H])(C2([H])O[H])C1([H])C([H])([H])C2([H])OC4([H])C2([H])OC2([H])C([H])([H])C(O[H])(C([H])([H])C24C([H])([H])[H])C12C1(O[H])C([H])([H])C([H])([H])C4(C([H])([H])[H])C(=O)C5(C([H])([H])[H])C([H])(O[H])C1(C([H])([H])[H])C45[N+](C([H])([H])[H])(C([H])([H])[H])C32[H]

$$$$
8:0:1
     RDKit          3D

106116  0  0  1  0  0  0  0  0999 V2000
    6.3502   -5.4448    2.7361 C   0  0  0  0  0  0  0  0  0  0  0  0
    6.6788   -6.9065    2.3595 C   0  0  0  0  0  0  0  0  0  0  0  0
    8.0430   -6.7975    1.6114 C   0  0  0  0  0  0  0  0  0  0  0  0
    6.7790   -7.8065    3.6424 C   0  0  0  0  0  0  0  0  0  0  0  0
    6.2106   -9.3034    3.9549 C   0  0  2  0  0  0  0  0  0  0  0  0
    7.1774  -10.0633    3.0140 C   0  0  1  0  0  0  0  0  0  0  0  0
    7.3498  -11.4319    3.3208 O   0  0  0  0  0  0  0  0  0  0  0  0
    6.5646   -9.7703    1.5668 C   0  0  1  0  0  0  0  0  0  0  0  0
    6.5353  -10.9554    0.7926 O   0  0  0  0  0  0  0  0  0  0  0  0
    5.2094   -8.8283    1.5483 C   0  0  2  0  0  0  0  0  0  0  0  0
    5.5959   -7.3781    1.4065 C   0  0  0  0  0  0  0  0  0  0  0  0
    5.0567   -6.6433    0.5778 O   0  0  0  0  0  0  0  0  0  0  0  0
    4.1001   -9.0013    2.7086 C   0  0  1  0  0  0  0  0  0  0  0  0
    2.8303   -9.4819    1.9267 C   0  0  0  0  0  0  0  0  0  0  0  0
    4.8442  -10.0188    3.4277 C   0  0  1  0  0  0  0  0  0  0  0  0
    4.7695  -11.3615    2.8900 O   0  0  0  0  0  0  0  0  0  0  0  0
    3.7823   -7.9706    3.9712 C   0  0  1  0  0  0  0  0  0  0  0  0
    2.6163   -6.8514    3.5254 C   0  0  0  0  0  0  0  0  0  0  0  0
    1.3419   -6.4999    4.3973 C   0  0  1  0  0  0  0  0  0  0  0  0
   -0.1017   -6.9438    4.4979 O   0  0  0  0  0  0  0  0  0  0  0  0
    0.2325   -7.5479    5.8420 C   0  0  2  0  0  0  0  0  0  0  0  0
    1.4782   -7.6136    5.1951 C   0  0  1  0  0  0  0  0  0  0  0  0
    1.3298   -8.7584    4.3423 O   0  0  0  0  0  0  0  0  0  0  0  0
    0.7805   -9.7821    5.0611 C   0  0  1  0  0  0  0  0  0  0  0  0
    2.0758  -10.5393    5.1983 C   0  0  0  0  0  0  0  0  0  0  0  0
    3.0241   -9.7223    6.1565 C   0  0  2  0  0  0  0  0  0  0  0  0
    3.6689  -10.8972    6.6328 O   0  0  0  0  0  0  0  0  0  0  0  0
    1.7861   -9.3434    7.1279 C   0  0  0  0  0  0  0  0  0  0  0  0
    0.4241   -9.0230    6.3151 C   0  0  1  0  0  0  0  0  0  0  0  0
   -0.7779   -9.5673    7.0862 C   0  0  0  0  0  0  0  0  0  0  0  0
    4.2242   -8.5376    5.6335 C   0  0  1  0  0  0  0  0  0  0  0  0
    5.7994   -9.2725    5.5028 C   0  0  2  0  0  0  0  0  0  0  0  0
    6.8983   -9.0706    6.6200 N   0  0  0  0  0  0  0  0  0  0  0  0
    8.2955   -9.1730    6.0765 C   0  0  0  0  0  0  0  0  0  0  0  0
    6.9209  -10.2916    7.5128 C   0  0  0  0  0  0  0  0  0  0  0  0
    6.6921   -7.8196    7.4109 C   0  0  1  0  0  0  0  0  0  0  0  0
    7.3250   -6.4449    6.8394 C   0  0  1  0  0  0  0  0  0  0  0  0
    8.5863   -6.1175    5.9986 C   0  0  0  0  0  0  0  0  0  0  0  0
    6.2919   -5.3398    6.5623 C   0  0  0  0  0  0  0  0  0  0  0  0
    4.9317   -5.9443    6.1799 C   0  0  0  0  0  0  0  0  0  0  0  0
    4.4171   -7.3179    6.7855 C   0  0  1  0  0  0  0  0  0  0  0  0
    3.3840   -6.7664    7.5567 O   0  0  0  0  0  0  0  0  0  0  0  0
    5.2438   -7.8027    8.0195 C   0  0  1  0  0  0  0  0  0  0  0  0
    4.5858   -8.8974    8.8838 C   0  0  0  0  0  0  0  0  0  0  0  0
    5.7842   -6.8796    9.1384 C   0  0  1  0  0  0  0  0  0  0  0  0
    5.3369   -6.9437   10.4879 O   0  0  0  0  0  0  0  0  0  0  0  0
    7.1899   -7.4091    8.8466 C   0  0  1  0  0  0  0  0  0  0  0  0
    7.9715   -8.2220    9.8841 C   0  0  0  0  0  0  0  0  0  0  0  0
    8.0033   -6.2949    8.2193 C   0  0  0  0  0  0  0  0  0  0  0  0
    8.8560   -5.5289    8.6867 O   0  0  0  0  0  0  0  0  0  0  0  0
    7.0074   -5.0968    3.5269 H   0  0  0  0  0  0  0  0  0  0  0  0
    5.3220   -5.3185    3.0627 H   0  0  0  0  0  0  0  0  0  0  0  0
    6.4862   -4.7807    1.8811 H   0  0  0  0  0  0  0  0  0  0  0  0
    8.7175   -6.1242    2.1425 H   0  0  0  0  0  0  0  0  0  0  0  0
    7.9248   -6.3959    0.6033 H   0  0  0  0  0  0  0  0  0  0  0  0
    8.5912   -7.7338    1.5284 H   0  0  0  0  0  0  0  0  0  0  0  0
    7.8576   -7.8590    3.7107 H   0  0  0  0  0  0  0  0  0  0  0  0
    6.5641   -7.2019    4.5057 H   0  0  0  0  0  0  0  0  0  0  0  0
    8.2056   -9.7043    3.0282 H   0  0  0  0  0  0  0  0  0  0  0  0
    6.4872  -11.8276    3.1378 H   0  0  0  0  0  0  0  0  0  0  0  0
    7.2975   -9.2207    0.9924 H   0  0  0  0  0  0  0  0  0  0  0  0
    5.6410  -11.2932    0.6545 H   0  0  0  0  0  0  0  0  0  0  0  0
    4.7349   -9.0258    0.5977 H   0  0  0  0  0  0  0  0  0  0  0  0
    2.0259   -9.9000    2.5121 H   0  0  0  0  0  0  0  0  0  0  0  0
    3.0741  -10.2593    1.2102 H   0  0  0  0  0  0  0  0  0  0  0  0
    2.3949   -8.6851    1.3296 H   0  0  0  0  0  0  0  0  0  0  0  0
    4.2962  -10.3923    4.2393 H   0  0  0  0  0  0  0  0  0  0  0  0
    4.3480  -11.3930    2.0442 H   0  0  0  0  0  0  0  0  0  0  0  0
    4.5461   -7.2800    3.7909 H   0  0  0  0  0  0  0  0  0  0  0  0
    3.1677   -5.8996    3.4803 H   0  0  0  0  0  0  0  0  0  0  0  0
    2.3192   -6.9731    2.4904 H   0  0  0  0  0  0  0  0  0  0  0  0
    1.5143   -5.6245    5.0217 H   0  0  0  0  0  0  0  0  0  0  0  0
    0.2614   -6.8016    6.6375 H   0  0  0  0  0  0  0  0  0  0  0  0
    2.2295   -7.3575    5.8566 H   0  0  0  0  0  0  0  0  0  0  0  0
   -0.0317  -10.2849    4.5352 H   0  0  0  0  0  0  0  0  0  0  0  0
    1.7261  -11.4644    5.6526 H   0  0  0  0  0  0  0  0  0  0  0  0
    2.4482  -10.8988    4.2374 H   0  0  0  0  0  0  0  0  0  0  0  0
    2.9893  -11.5209    6.8985 H   0  0  0  0  0  0  0  0  0  0  0  0
    1.5687  -10.2418    7.7104 H   0  0  0  0  0  0  0  0  0  0  0  0
    1.9764   -8.6121    7.9021 H   0  0  0  0  0  0  0  0  0  0  0  0
   -0.6309  -10.6269    7.2829 H   0  0  0  0  0  0  0  0  0  0  0  0
   -1.6873   -9.4694    6.5047 H   0  0  0  0  0  0  0  0  0  0  0  0
   -0.9264   -9.0601    8.0381 H   0  0  0  0  0  0  0  0  0  0  0  0
    5.6789  -10.3358    5.6367 H   0  0  0  0  0  0  0  0  0  0  0  0
    9.0239   -9.1867    6.8796 H   0  0  0  0  0  0  0  0  0  0  0  0
    8.6424   -8.4268    5.4000 H   0  0  0  0  0  0  0  0  0  0  0  0
    8.4214  -10.0889    5.5309 H   0  0  0  0  0  0  0  0  0  0  0  0
    7.6002  -10.1982    8.3355 H   0  0  0  0  0  0  0  0  0  0  0  0
    7.2713  -11.1355    6.9552 H   0  0  0  0  0  0  0  0  0  0  0  0
    5.9719  -10.6346    7.8689 H   0  0  0  0  0  0  0  0  0  0  0  0
    8.4344   -6.1965    4.9360 H   0  0  0  0  0  0  0  0  0  0  0  0
    9.4692   -6.7017    6.2742 H   0  0  0  0  0  0  0  0  0  0  0  0
    8.8820   -5.0733    6.1506 H   0  0  0  0  0  0  0  0  0  0  0  0
    6.1877   -4.6506    7.4018 H   0  0  0  0  0  0  0  0  0  0  0  0
    6.6173   -4.6664    5.7832 H   0  0  0  0  0  0  0  0  0  0  0  0
    4.1553   -5.1681    6.2126 H   0  0  0  0  0  0  0  0  0  0  0  0
    5.0446   -6.0226    5.1240 H   0  0  0  0  0  0  0  0  0  0  0  0
    3.0566   -7.4415    8.1329 H   0  0  0  0  0  0  0  0  0  0  0  0
    3.7549   -8.5301    9.4762 H   0  0  0  0  0  0  0  0  0  0  0  0
    5.3002   -9.3140    9.5996 H   0  0  0  0  0  0  0  0  0  0  0  0
    4.2078   -9.7467    8.4169 H   0  0  0  0  0  0  0  0  0  0  0  0
    5.6651   -5.8487    8.8899 H   0  0  0  0  0  0  0  0  0  0  0  0
    5.4526   -7.8369   10.7916 H   0  0  0  0  0  0  0  0  0  0  0  0
    7.4084   -9.0861   10.2588 H   0  0  0  0  0  0  0  0  0  0  0  0
    8.1770   -7.6079   10.7629 H   0  0  0  0  0  0  0  0  0  0  0  0
    8.9378   -8.5689    9.5045 H   0  0  0  0  0  0  0  0  0  0  0  0
  1  2  1  0
  1 51  1  0
  1 52  1  0
  1 53  1  0
  2 11  1  0
  2  3  1  0
  2  4  1  0
  3 54  1  0
  3 55  1  0
  3 56  1  0
  5  4  1  6
  4 57  1  0
  4 58  1  0
  5 15  1  0
  5 32  1  0
  5  6  1  0
  6  7  1  0
  6  8  1  0
  6 59  1  6
  7 60  1  0
  8  9  1  0
  8 10  1  0
  8 61  1  6
  9 62  1  0
 10 11  1  0
 10 13  1  0
 10 63  1  6
 11 12  2  0
 13 14  1  6
 13 15  1  0
 13 17  1  0
 14 64  1  0
 14 65  1  0
 14 66  1  0
 15 16  1  0
 15 67  1  1
 16 68  1  0
 17 31  1  0
 17 18  1  0
 17 69  1  6
 18 19  1  0
 18 70  1  0
 18 71  1  0
 19 22  1  0
 19 20  1  0
 19 72  1  1
 20 21  1  0
 21 29  1  0
 21 22  1  0
 21 73  1  1
 22 23  1  0
 22 74  1  1
 23 24  1  0
 24 29  1  0
 24 25  1  0
 24 75  1  6
 25 26  1  0
 25 76  1  0
 25 77  1  0
 26 27  1  1
 26 28  1  0
 31 26  1  1
 27 78  1  0
 28 29  1  0
 28 79  1  0
 28 80  1  0
 29 30  1  1
 30 81  1  0
 30 82  1  0
 30 83  1  0
 31 41  1  0
 31 32  1  0
 32 33  1  0
 32 84  1  1
 33 34  1  0
 33 35  1  0
 36 33  1  6
 34 85  1  0
 34 86  1  0
 34 87  1  0
 35 88  1  0
 35 89  1  0
 35 90  1  0
 36 43  1  0
 36 47  1  0
 36 37  1  0
 37 49  1  0
 37 38  1  6
 37 39  1  0
 38 91  1  0
 38 92  1  0
 38 93  1  0
 39 40  1  0
 39 94  1  0
 39 95  1  0
 40 41  1  0
 40 96  1  0
 40 97  1  0
 41 42  1  1
 41 43  1  0
 42 98  1  0
 43 44  1  1
 43 45  1  0
 44 99  1  0
 44100  1  0
 44101  1  0
 45 46  1  0
 45 47  1  0
 45102  1  6
 46103  1  0
 47 48  1  1
 47 49  1  0
 48104  1  0
 48105  1  0
 48106  1  0
 49 50  2  0
M  CHG  1  33   1
M  END
>  <i_m_ct_stereo_status>  (29) 
1

>  <s_m_source_file>  (29) 
/var/tmp/pbs.5076255.sched01/tmpu3exd1vk/0t_9me_9p.sdf

>  <i_m_source_file_index>  (29) 
11

>  <i_lp_mmshare_version>  (29) 
48012

>  <i_f3d_flags>  (29) 
0

>  <s_epik_input>  (29) 
W09IXVtDQEhdMVtDQF0yKFtDSDNdKUMoPU8pW0NAXShbQ0gzXSkoW0NIMl1bQ0gyXTMpW0NAXTIoW04rXTQoW0NIM10pW0NIM10pW0NAXTEoW0NIM10pW0NAXTMoW09IXSlbQ0BdNShbQ0BIXTRbQ0BAXTY3OClbQ0BASF0oW0NAXShbQ0gzXSkoW0NASF04W09IXSlbQ0BIXShbQ0BIXShbT0hdKVtDQEBIXTdbT0hdKUMoPU8pQyhbQ0gzXSkoW0NIM10pW0NIMl02KVtDSDJdW0NAQEhdOVtDQEhdMVtDQEhdKE85KVtDQEBdMihbQ0gzXSlbQ0BASF0oTzEpW0NIMl1bQ0BdNShbT0hdKVtDSDJdMg==

>  <s_epik_cmdline>  (29) 
J2VwaWtfcHl0aG9uJywgJy1waHQnLCAnMi4wJywgJy1waCcsICc3LjAnLCAnLXRuJywgJzgnLCAnLW1hJywgJzIwMCcsICctaW1hZScsICc8aW5maWxlLm1hZT4nLCAnLW9tYWUnLCAnPG91dGZpbGUubWFlPic=

>  <r_lp_tautomer_probability>  (29) 
1

>  <r_epik_Ionization_Penalty>  (29) 
8.19987e-05

>  <r_epik_Ionization_Penalty_Charging>  (29) 
0

>  <r_epik_Ionization_Penalty_Neutral>  (29) 
8.19987e-05

>  <r_epik_State_Penalty>  (29) 
-0

>  <r_epik_Charging_Adjusted_Penalty>  (29) 
0

>  <i_epik_Tot_Q>  (29) 
1

>  <i_epik_Tot_abs_Q>  (29) 
1

>  <s_lp_Force_Field>  (29) 
OPLS3e

>  <r_lp_Energy>  (29) 
552.583

>  <b_lp_Chiralities_Consistent>  (29) 
1

>  <s_lp_Variant>  (29) 
8:0-1

>  <s_i_glide_gridfile>  (29) 
pfpi4k_grid

>  <i_i_glide_lignum>  (29) 
11

>  <i_i_glide_rotatable_bonds>  (29) 
6

>  <r_i_docking_score>  (29) 
-3.53912

>  <r_i_glide_ligand_efficiency>  (29) 
-0.0707825

>  <r_i_glide_ligand_efficiency_sa>  (29) 
-0.260765

>  <r_i_glide_ligand_efficiency_ln>  (29) 
-0.720502

>  <r_i_glide_gscore>  (29) 
-3.53912

>  <r_i_glide_lipo>  (29) 
-0.0937987

>  <r_i_glide_hbond>  (29) 
-0.16

>  <r_i_glide_metal>  (29) 
-0

>  <r_i_glide_rewards>  (29) 
-0.635342

>  <r_i_glide_evdw>  (29) 
-20.0576

>  <r_i_glide_ecoul>  (29) 
-13.7544

>  <r_i_glide_erotb>  (29) 
0

>  <r_i_glide_esite>  (29) 
0

>  <r_i_glide_emodel>  (29) 
-43.4201

>  <r_i_glide_energy>  (29) 
-33.8121

>  <r_i_glide_einternal>  (29) 
1.43707

>  <r_i_glide_intrahb_reward>  (29) 
-0.5

>  <i_i_glide_confnum>  (29) 
1

>  <i_i_glide_posenum>  (29) 
29

>  <r_i_glide_eff_state_penalty>  (29) 
0

>  <ligand_id>  (29) 
8

>  <original_smiles>  (29) 
CC1(C)CC23C(O)C(O)C(C1=O)C(C)(C2O)C1CC2OC4C2OC2CC(O)(CC24C)C12C3[N+](C)(C)C13C4(C)CCC2(O)C1(C)C(O)C3(C)C4=O

>  <smiles>  (29) 
[H]OC1([H])C([H])(O[H])C23C([H])([H])C(C([H])([H])[H])(C([H])([H])[H])C(=O)C1([H])C(C([H])([H])[H])(C2([H])O[H])C1([H])C([H])([H])C2([H])OC4([H])C2([H])OC2([H])C([H])([H])C(O[H])(C([H])([H])C24C([H])([H])[H])C12C1(O[H])C([H])([H])C([H])([H])C4(C([H])([H])[H])C(=O)C5(C([H])([H])[H])C([H])(O[H])C1(C([H])([H])[H])C45[N+](C([H])([H])[H])(C([H])([H])[H])C32[H]

$$$$
8:0:2
     RDKit          3D

106116  0  0  1  0  0  0  0  0999 V2000
    5.9619   -4.8740    3.4618 C   0  0  0  0  0  0  0  0  0  0  0  0
    6.4858   -6.3073    3.7047 C   0  0  0  0  0  0  0  0  0  0  0  0
    8.0089   -6.1686    4.0185 C   0  0  0  0  0  0  0  0  0  0  0  0
    5.7114   -6.9821    4.9050 C   0  0  0  0  0  0  0  0  0  0  0  0
    5.0483   -8.4600    5.0594 C   0  0  2  0  0  0  0  0  0  0  0  0
    6.3872   -9.2610    5.1249 C   0  0  1  0  0  0  0  0  0  0  0  0
    6.2851  -10.5311    5.7402 O   0  0  0  0  0  0  0  0  0  0  0  0
    6.8840   -9.2481    3.5940 C   0  0  1  0  0  0  0  0  0  0  0  0
    7.2344  -10.5248    3.0923 O   0  0  0  0  0  0  0  0  0  0  0  0
    5.8828   -8.4893    2.5468 C   0  0  2  0  0  0  0  0  0  0  0  0
    6.3096   -7.0611    2.4012 C   0  0  0  0  0  0  0  0  0  0  0  0
    6.4974   -6.5548    1.2942 O   0  0  0  0  0  0  0  0  0  0  0  0
    4.2766   -8.6009    2.7282 C   0  0  1  0  0  0  0  0  0  0  0  0
    3.8135   -9.3706    1.4500 C   0  0  0  0  0  0  0  0  0  0  0  0
    4.3272   -9.3967    3.9445 C   0  0  1  0  0  0  0  0  0  0  0  0
    4.6270  -10.7827    3.7202 O   0  0  0  0  0  0  0  0  0  0  0  0
    3.2359   -7.4247    3.2488 C   0  0  1  0  0  0  0  0  0  0  0  0
    2.6808   -6.5333    1.9390 C   0  0  0  0  0  0  0  0  0  0  0  0
    1.1674   -6.1717    1.7158 C   0  0  1  0  0  0  0  0  0  0  0  0
   -0.0000   -6.7126    0.9426 O   0  0  0  0  0  0  0  0  0  0  0  0
   -0.6357   -7.1039    2.2501 C   0  0  2  0  0  0  0  0  0  0  0  0
    0.7187   -7.1397    2.5896 C   0  0  1  0  0  0  0  0  0  0  0  0
    1.1341   -8.4245    2.0934 O   0  0  0  0  0  0  0  0  0  0  0  0
    0.2205   -9.3690    2.4899 C   0  0  1  0  0  0  0  0  0  0  0  0
    1.0343   -9.9496    3.6186 C   0  0  0  0  0  0  0  0  0  0  0  0
    1.1801   -8.8496    4.7403 C   0  0  2  0  0  0  0  0  0  0  0  0
    1.3594   -9.8156    5.7612 O   0  0  0  0  0  0  0  0  0  0  0  0
   -0.3865   -8.4570    4.5588 C   0  0  0  0  0  0  0  0  0  0  0  0
   -0.8436   -8.4441    3.0030 C   0  0  1  0  0  0  0  0  0  0  0  0
   -2.2568   -8.9175    2.8276 C   0  0  0  0  0  0  0  0  0  0  0  0
    2.4620   -7.6477    4.8660 C   0  0  1  0  0  0  0  0  0  0  0  0
    3.7242   -8.2115    5.9421 C   0  0  2  0  0  0  0  0  0  0  0  0
    3.8231   -7.6793    7.4348 N   0  0  0  0  0  0  0  0  0  0  0  0
    5.2380   -7.7180    7.9556 C   0  0  0  0  0  0  0  0  0  0  0  0
    3.2297   -8.7291    8.3511 C   0  0  0  0  0  0  0  0  0  0  0  0
    3.1817   -6.3503    7.6282 C   0  0  1  0  0  0  0  0  0  0  0  0
    4.0500   -5.0015    7.3395 C   0  0  1  0  0  0  0  0  0  0  0  0
    5.5597   -4.6886    7.4494 C   0  0  0  0  0  0  0  0  0  0  0  0
    3.4672   -4.1068    6.2358 C   0  0  0  0  0  0  0  0  0  0  0  0
    2.6933   -4.9327    5.1912 C   0  0  0  0  0  0  0  0  0  0  0  0
    1.8855   -6.2334    5.6027 C   0  0  1  0  0  0  0  0  0  0  0  0
    0.5954   -5.6790    5.3992 O   0  0  0  0  0  0  0  0  0  0  0  0
    1.6976   -6.3885    7.1400 C   0  0  1  0  0  0  0  0  0  0  0  0
    0.6108   -7.3924    7.5929 C   0  0  0  0  0  0  0  0  0  0  0  0
    1.3719   -5.2273    8.1172 C   0  0  1  0  0  0  0  0  0  0  0  0
    0.1528   -5.1268    8.8434 O   0  0  0  0  0  0  0  0  0  0  0  0
    2.6124   -5.6322    8.9240 C   0  0  1  0  0  0  0  0  0  0  0  0
    2.5027   -6.1704   10.3571 C   0  0  0  0  0  0  0  0  0  0  0  0
    3.6424   -4.5549    8.7514 C   0  0  0  0  0  0  0  0  0  0  0  0
    4.0040   -3.6088    9.5134 O   0  0  0  0  0  0  0  0  0  0  0  0
    6.0105   -4.2829    4.3723 H   0  0  0  0  0  0  0  0  0  0  0  0
    4.9471   -4.8459    3.0867 H   0  0  0  0  0  0  0  0  0  0  0  0
    6.5340   -4.3690    2.6880 H   0  0  0  0  0  0  0  0  0  0  0  0
    8.1891   -5.3579    4.7210 H   0  0  0  0  0  0  0  0  0  0  0  0
    8.5902   -5.9508    3.1220 H   0  0  0  0  0  0  0  0  0  0  0  0
    8.4607   -7.0433    4.4861 H   0  0  0  0  0  0  0  0  0  0  0  0
    6.4773   -6.9062    5.6638 H   0  0  0  0  0  0  0  0  0  0  0  0
    4.9941   -6.2769    5.2802 H   0  0  0  0  0  0  0  0  0  0  0  0
    7.1696   -8.7934    5.7236 H   0  0  0  0  0  0  0  0  0  0  0  0
    5.7202  -11.0496    5.1658 H   0  0  0  0  0  0  0  0  0  0  0  0
    7.8548   -8.7696    3.5598 H   0  0  0  0  0  0  0  0  0  0  0  0
    6.4261  -11.0236    3.0003 H   0  0  0  0  0  0  0  0  0  0  0  0
    6.1313   -8.9053    1.5770 H   0  0  0  0  0  0  0  0  0  0  0  0
    2.8134   -9.7698    1.4472 H   0  0  0  0  0  0  0  0  0  0  0  0
    4.4516  -10.2292    1.2777 H   0  0  0  0  0  0  0  0  0  0  0  0
    3.9114   -8.7621    0.5581 H   0  0  0  0  0  0  0  0  0  0  0  0
    3.3748   -9.7182    4.2564 H   0  0  0  0  0  0  0  0  0  0  0  0
    4.1200  -11.0840    2.9754 H   0  0  0  0  0  0  0  0  0  0  0  0
    3.9441   -6.6902    3.4667 H   0  0  0  0  0  0  0  0  0  0  0  0
    3.1444   -5.5550    2.0611 H   0  0  0  0  0  0  0  0  0  0  0  0
    3.1140   -6.8741    0.9989 H   0  0  0  0  0  0  0  0  0  0  0  0
    0.9400   -5.2031    2.1606 H   0  0  0  0  0  0  0  0  0  0  0  0
   -1.1452   -6.2894    2.7522 H   0  0  0  0  0  0  0  0  0  0  0  0
    0.8382   -6.7049    3.5215 H   0  0  0  0  0  0  0  0  0  0  0  0
   -0.0799  -10.0906    1.7261 H   0  0  0  0  0  0  0  0  0  0  0  0
    0.3874  -10.7677    3.9548 H   0  0  0  0  0  0  0  0  0  0  0  0
    1.9152  -10.4588    3.2305 H   0  0  0  0  0  0  0  0  0  0  0  0
    0.8097  -10.5725    5.5886 H   0  0  0  0  0  0  0  0  0  0  0  0
   -0.9647   -9.2474    5.0370 H   0  0  0  0  0  0  0  0  0  0  0  0
   -0.7326   -7.5835    5.0923 H   0  0  0  0  0  0  0  0  0  0  0  0
   -2.3284   -9.8720    3.2939 H   0  0  0  0  0  0  0  0  0  0  0  0
   -2.5489   -8.9757    1.7821 H   0  0  0  0  0  0  0  0  0  0  0  0
   -2.9392   -8.2528    3.3477 H   0  0  0  0  0  0  0  0  0  0  0  0
    3.5248   -9.2406    6.1776 H   0  0  0  0  0  0  0  0  0  0  0  0
    5.2534   -7.5074    9.0236 H   0  0  0  0  0  0  0  0  0  0  0  0
    5.9493   -7.0475    7.5267 H   0  0  0  0  0  0  0  0  0  0  0  0
    5.6663   -8.6969    7.8211 H   0  0  0  0  0  0  0  0  0  0  0  0
    3.2014   -8.4141    9.3870 H   0  0  0  0  0  0  0  0  0  0  0  0
    3.8387   -9.6185    8.3456 H   0  0  0  0  0  0  0  0  0  0  0  0
    2.2625   -9.1194    8.0756 H   0  0  0  0  0  0  0  0  0  0  0  0
    6.1289   -4.9779    6.5793 H   0  0  0  0  0  0  0  0  0  0  0  0
    6.0381   -5.1025    8.3390 H   0  0  0  0  0  0  0  0  0  0  0  0
    5.7195   -3.6100    7.5275 H   0  0  0  0  0  0  0  0  0  0  0  0
    2.8438   -3.2975    6.6282 H   0  0  0  0  0  0  0  0  0  0  0  0
    4.2401   -3.5346    5.7271 H   0  0  0  0  0  0  0  0  0  0  0  0
    2.1112   -4.2734    4.5388 H   0  0  0  0  0  0  0  0  0  0  0  0
    3.4809   -5.1871    4.5301 H   0  0  0  0  0  0  0  0  0  0  0  0
   -0.0242   -6.2457    5.8340 H   0  0  0  0  0  0  0  0  0  0  0  0
   -0.3905   -7.0175    7.4194 H   0  0  0  0  0  0  0  0  0  0  0  0
    0.6680   -7.5991    8.6595 H   0  0  0  0  0  0  0  0  0  0  0  0
    0.5904   -8.3458    7.1724 H   0  0  0  0  0  0  0  0  0  0  0  0
    1.4482   -4.2676    7.6390 H   0  0  0  0  0  0  0  0  0  0  0  0
    0.2519   -5.6227    9.6442 H   0  0  0  0  0  0  0  0  0  0  0  0
    1.8188   -7.0181   10.4450 H   0  0  0  0  0  0  0  0  0  0  0  0
    2.1001   -5.3965   11.0223 H   0  0  0  0  0  0  0  0  0  0  0  0
    3.4745   -6.4596   10.7664 H   0  0  0  0  0  0  0  0  0  0  0  0
  1  2  1  0
  1 51  1  0
  1 52  1  0
  1 53  1  0
  2 11  1  0
  2  3  1  0
  2  4  1  0
  3 54  1  0
  3 55  1  0
  3 56  1  0
  5  4  1  6
  4 57  1  0
  4 58  1  0
  5 15  1  0
  5 32  1  0
  5  6  1  0
  6  7  1  0
  6  8  1  0
  6 59  1  1
  7 60  1  0
  8  9  1  0
  8 10  1  0
  8 61  1  1
  9 62  1  0
 10 11  1  0
 10 13  1  0
 10 63  1  6
 11 12  2  0
 13 14  1  6
 13 15  1  0
 13 17  1  0
 14 64  1  0
 14 65  1  0
 14 66  1  0
 15 16  1  0
 15 67  1  1
 16 68  1  0
 17 31  1  0
 17 18  1  0
 17 69  1  1
 18 19  1  0
 18 70  1  0
 18 71  1  0
 19 22  1  0
 19 20  1  0
 19 72  1  1
 20 21  1  0
 21 29  1  0
 21 22  1  0
 21 73  1  1
 22 23  1  0
 22 74  1  1
 23 24  1  0
 24 29  1  0
 24 25  1  0
 24 75  1  6
 25 26  1  0
 25 76  1  0
 25 77  1  0
 26 27  1  1
 26 28  1  0
 31 26  1  6
 27 78  1  0
 28 29  1  0
 28 79  1  0
 28 80  1  0
 29 30  1  1
 30 81  1  0
 30 82  1  0
 30 83  1  0
 31 41  1  0
 31 32  1  0
 32 33  1  0
 32 84  1  1
 33 34  1  0
 33 35  1  0
 36 33  1  1
 34 85  1  0
 34 86  1  0
 34 87  1  0
 35 88  1  0
 35 89  1  0
 35 90  1  0
 36 43  1  0
 36 47  1  0
 36 37  1  0
 37 49  1  0
 37 38  1  1
 37 39  1  0
 38 91  1  0
 38 92  1  0
 38 93  1  0
 39 40  1  0
 39 94  1  0
 39 95  1  0
 40 41  1  0
 40 96  1  0
 40 97  1  0
 41 42  1  6
 41 43  1  0
 42 98  1  0
 43 44  1  6
 43 45  1  0
 44 99  1  0
 44100  1  0
 44101  1  0
 45 46  1  0
 45 47  1  0
 45102  1  6
 46103  1  0
 47 48  1  1
 47 49  1  0
 48104  1  0
 48105  1  0
 48106  1  0
 49 50  2  0
M  CHG  1  33   1
M  END
>  <i_m_ct_stereo_status>  (30) 
1

>  <s_m_source_file>  (30) 
/var/tmp/pbs.5076255.sched01/tmpu3exd1vk/0t_9me_9p.sdf

>  <i_m_source_file_index>  (30) 
11

>  <i_lp_mmshare_version>  (30) 
48012

>  <i_f3d_flags>  (30) 
0

>  <s_epik_input>  (30) 
W09IXVtDQEhdMVtDQF0yKFtDSDNdKUMoPU8pW0NAXShbQ0gzXSkoW0NIMl1bQ0gyXTMpW0NAXTIoW04rXTQoW0NIM10pW0NIM10pW0NAXTEoW0NIM10pW0NAXTMoW09IXSlbQ0BdNShbQ0BIXTRbQ0BAXTY3OClbQ0BASF0oW0NAXShbQ0gzXSkoW0NASF04W09IXSlbQ0BIXShbQ0BIXShbT0hdKVtDQEBIXTdbT0hdKUMoPU8pQyhbQ0gzXSkoW0NIM10pW0NIMl02KVtDSDJdW0NAQEhdOVtDQEhdMVtDQEhdKE85KVtDQEBdMihbQ0gzXSlbQ0BASF0oTzEpW0NIMl1bQ0BdNShbT0hdKVtDSDJdMg==

>  <s_epik_cmdline>  (30) 
J2VwaWtfcHl0aG9uJywgJy1waHQnLCAnMi4wJywgJy1waCcsICc3LjAnLCAnLXRuJywgJzgnLCAnLW1hJywgJzIwMCcsICctaW1hZScsICc8aW5maWxlLm1hZT4nLCAnLW9tYWUnLCAnPG91dGZpbGUubWFlPic=

>  <r_lp_tautomer_probability>  (30) 
1

>  <r_epik_Ionization_Penalty>  (30) 
8.19987e-05

>  <r_epik_Ionization_Penalty_Charging>  (30) 
0

>  <r_epik_Ionization_Penalty_Neutral>  (30) 
8.19987e-05

>  <r_epik_State_Penalty>  (30) 
-0

>  <r_epik_Charging_Adjusted_Penalty>  (30) 
0

>  <i_epik_Tot_Q>  (30) 
1

>  <i_epik_Tot_abs_Q>  (30) 
1

>  <s_lp_Force_Field>  (30) 
OPLS3e

>  <r_lp_Energy>  (30) 
552.583

>  <b_lp_Chiralities_Consistent>  (30) 
1

>  <s_lp_Variant>  (30) 
8:0-1

>  <s_i_glide_gridfile>  (30) 
pfpi4k_grid

>  <i_i_glide_lignum>  (30) 
11

>  <i_i_glide_rotatable_bonds>  (30) 
6

>  <r_i_docking_score>  (30) 
-3.10288

>  <r_i_glide_ligand_efficiency>  (30) 
-0.0620575

>  <r_i_glide_ligand_efficiency_sa>  (30) 
-0.228622

>  <r_i_glide_ligand_efficiency_ln>  (30) 
-0.63169

>  <r_i_glide_gscore>  (30) 
-3.10288

>  <r_i_glide_lipo>  (30) 
-0.0798719

>  <r_i_glide_hbond>  (30) 
-0.146396

>  <r_i_glide_metal>  (30) 
-0

>  <r_i_glide_rewards>  (30) 
-1.03085

>  <r_i_glide_evdw>  (30) 
-24.7271

>  <r_i_glide_ecoul>  (30) 
-4.05901

>  <r_i_glide_erotb>  (30) 
0

>  <r_i_glide_esite>  (30) 
-0.000556064

>  <r_i_glide_emodel>  (30) 
-43.2137

>  <r_i_glide_energy>  (30) 
-28.7861

>  <r_i_glide_einternal>  (30) 
1.68864

>  <r_i_glide_intrahb_reward>  (30) 
-1

>  <i_i_glide_confnum>  (30) 
1

>  <i_i_glide_posenum>  (30) 
7

>  <r_i_glide_eff_state_penalty>  (30) 
0

>  <ligand_id>  (30) 
8

>  <original_smiles>  (30) 
CC1(C)CC23C(O)C(O)C(C1=O)C(C)(C2O)C1CC2OC4C2OC2CC(O)(CC24C)C12C3[N+](C)(C)C13C4(C)CCC2(O)C1(C)C(O)C3(C)C4=O

>  <smiles>  (30) 
[H]OC1([H])C([H])(O[H])C23C([H])([H])C(C([H])([H])[H])(C([H])([H])[H])C(=O)C1([H])C(C([H])([H])[H])(C2([H])O[H])C1([H])C([H])([H])C2([H])OC4([H])C2([H])OC2([H])C([H])([H])C(O[H])(C([H])([H])C24C([H])([H])[H])C12C1(O[H])C([H])([H])C([H])([H])C4(C([H])([H])[H])C(=O)C5(C([H])([H])[H])C([H])(O[H])C1(C([H])([H])[H])C45[N+](C([H])([H])[H])(C([H])([H])[H])C32[H]

$$$$
9:0:0
     RDKit          3D

 68 73  0  0  1  0  0  0  0  0999 V2000
    6.0030   -3.7015   -1.7612 C   0  0  0  0  0  0  0  0  0  0  0  0
    6.1748   -3.8467   -0.3408 O   0  0  0  0  0  0  0  0  0  0  0  0
    5.0679   -4.2483    0.5056 C   0  0  1  0  0  0  0  0  0  0  0  0
    5.0201   -5.8000    0.2992 C   0  0  0  0  0  0  0  0  0  0  0  0
    5.1536   -6.8712    1.3768 C   0  0  1  0  0  0  0  0  0  0  0  0
    6.5911   -7.2722    1.7688 C   0  0  0  0  0  0  0  0  0  0  0  0
    4.0359   -6.9542    2.4289 C   0  0  2  0  0  0  0  0  0  0  0  0
    2.6658   -6.1511    2.4906 C   0  0  1  0  0  0  0  0  0  0  0  0
    1.5017   -6.9740    1.8870 C   0  0  0  0  0  0  0  0  0  0  0  0
    2.8352   -6.5537    4.0148 C   0  0  0  0  0  0  0  0  0  0  0  0
    1.9334   -6.8746    4.9481 C   0  0  0  0  0  0  0  0  0  0  0  0
    2.3359   -7.7358    6.0956 C   0  0  0  0  0  0  0  0  0  0  0  0
    1.7187   -7.7694    7.1471 O   0  0  0  0  0  0  0  0  0  0  0  0
    3.4578   -8.4593    5.8620 O   0  0  0  0  0  0  0  0  0  0  0  0
    4.0261   -8.5724    4.5594 C   0  0  0  0  0  0  0  0  0  0  0  0
    4.2551   -7.1692    3.9532 C   0  0  1  0  0  0  0  0  0  0  0  0
    5.4270   -6.4814    4.7921 C   0  0  1  0  0  0  0  0  0  0  0  0
    6.5715   -7.3220    4.8330 O   0  0  0  0  0  0  0  0  0  0  0  0
    5.9860   -5.0748    4.4371 C   0  0  0  0  0  0  0  0  0  0  0  0
    4.8306   -4.1590    4.3152 C   0  0  0  0  0  0  0  0  0  0  0  0
    4.3482   -3.6585    3.1632 C   0  0  0  0  0  0  0  0  0  0  0  0
    5.2479   -3.4598    1.8793 C   0  0  2  0  0  0  0  0  0  0  0  0
    5.0601   -2.1180    1.4007 O   0  0  0  0  0  0  0  0  0  0  0  0
    4.1653   -2.0761    0.2793 C   0  0  1  0  0  0  0  0  0  0  0  0
    4.8403   -1.1990   -0.8076 C   0  0  0  0  0  0  0  0  0  0  0  0
    3.8317   -3.5598   -0.0059 C   0  0  2  0  0  0  0  0  0  0  0  0
    2.4983   -4.1183    0.5958 C   0  0  1  0  0  0  0  0  0  0  0  0
    1.8765   -5.0398   -0.2767 O   0  0  0  0  0  0  0  0  0  0  0  0
    2.3603   -4.5706    2.1281 C   0  0  2  0  0  0  0  0  0  0  0  0
    2.8262   -3.4326    3.1102 C   0  0  0  0  0  0  0  0  0  0  0  0
    2.0514   -3.5485    4.4742 C   0  0  0  0  0  0  0  0  0  0  0  0
    2.4153   -1.9561    2.7586 C   0  0  0  0  0  0  0  0  0  0  0  0
    6.8806   -3.2172   -2.1647 H   0  0  0  0  0  0  0  0  0  0  0  0
    5.1928   -3.0440   -2.0231 H   0  0  0  0  0  0  0  0  0  0  0  0
    5.8309   -4.6226   -2.2705 H   0  0  0  0  0  0  0  0  0  0  0  0
    4.1182   -6.0524   -0.2419 H   0  0  0  0  0  0  0  0  0  0  0  0
    5.7858   -6.0559   -0.4252 H   0  0  0  0  0  0  0  0  0  0  0  0
    4.9593   -7.7425    0.7423 H   0  0  0  0  0  0  0  0  0  0  0  0
    7.1654   -6.4955    2.2597 H   0  0  0  0  0  0  0  0  0  0  0  0
    7.1728   -7.5322    0.8818 H   0  0  0  0  0  0  0  0  0  0  0  0
    6.5918   -8.1685    2.3927 H   0  0  0  0  0  0  0  0  0  0  0  0
    3.6684   -7.9575    2.1824 H   0  0  0  0  0  0  0  0  0  0  0  0
    1.6923   -7.1889    0.8426 H   0  0  0  0  0  0  0  0  0  0  0  0
    0.5361   -6.4854    1.9456 H   0  0  0  0  0  0  0  0  0  0  0  0
    1.3865   -7.9539    2.3455 H   0  0  0  0  0  0  0  0  0  0  0  0
    0.8855   -6.5819    4.8788 H   0  0  0  0  0  0  0  0  0  0  0  0
    4.9454   -9.1516    4.6065 H   0  0  0  0  0  0  0  0  0  0  0  0
    3.3378   -9.1543    3.9547 H   0  0  0  0  0  0  0  0  0  0  0  0
    5.0945   -6.4172    5.8250 H   0  0  0  0  0  0  0  0  0  0  0  0
    6.8980   -7.4272    3.9563 H   0  0  0  0  0  0  0  0  0  0  0  0
    6.6189   -4.7193    5.2512 H   0  0  0  0  0  0  0  0  0  0  0  0
    6.6077   -5.0681    3.5550 H   0  0  0  0  0  0  0  0  0  0  0  0
    4.2420   -4.2111    5.2035 H   0  0  0  0  0  0  0  0  0  0  0  0
    6.2933   -3.4998    2.1898 H   0  0  0  0  0  0  0  0  0  0  0  0
    3.2518   -1.5237    0.4765 H   0  0  0  0  0  0  0  0  0  0  0  0
    4.2755   -1.2359   -1.7439 H   0  0  0  0  0  0  0  0  0  0  0  0
    5.8698   -1.5035   -1.0294 H   0  0  0  0  0  0  0  0  0  0  0  0
    4.8728   -0.1639   -0.5072 H   0  0  0  0  0  0  0  0  0  0  0  0
    3.7166   -3.6982   -1.0805 H   0  0  0  0  0  0  0  0  0  0  0  0
    1.8268   -3.2912    0.4584 H   0  0  0  0  0  0  0  0  0  0  0  0
    2.5065   -5.2128   -1.0250 H   0  0  0  0  0  0  0  0  0  0  0  0
    1.2848   -4.4985    2.2636 H   0  0  0  0  0  0  0  0  0  0  0  0
    0.9733   -3.4863    4.3136 H   0  0  0  0  0  0  0  0  0  0  0  0
    2.3138   -2.7419    5.1627 H   0  0  0  0  0  0  0  0  0  0  0  0
    2.2034   -4.4368    5.0627 H   0  0  0  0  0  0  0  0  0  0  0  0
    1.7175   -1.8712    1.9329 H   0  0  0  0  0  0  0  0  0  0  0  0
    3.2594   -1.2950    2.6037 H   0  0  0  0  0  0  0  0  0  0  0  0
    1.8866   -1.4291    3.5492 H   0  0  0  0  0  0  0  0  0  0  0  0
  1  2  1  0
  1 33  1  0
  1 34  1  0
  1 35  1  0
  3  2  1  6
  3 22  1  0
  3 26  1  0
  3  4  1  0
  4  5  1  0
  4 36  1  0
  4 37  1  0
  5  6  1  0
  5  7  1  0
  5 38  1  6
  6 39  1  0
  6 40  1  0
  6 41  1  0
  7 16  1  0
  7  8  1  0
  7 42  1  6
  8 29  1  0
  8  9  1  6
  8 10  1  0
  9 43  1  0
  9 44  1  0
  9 45  1  0
 10 16  1  0
 10 11  2  0
 11 12  1  0
 11 46  1  0
 12 13  2  0
 12 14  1  0
 14 15  1  0
 16 15  1  6
 15 47  1  0
 15 48  1  0
 16 17  1  0
 17 18  1  0
 17 19  1  0
 17 49  1  1
 18 50  1  0
 19 20  1  0
 19 51  1  0
 19 52  1  0
 20 21  2  3
 20 53  1  0
 21 30  1  0
 21 22  1  0
 22 23  1  0
 22 54  1  1
 23 24  1  0
 24 25  1  0
 24 26  1  0
 24 55  1  1
 25 56  1  0
 25 57  1  0
 25 58  1  0
 26 27  1  0
 26 59  1  6
 27 28  1  0
 27 29  1  0
 27 60  1  1
 28 61  1  0
 29 30  1  0
 29 62  1  1
 30 31  1  0
 30 32  1  0
 31 63  1  0
 31 64  1  0
 31 65  1  0
 32 66  1  0
 32 67  1  0
 32 68  1  0
M  END
>  <i_m_ct_stereo_status>  (31) 
1

>  <s_m_source_file>  (31) 
/var/tmp/pbs.5076255.sched01/tmpu3exd1vk/0t_9me_9p.sdf

>  <i_m_source_file_index>  (31) 
12

>  <i_lp_mmshare_version>  (31) 
48012

>  <i_f3d_flags>  (31) 
0

>  <s_epik_input>  (31) 
W09IXVtDQEhdMVtDSDJdL1tDSF09QyhDMihbQ0gzXSlbQ0gzXSlcW0NASF0oT1tDQEhdM1tDSDNdKVtDQEBdKE9bQ0gzXSkoW0NIMl1bQ0BIXTRbQ0gzXSlbQ0BIXTNbQ0BASF0oW09IXSlbQ0BIXTJbQ0BdKFtDSF00W0NAXTE1NikoW0NIM10pQzU9W0NIXUMoPU8pT1tDSDJdNg==

>  <s_epik_cmdline>  (31) 
J2VwaWtfcHl0aG9uJywgJy1waHQnLCAnMi4wJywgJy1waCcsICc3LjAnLCAnLXRuJywgJzgnLCAnLW1hJywgJzIwMCcsICctaW1hZScsICc8aW5maWxlLm1hZT4nLCAnLW9tYWUnLCAnPG91dGZpbGUubWFlPic=

>  <r_lp_tautomer_probability>  (31) 
1

>  <r_epik_Ionization_Penalty>  (31) 
1.02834e-07

>  <r_epik_Ionization_Penalty_Charging>  (31) 
0

>  <r_epik_Ionization_Penalty_Neutral>  (31) 
1.02834e-07

>  <r_epik_State_Penalty>  (31) 
-0

>  <r_epik_Charging_Adjusted_Penalty>  (31) 
0

>  <i_epik_Tot_Q>  (31) 
0

>  <i_epik_Tot_abs_Q>  (31) 
0

>  <s_epik_Chemistry_Notes>  (31) 
This compound has an ester and may undergo hydrolysis at high or low pH.

>  <s_lp_Force_Field>  (31) 
OPLS3e

>  <r_lp_Energy>  (31) 
154.067

>  <b_lp_Chiralities_Consistent>  (31) 
1

>  <s_lp_Variant>  (31) 
9:0-1

>  <s_i_glide_gridfile>  (31) 
pfpi4k_grid

>  <i_i_glide_lignum>  (31) 
12

>  <i_i_glide_rotatable_bonds>  (31) 
3

>  <r_i_docking_score>  (31) 
-3.01457

>  <r_i_glide_ligand_efficiency>  (31) 
-0.0942054

>  <r_i_glide_ligand_efficiency_sa>  (31) 
-0.299084

>  <r_i_glide_ligand_efficiency_ln>  (31) 
-0.675045

>  <r_i_glide_gscore>  (31) 
-3.01457

>  <r_i_glide_lipo>  (31) 
-0.505967

>  <r_i_glide_hbond>  (31) 
-0.35346

>  <r_i_glide_metal>  (31) 
-0

>  <r_i_glide_rewards>  (31) 
-0.377997

>  <r_i_glide_evdw>  (31) 
-16.3017

>  <r_i_glide_ecoul>  (31) 
-6.38578

>  <r_i_glide_erotb>  (31) 
0

>  <r_i_glide_esite>  (31) 
-0.00419528

>  <r_i_glide_emodel>  (31) 
-12.8322

>  <r_i_glide_energy>  (31) 
-22.6875

>  <r_i_glide_einternal>  (31) 
23.4844

>  <r_i_glide_intrahb_reward>  (31) 
-0

>  <i_i_glide_confnum>  (31) 
1

>  <i_i_glide_posenum>  (31) 
37

>  <r_i_glide_eff_state_penalty>  (31) 
0

>  <ligand_id>  (31) 
9

>  <original_smiles>  (31) 
COC12CC(C)C3C4(C)C5=CC(=O)OCC53C(O)CC=C3C1OC(C)C2C(O)C4C3(C)C

>  <smiles>  (31) 
[H]OC1([H])C2([H])C([H])(C([H])([H])[H])OC3([H])C4=C([H])C([H])([H])C([H])(O[H])C56C(=C([H])C(=O)OC5([H])[H])C(C([H])([H])[H])(C1([H])C4(C([H])([H])[H])C([H])([H])[H])C6([H])C([H])(C([H])([H])[H])C([H])([H])C32OC([H])([H])[H]

$$$$
9:0:1
     RDKit          3D

 68 73  0  0  1  0  0  0  0  0999 V2000
    5.0961   -3.3036    5.7558 C   0  0  0  0  0  0  0  0  0  0  0  0
    5.4068   -3.6453    4.4069 O   0  0  0  0  0  0  0  0  0  0  0  0
    4.8416   -4.8332    3.8159 C   0  0  1  0  0  0  0  0  0  0  0  0
    5.7428   -5.9410    4.4466 C   0  0  0  0  0  0  0  0  0  0  0  0
    5.2437   -7.1244    5.2425 C   0  0  1  0  0  0  0  0  0  0  0  0
    4.9522   -6.8689    6.7347 C   0  0  0  0  0  0  0  0  0  0  0  0
    4.3807   -8.1353    4.4864 C   0  0  2  0  0  0  0  0  0  0  0  0
    4.0791   -8.2490    2.9323 C   0  0  1  0  0  0  0  0  0  0  0  0
    5.0443   -9.2355    2.2218 C   0  0  0  0  0  0  0  0  0  0  0  0
    2.8863   -9.0627    3.5245 C   0  0  0  0  0  0  0  0  0  0  0  0
    2.2584  -10.1541    3.0338 C   0  0  0  0  0  0  0  0  0  0  0  0
    1.5519  -11.0517    3.9683 C   0  0  0  0  0  0  0  0  0  0  0  0
    0.6396  -11.8020    3.6205 O   0  0  0  0  0  0  0  0  0  0  0  0
    1.9827  -10.9620    5.2697 O   0  0  0  0  0  0  0  0  0  0  0  0
    3.1757  -10.2523    5.6038 C   0  0  0  0  0  0  0  0  0  0  0  0
    3.0985   -8.8167    5.0308 C   0  0  1  0  0  0  0  0  0  0  0  0
    1.9471   -8.0719    5.8323 C   0  0  1  0  0  0  0  0  0  0  0  0
    2.1779   -8.1494    7.2259 O   0  0  0  0  0  0  0  0  0  0  0  0
    1.6322   -6.5722    5.5907 C   0  0  0  0  0  0  0  0  0  0  0  0
    1.4243   -6.3963    4.1331 C   0  0  0  0  0  0  0  0  0  0  0  0
    2.2863   -5.7932    3.2873 C   0  0  0  0  0  0  0  0  0  0  0  0
    3.2723   -4.6773    3.7679 C   0  0  2  0  0  0  0  0  0  0  0  0
    3.1693   -3.5494    2.8859 O   0  0  0  0  0  0  0  0  0  0  0  0
    4.2490   -3.5098    1.9417 C   0  0  1  0  0  0  0  0  0  0  0  0
    4.9003   -2.1087    1.9597 C   0  0  0  0  0  0  0  0  0  0  0  0
    5.1506   -4.7011    2.3349 C   0  0  2  0  0  0  0  0  0  0  0  0
    4.9210   -6.0169    1.5012 C   0  0  1  0  0  0  0  0  0  0  0  0
    6.1619   -6.6518    1.2758 O   0  0  0  0  0  0  0  0  0  0  0  0
    3.7574   -7.0585    1.8419 C   0  0  2  0  0  0  0  0  0  0  0  0
    2.3439   -6.3596    1.8621 C   0  0  0  0  0  0  0  0  0  0  0  0
    1.2096   -7.3805    1.4833 C   0  0  0  0  0  0  0  0  0  0  0  0
    2.0642   -5.3003    0.7431 C   0  0  0  0  0  0  0  0  0  0  0  0
    5.8076   -2.5495    6.0925 H   0  0  0  0  0  0  0  0  0  0  0  0
    5.1779   -4.1460    6.4386 H   0  0  0  0  0  0  0  0  0  0  0  0
    4.1017   -2.8689    5.8465 H   0  0  0  0  0  0  0  0  0  0  0  0
    6.3836   -6.3597    3.6786 H   0  0  0  0  0  0  0  0  0  0  0  0
    6.4954   -5.4633    5.0759 H   0  0  0  0  0  0  0  0  0  0  0  0
    6.1940   -7.6506    5.3759 H   0  0  0  0  0  0  0  0  0  0  0  0
    4.1285   -6.1937    6.9267 H   0  0  0  0  0  0  0  0  0  0  0  0
    5.8220   -6.4169    7.2152 H   0  0  0  0  0  0  0  0  0  0  0  0
    4.7611   -7.8028    7.2616 H   0  0  0  0  0  0  0  0  0  0  0  0
    5.0418   -8.9921    4.5945 H   0  0  0  0  0  0  0  0  0  0  0  0
    6.0790   -8.9055    2.3021 H   0  0  0  0  0  0  0  0  0  0  0  0
    4.8291   -9.3750    1.1638 H   0  0  0  0  0  0  0  0  0  0  0  0
    5.0348  -10.2289    2.6671 H   0  0  0  0  0  0  0  0  0  0  0  0
    2.2910  -10.4251    1.9939 H   0  0  0  0  0  0  0  0  0  0  0  0
    3.3184  -10.2818    6.6851 H   0  0  0  0  0  0  0  0  0  0  0  0
    4.0141  -10.8119    5.1861 H   0  0  0  0  0  0  0  0  0  0  0  0
    1.0098   -8.6093    5.6705 H   0  0  0  0  0  0  0  0  0  0  0  0
    2.2234   -9.0662    7.4671 H   0  0  0  0  0  0  0  0  0  0  0  0
    0.7044   -6.3085    6.1049 H   0  0  0  0  0  0  0  0  0  0  0  0
    2.3846   -5.9016    5.9775 H   0  0  0  0  0  0  0  0  0  0  0  0
    0.6890   -7.1047    3.8045 H   0  0  0  0  0  0  0  0  0  0  0  0
    2.8962   -4.3093    4.7174 H   0  0  0  0  0  0  0  0  0  0  0  0
    3.9093   -3.6127    0.9174 H   0  0  0  0  0  0  0  0  0  0  0  0
    5.7657   -2.0687    1.2982 H   0  0  0  0  0  0  0  0  0  0  0  0
    5.2222   -1.7885    2.9491 H   0  0  0  0  0  0  0  0  0  0  0  0
    4.1886   -1.3616    1.6062 H   0  0  0  0  0  0  0  0  0  0  0  0
    6.1883   -4.3893    2.1951 H   0  0  0  0  0  0  0  0  0  0  0  0
    4.7452   -5.6725    0.4886 H   0  0  0  0  0  0  0  0  0  0  0  0
    6.4608   -7.0384    2.0856 H   0  0  0  0  0  0  0  0  0  0  0  0
    3.6873   -7.5906    0.8912 H   0  0  0  0  0  0  0  0  0  0  0  0
    1.3849   -7.8018    0.4961 H   0  0  0  0  0  0  0  0  0  0  0  0
    0.2298   -6.9002    1.4484 H   0  0  0  0  0  0  0  0  0  0  0  0
    1.0597   -8.2248    2.1315 H   0  0  0  0  0  0  0  0  0  0  0  0
    2.8221   -5.2472   -0.0328 H   0  0  0  0  0  0  0  0  0  0  0  0
    1.8585   -4.3074    1.1304 H   0  0  0  0  0  0  0  0  0  0  0  0
    1.1757   -5.5048    0.1484 H   0  0  0  0  0  0  0  0  0  0  0  0
  1  2  1  0
  1 33  1  0
  1 34  1  0
  1 35  1  0
  3  2  1  1
  3 22  1  0
  3 26  1  0
  3  4  1  0
  4  5  1  0
  4 36  1  0
  4 37  1  0
  5  6  1  0
  5  7  1  0
  5 38  1  1
  6 39  1  0
  6 40  1  0
  6 41  1  0
  7 16  1  0
  7  8  1  0
  7 42  1  6
  8 29  1  0
  8  9  1  6
  8 10  1  0
  9 43  1  0
  9 44  1  0
  9 45  1  0
 10 16  1  0
 10 11  2  0
 11 12  1  0
 11 46  1  0
 12 13  2  0
 12 14  1  0
 14 15  1  0
 16 15  1  1
 15 47  1  0
 15 48  1  0
 16 17  1  0
 17 18  1  0
 17 19  1  0
 17 49  1  1
 18 50  1  0
 19 20  1  0
 19 51  1  0
 19 52  1  0
 20 21  2  3
 20 53  1  0
 21 30  1  0
 21 22  1  0
 22 23  1  0
 22 54  1  1
 23 24  1  0
 24 25  1  0
 24 26  1  0
 24 55  1  6
 25 56  1  0
 25 57  1  0
 25 58  1  0
 26 27  1  0
 26 59  1  1
 27 28  1  0
 27 29  1  0
 27 60  1  6
 28 61  1  0
 29 30  1  0
 29 62  1  6
 30 31  1  0
 30 32  1  0
 31 63  1  0
 31 64  1  0
 31 65  1  0
 32 66  1  0
 32 67  1  0
 32 68  1  0
M  END
>  <i_m_ct_stereo_status>  (32) 
1

>  <s_m_source_file>  (32) 
/var/tmp/pbs.5076255.sched01/tmpu3exd1vk/0t_9me_9p.sdf

>  <i_m_source_file_index>  (32) 
12

>  <i_lp_mmshare_version>  (32) 
48012

>  <i_f3d_flags>  (32) 
0

>  <s_epik_input>  (32) 
W09IXVtDQEhdMVtDSDJdL1tDSF09QyhDMihbQ0gzXSlbQ0gzXSlcW0NASF0oT1tDQEhdM1tDSDNdKVtDQEBdKE9bQ0gzXSkoW0NIMl1bQ0BIXTRbQ0gzXSlbQ0BIXTNbQ0BASF0oW09IXSlbQ0BIXTJbQ0BdKFtDSF00W0NAXTE1NikoW0NIM10pQzU9W0NIXUMoPU8pT1tDSDJdNg==

>  <s_epik_cmdline>  (32) 
J2VwaWtfcHl0aG9uJywgJy1waHQnLCAnMi4wJywgJy1waCcsICc3LjAnLCAnLXRuJywgJzgnLCAnLW1hJywgJzIwMCcsICctaW1hZScsICc8aW5maWxlLm1hZT4nLCAnLW9tYWUnLCAnPG91dGZpbGUubWFlPic=

>  <r_lp_tautomer_probability>  (32) 
1

>  <r_epik_Ionization_Penalty>  (32) 
1.02834e-07

>  <r_epik_Ionization_Penalty_Charging>  (32) 
0

>  <r_epik_Ionization_Penalty_Neutral>  (32) 
1.02834e-07

>  <r_epik_State_Penalty>  (32) 
-0

>  <r_epik_Charging_Adjusted_Penalty>  (32) 
0

>  <i_epik_Tot_Q>  (32) 
0

>  <i_epik_Tot_abs_Q>  (32) 
0

>  <s_epik_Chemistry_Notes>  (32) 
This compound has an ester and may undergo hydrolysis at high or low pH.

>  <s_lp_Force_Field>  (32) 
OPLS3e

>  <r_lp_Energy>  (32) 
154.067

>  <b_lp_Chiralities_Consistent>  (32) 
1

>  <s_lp_Variant>  (32) 
9:0-1

>  <s_i_glide_gridfile>  (32) 
pfpi4k_grid

>  <i_i_glide_lignum>  (32) 
12

>  <i_i_glide_rotatable_bonds>  (32) 
3

>  <r_i_docking_score>  (32) 
-1.75498

>  <r_i_glide_ligand_efficiency>  (32) 
-0.0548432

>  <r_i_glide_ligand_efficiency_sa>  (32) 
-0.174116

>  <r_i_glide_ligand_efficiency_ln>  (32) 
-0.392988

>  <r_i_glide_gscore>  (32) 
-1.75498

>  <r_i_glide_lipo>  (32) 
-0.218056

>  <r_i_glide_hbond>  (32) 
0

>  <r_i_glide_metal>  (32) 
-0

>  <r_i_glide_rewards>  (32) 
-0.480498

>  <r_i_glide_evdw>  (32) 
-20.4041

>  <r_i_glide_ecoul>  (32) 
-0.241501

>  <r_i_glide_erotb>  (32) 
0

>  <r_i_glide_esite>  (32) 
0

>  <r_i_glide_emodel>  (32) 
-22.9099

>  <r_i_glide_energy>  (32) 
-20.6456

>  <r_i_glide_einternal>  (32) 
0.337092

>  <r_i_glide_intrahb_reward>  (32) 
-0

>  <i_i_glide_confnum>  (32) 
1

>  <i_i_glide_posenum>  (32) 
26

>  <r_i_glide_eff_state_penalty>  (32) 
0

>  <ligand_id>  (32) 
9

>  <original_smiles>  (32) 
COC12CC(C)C3C4(C)C5=CC(=O)OCC53C(O)CC=C3C1OC(C)C2C(O)C4C3(C)C

>  <smiles>  (32) 
[H]OC1([H])C2([H])C([H])(C([H])([H])[H])OC3([H])C4=C([H])C([H])([H])C([H])(O[H])C56C(=C([H])C(=O)OC5([H])[H])C(C([H])([H])[H])(C1([H])C4(C([H])([H])[H])C([H])([H])[H])C6([H])C([H])(C([H])([H])[H])C([H])([H])C32OC([H])([H])[H]

$$$$
9:0:2
     RDKit          3D

 68 73  0  0  1  0  0  0  0  0999 V2000
    4.8505   -2.0959    4.4467 C   0  0  0  0  0  0  0  0  0  0  0  0
    5.1522   -2.6487    3.1681 O   0  0  0  0  0  0  0  0  0  0  0  0
    4.5595   -3.8991    2.7686 C   0  0  1  0  0  0  0  0  0  0  0  0
    5.4370   -4.9268    3.5446 C   0  0  0  0  0  0  0  0  0  0  0  0
    4.9381   -5.9706    4.5132 C   0  0  1  0  0  0  0  0  0  0  0  0
    4.6754   -5.4869    5.9544 C   0  0  0  0  0  0  0  0  0  0  0  0
    4.0515   -7.0531    3.9296 C   0  0  2  0  0  0  0  0  0  0  0  0
    3.7444   -7.3959    2.4155 C   0  0  1  0  0  0  0  0  0  0  0  0
    4.6657   -8.4944    1.8444 C   0  0  0  0  0  0  0  0  0  0  0  0
    2.5232   -8.0816    3.1378 C   0  0  0  0  0  0  0  0  0  0  0  0
    1.8883   -9.2380    2.8012 C   0  0  0  0  0  0  0  0  0  0  0  0
    1.1819   -9.9948    3.8821 C   0  0  0  0  0  0  0  0  0  0  0  0
    0.2713  -10.7782    3.6163 O   0  0  0  0  0  0  0  0  0  0  0  0
    1.6152   -9.6912    5.1328 O   0  0  0  0  0  0  0  0  0  0  0  0
    2.8137   -8.9610    5.3638 C   0  0  0  0  0  0  0  0  0  0  0  0
    2.7765   -7.6374    4.5930 C   0  0  1  0  0  0  0  0  0  0  0  0
    1.6411   -6.7523    5.2773 C   0  0  1  0  0  0  0  0  0  0  0  0
    1.8983   -6.6145    6.6647 O   0  0  0  0  0  0  0  0  0  0  0  0
    1.3540   -5.2923    4.8198 C   0  0  0  0  0  0  0  0  0  0  0  0
    1.1369   -5.3428    3.3551 C   0  0  0  0  0  0  0  0  0  0  0  0
    1.9910   -4.8897    2.4176 C   0  0  0  0  0  0  0  0  0  0  0  0
    2.9974   -3.7237    2.7081 C   0  0  2  0  0  0  0  0  0  0  0  0
    2.8990   -2.7375    1.6753 O   0  0  0  0  0  0  0  0  0  0  0  0
    3.9709   -2.8518    0.7296 C   0  0  1  0  0  0  0  0  0  0  0  0
    4.6434   -1.4768    0.5285 C   0  0  0  0  0  0  0  0  0  0  0  0
    4.8554   -3.9892    1.2828 C   0  0  2  0  0  0  0  0  0  0  0  0
    4.5894   -5.4081    0.6616 C   0  0  1  0  0  0  0  0  0  0  0  0
    5.8137   -6.0867    0.5273 O   0  0  0  0  0  0  0  0  0  0  0  0
    3.4159   -6.3781    1.1680 C   0  0  2  0  0  0  0  0  0  0  0  0
    2.0195   -5.6609    1.0814 C   0  0  0  0  0  0  0  0  0  0  0  0
    0.8237   -6.6873    0.9028 C   0  0  0  0  0  0  0  0  0  0  0  0
    1.8122   -4.7820   -0.1961 C   0  0  0  0  0  0  0  0  0  0  0  0
    5.5767   -1.3125    4.6672 H   0  0  0  0  0  0  0  0  0  0  0  0
    4.9145   -2.8255    5.2502 H   0  0  0  0  0  0  0  0  0  0  0  0
    3.8670   -1.6301    4.4662 H   0  0  0  0  0  0  0  0  0  0  0  0
    6.0761   -5.4562    2.8447 H   0  0  0  0  0  0  0  0  0  0  0  0
    6.1735   -4.3676    4.1132 H   0  0  0  0  0  0  0  0  0  0  0  0
    5.8819   -6.4819    4.7072 H   0  0  0  0  0  0  0  0  0  0  0  0
    3.8712   -4.7691    6.0523 H   0  0  0  0  0  0  0  0  0  0  0  0
    5.5616   -4.9816    6.3473 H   0  0  0  0  0  0  0  0  0  0  0  0
    4.4900   -6.3277    6.6187 H   0  0  0  0  0  0  0  0  0  0  0  0
    4.7014   -7.9073    4.1561 H   0  0  0  0  0  0  0  0  0  0  0  0
    5.7090   -8.1671    1.8622 H   0  0  0  0  0  0  0  0  0  0  0  0
    4.4352   -8.7871    0.8232 H   0  0  0  0  0  0  0  0  0  0  0  0
    4.6524   -9.4089    2.4326 H   0  0  0  0  0  0  0  0  0  0  0  0
    1.8909   -9.6520    1.8118 H   0  0  0  0  0  0  0  0  0  0  0  0
    2.9771   -8.8295    6.4357 H   0  0  0  0  0  0  0  0  0  0  0  0
    3.6421   -9.5908    5.0289 H   0  0  0  0  0  0  0  0  0  0  0  0
    0.6956   -7.2822    5.2121 H   0  0  0  0  0  0  0  0  0  0  0  0
    2.7421   -6.2151    6.7604 H   0  0  0  0  0  0  0  0  0  0  0  0
    0.4282   -4.9416    5.2913 H   0  0  0  0  0  0  0  0  0  0  0  0
    2.1180   -4.5816    5.0916 H   0  0  0  0  0  0  0  0  0  0  0  0
    0.3873   -6.0776    3.1576 H   0  0  0  0  0  0  0  0  0  0  0  0
    2.6364   -3.2156    3.6015 H   0  0  0  0  0  0  0  0  0  0  0  0
    3.6396   -3.0880   -0.2754 H   0  0  0  0  0  0  0  0  0  0  0  0
    5.4971   -1.5559   -0.1426 H   0  0  0  0  0  0  0  0  0  0  0  0
    4.9820   -1.0205    1.4568 H   0  0  0  0  0  0  0  0  0  0  0  0
    3.9348   -0.7816    0.0746 H   0  0  0  0  0  0  0  0  0  0  0  0
    5.8953   -3.7274    1.0858 H   0  0  0  0  0  0  0  0  0  0  0  0
    4.4194   -5.2243   -0.3923 H   0  0  0  0  0  0  0  0  0  0  0  0
    5.6647   -6.8452   -0.0019 H   0  0  0  0  0  0  0  0  0  0  0  0
    3.3570   -7.0369    0.3131 H   0  0  0  0  0  0  0  0  0  0  0  0
    0.8818   -7.2701   -0.0005 H   0  0  0  0  0  0  0  0  0  0  0  0
   -0.1465   -6.1986    0.8328 H   0  0  0  0  0  0  0  0  0  0  0  0
    0.6915   -7.4278    1.6743 H   0  0  0  0  0  0  0  0  0  0  0  0
    2.5515   -4.8400   -0.9715 H   0  0  0  0  0  0  0  0  0  0  0  0
    1.6872   -3.7246    0.0019 H   0  0  0  0  0  0  0  0  0  0  0  0
    0.9020   -5.0481   -0.7349 H   0  0  0  0  0  0  0  0  0  0  0  0
  1  2  1  0
  1 33  1  0
  1 34  1  0
  1 35  1  0
  3  2  1  1
  3 22  1  0
  3 26  1  0
  3  4  1  0
  4  5  1  0
  4 36  1  0
  4 37  1  0
  5  6  1  0
  5  7  1  0
  5 38  1  1
  6 39  1  0
  6 40  1  0
  6 41  1  0
  7 16  1  0
  7  8  1  0
  7 42  1  1
  8 29  1  0
  8  9  1  6
  8 10  1  0
  9 43  1  0
  9 44  1  0
  9 45  1  0
 10 16  1  0
 10 11  2  0
 11 12  1  0
 11 46  1  0
 12 13  2  0
 12 14  1  0
 14 15  1  0
 16 15  1  1
 15 47  1  0
 15 48  1  0
 16 17  1  0
 17 18  1  0
 17 19  1  0
 17 49  1  1
 18 50  1  0
 19 20  1  0
 19 51  1  0
 19 52  1  0
 20 21  2  3
 20 53  1  0
 21 30  1  0
 21 22  1  0
 22 23  1  0
 22 54  1  1
 23 24  1  0
 24 25  1  0
 24 26  1  0
 24 55  1  6
 25 56  1  0
 25 57  1  0
 25 58  1  0
 26 27  1  0
 26 59  1  1
 27 28  1  0
 27 29  1  0
 27 60  1  6
 28 61  1  0
 29 30  1  0
 29 62  1  6
 30 31  1  0
 30 32  1  0
 31 63  1  0
 31 64  1  0
 31 65  1  0
 32 66  1  0
 32 67  1  0
 32 68  1  0
M  END
>  <i_m_ct_stereo_status>  (33) 
1

>  <s_m_source_file>  (33) 
/var/tmp/pbs.5076255.sched01/tmpu3exd1vk/0t_9me_9p.sdf

>  <i_m_source_file_index>  (33) 
12

>  <i_lp_mmshare_version>  (33) 
48012

>  <i_f3d_flags>  (33) 
0

>  <s_epik_input>  (33) 
W09IXVtDQEhdMVtDSDJdL1tDSF09QyhDMihbQ0gzXSlbQ0gzXSlcW0NASF0oT1tDQEhdM1tDSDNdKVtDQEBdKE9bQ0gzXSkoW0NIMl1bQ0BIXTRbQ0gzXSlbQ0BIXTNbQ0BASF0oW09IXSlbQ0BIXTJbQ0BdKFtDSF00W0NAXTE1NikoW0NIM10pQzU9W0NIXUMoPU8pT1tDSDJdNg==

>  <s_epik_cmdline>  (33) 
J2VwaWtfcHl0aG9uJywgJy1waHQnLCAnMi4wJywgJy1waCcsICc3LjAnLCAnLXRuJywgJzgnLCAnLW1hJywgJzIwMCcsICctaW1hZScsICc8aW5maWxlLm1hZT4nLCAnLW9tYWUnLCAnPG91dGZpbGUubWFlPic=

>  <r_lp_tautomer_probability>  (33) 
1

>  <r_epik_Ionization_Penalty>  (33) 
1.02834e-07

>  <r_epik_Ionization_Penalty_Charging>  (33) 
0

>  <r_epik_Ionization_Penalty_Neutral>  (33) 
1.02834e-07

>  <r_epik_State_Penalty>  (33) 
-0

>  <r_epik_Charging_Adjusted_Penalty>  (33) 
0

>  <i_epik_Tot_Q>  (33) 
0

>  <i_epik_Tot_abs_Q>  (33) 
0

>  <s_epik_Chemistry_Notes>  (33) 
This compound has an ester and may undergo hydrolysis at high or low pH.

>  <s_lp_Force_Field>  (33) 
OPLS3e

>  <r_lp_Energy>  (33) 
154.067

>  <b_lp_Chiralities_Consistent>  (33) 
1

>  <s_lp_Variant>  (33) 
9:0-1

>  <s_i_glide_gridfile>  (33) 
pfpi4k_grid

>  <i_i_glide_lignum>  (33) 
12

>  <i_i_glide_rotatable_bonds>  (33) 
3

>  <r_i_docking_score>  (33) 
-1.27085

>  <r_i_glide_ligand_efficiency>  (33) 
-0.0397141

>  <r_i_glide_ligand_efficiency_sa>  (33) 
-0.126084

>  <r_i_glide_ligand_efficiency_ln>  (33) 
-0.284578

>  <r_i_glide_gscore>  (33) 
-1.27085

>  <r_i_glide_lipo>  (33) 
-0.21699

>  <r_i_glide_hbond>  (33) 
0

>  <r_i_glide_metal>  (33) 
-0

>  <r_i_glide_rewards>  (33) 
-0.377997

>  <r_i_glide_evdw>  (33) 
-18.1935

>  <r_i_glide_ecoul>  (33) 
1.58253

>  <r_i_glide_erotb>  (33) 
0

>  <r_i_glide_esite>  (33) 
-0.00356691

>  <r_i_glide_emodel>  (33) 
-17.7348

>  <r_i_glide_energy>  (33) 
-16.611

>  <r_i_glide_einternal>  (33) 
0.35989

>  <r_i_glide_intrahb_reward>  (33) 
-0

>  <i_i_glide_confnum>  (33) 
1

>  <i_i_glide_posenum>  (33) 
1

>  <r_i_glide_eff_state_penalty>  (33) 
0

>  <ligand_id>  (33) 
9

>  <original_smiles>  (33) 
COC12CC(C)C3C4(C)C5=CC(=O)OCC53C(O)CC=C3C1OC(C)C2C(O)C4C3(C)C

>  <smiles>  (33) 
[H]OC1([H])C2([H])C([H])(C([H])([H])[H])OC3([H])C4=C([H])C([H])([H])C([H])(O[H])C56C(=C([H])C(=O)OC5([H])[H])C(C([H])([H])[H])(C1([H])C4(C([H])([H])[H])C([H])([H])[H])C6([H])C([H])(C([H])([H])[H])C([H])([H])C32OC([H])([H])[H]

$$$$
9:1:0
     RDKit          3D

 68 73  0  0  1  0  0  0  0  0999 V2000
    1.8102   -2.9496    5.9669 C   0  0  0  0  0  0  0  0  0  0  0  0
    2.0430   -4.2246    5.3443 O   0  0  0  0  0  0  0  0  0  0  0  0
    2.7993   -4.3211    4.1169 C   0  0  1  0  0  0  0  0  0  0  0  0
    1.8949   -3.6097    3.0615 C   0  0  0  0  0  0  0  0  0  0  0  0
    2.3245   -2.3918    2.2057 C   0  0  1  0  0  0  0  0  0  0  0  0
    2.2820   -1.0216    2.9364 C   0  0  0  0  0  0  0  0  0  0  0  0
    3.1671   -2.6285    0.8950 C   0  0  2  0  0  0  0  0  0  0  0  0
    3.3599   -4.0817    0.4641 C   0  0  1  0  0  0  0  0  0  0  0  0
    2.1350   -4.7692   -0.1744 C   0  0  0  0  0  0  0  0  0  0  0  0
    4.0173   -3.2280   -0.5998 C   0  0  0  0  0  0  0  0  0  0  0  0
    3.7925   -3.1430   -1.9504 C   0  0  0  0  0  0  0  0  0  0  0  0
    4.4462   -2.0570   -2.6681 C   0  0  0  0  0  0  0  0  0  0  0  0
    4.2161   -1.7617   -3.8315 O   0  0  0  0  0  0  0  0  0  0  0  0
    5.3731   -1.4535   -1.9083 O   0  0  0  0  0  0  0  0  0  0  0  0
    5.8018   -2.1723   -0.7412 C   0  0  0  0  0  0  0  0  0  0  0  0
    4.7266   -2.2970    0.4515 C   0  0  2  0  0  0  0  0  0  0  0  0
    5.0007   -0.8428    0.9072 C   0  0  1  0  0  0  0  0  0  0  0  0
    3.9105    0.0419    0.9005 O   0  0  0  0  0  0  0  0  0  0  0  0
    5.7479   -1.0020    2.2816 C   0  0  0  0  0  0  0  0  0  0  0  0
    5.2662   -2.1101    3.2590 C   0  0  0  0  0  0  0  0  0  0  0  0
    5.1131   -3.4723    3.2487 C   0  0  0  0  0  0  0  0  0  0  0  0
    4.2903   -4.0019    4.4352 C   0  0  2  0  0  0  0  0  0  0  0  0
    4.8138   -5.1978    5.0233 O   0  0  0  0  0  0  0  0  0  0  0  0
    3.9129   -6.2960    4.8707 C   0  0  1  0  0  0  0  0  0  0  0  0
    3.3090   -6.7041    6.2321 C   0  0  0  0  0  0  0  0  0  0  0  0
    2.9574   -5.8100    3.7580 C   0  0  2  0  0  0  0  0  0  0  0  0
    3.5018   -6.1427    2.2911 C   0  0  1  0  0  0  0  0  0  0  0  0
    2.5318   -6.9189    1.6121 O   0  0  0  0  0  0  0  0  0  0  0  0
    4.2959   -5.0920    1.3610 C   0  0  2  0  0  0  0  0  0  0  0  0
    5.5790   -4.5319    2.1833 C   0  0  0  0  0  0  0  0  0  0  0  0
    6.7866   -4.0615    1.3063 C   0  0  0  0  0  0  0  0  0  0  0  0
    6.4011   -5.7047    2.8216 C   0  0  0  0  0  0  0  0  0  0  0  0
    1.4030   -3.1131    6.9691 H   0  0  0  0  0  0  0  0  0  0  0  0
    1.0573   -2.3577    5.4435 H   0  0  0  0  0  0  0  0  0  0  0  0
    2.7141   -2.3483    6.0782 H   0  0  0  0  0  0  0  0  0  0  0  0
    1.4681   -4.3791    2.4298 H   0  0  0  0  0  0  0  0  0  0  0  0
    0.9659   -3.3038    3.5447 H   0  0  0  0  0  0  0  0  0  0  0  0
    1.3394   -2.2495    1.7536 H   0  0  0  0  0  0  0  0  0  0  0  0
    1.6333   -1.0650    3.8107 H   0  0  0  0  0  0  0  0  0  0  0  0
    1.8344   -0.2503    2.2998 H   0  0  0  0  0  0  0  0  0  0  0  0
    3.2323   -0.6350    3.2901 H   0  0  0  0  0  0  0  0  0  0  0  0
    2.5097   -2.0139    0.2383 H   0  0  0  0  0  0  0  0  0  0  0  0
    1.4045   -5.0985    0.5482 H   0  0  0  0  0  0  0  0  0  0  0  0
    2.4171   -5.6634   -0.7008 H   0  0  0  0  0  0  0  0  0  0  0  0
    1.5794   -4.1153   -0.8556 H   0  0  0  0  0  0  0  0  0  0  0  0
    3.1557   -3.8110   -2.5016 H   0  0  0  0  0  0  0  0  0  0  0  0
    6.1817   -3.1382   -1.0803 H   0  0  0  0  0  0  0  0  0  0  0  0
    6.7292   -1.7050   -0.4159 H   0  0  0  0  0  0  0  0  0  0  0  0
    5.6780   -0.2300    0.3062 H   0  0  0  0  0  0  0  0  0  0  0  0
    3.1817   -0.3977    1.3162 H   0  0  0  0  0  0  0  0  0  0  0  0
    6.8165   -1.1346    2.1225 H   0  0  0  0  0  0  0  0  0  0  0  0
    5.6919   -0.0532    2.8250 H   0  0  0  0  0  0  0  0  0  0  0  0
    4.8876   -1.6205    4.1432 H   0  0  0  0  0  0  0  0  0  0  0  0
    4.3946   -3.2852    5.2442 H   0  0  0  0  0  0  0  0  0  0  0  0
    4.4285   -7.2030    4.5656 H   0  0  0  0  0  0  0  0  0  0  0  0
    2.5105   -7.4397    6.1164 H   0  0  0  0  0  0  0  0  0  0  0  0
    2.9237   -5.8661    6.8092 H   0  0  0  0  0  0  0  0  0  0  0  0
    4.0807   -7.1721    6.8449 H   0  0  0  0  0  0  0  0  0  0  0  0
    1.9995   -6.3172    3.8981 H   0  0  0  0  0  0  0  0  0  0  0  0
    4.2047   -6.9582    2.4197 H   0  0  0  0  0  0  0  0  0  0  0  0
    2.4322   -7.7471    2.0645 H   0  0  0  0  0  0  0  0  0  0  0  0
    4.7478   -5.7380    0.6024 H   0  0  0  0  0  0  0  0  0  0  0  0
    6.7431   -4.5153    0.3165 H   0  0  0  0  0  0  0  0  0  0  0  0
    7.7741   -4.3176    1.6948 H   0  0  0  0  0  0  0  0  0  0  0  0
    6.9261   -3.0017    1.2443 H   0  0  0  0  0  0  0  0  0  0  0  0
    6.8753   -6.3175    2.0540 H   0  0  0  0  0  0  0  0  0  0  0  0
    5.9031   -6.4312    3.4211 H   0  0  0  0  0  0  0  0  0  0  0  0
    7.1863   -5.3333    3.4776 H   0  0  0  0  0  0  0  0  0  0  0  0
  1  2  1  0
  1 33  1  0
  1 34  1  0
  1 35  1  0
  3  2  1  1
  3 22  1  0
  3 26  1  0
  3  4  1  0
  4  5  1  0
  4 36  1  0
  4 37  1  0
  5  6  1  0
  5  7  1  0
  5 38  1  6
  6 39  1  0
  6 40  1  0
  6 41  1  0
  7 16  1  0
  7  8  1  0
  7 42  1  6
  8 29  1  0
  8  9  1  6
  8 10  1  0
  9 43  1  0
  9 44  1  0
  9 45  1  0
 10 16  1  0
 10 11  2  0
 11 12  1  0
 11 46  1  0
 12 13  2  0
 12 14  1  0
 14 15  1  0
 16 15  1  6
 15 47  1  0
 15 48  1  0
 16 17  1  0
 17 18  1  0
 17 19  1  0
 17 49  1  6
 18 50  1  0
 19 20  1  0
 19 51  1  0
 19 52  1  0
 20 21  2  3
 20 53  1  0
 21 30  1  0
 21 22  1  0
 22 23  1  0
 22 54  1  1
 23 24  1  0
 24 25  1  0
 24 26  1  0
 24 55  1  6
 25 56  1  0
 25 57  1  0
 25 58  1  0
 26 27  1  0
 26 59  1  1
 27 28  1  0
 27 29  1  0
 27 60  1  1
 28 61  1  0
 29 30  1  0
 29 62  1  6
 30 31  1  0
 30 32  1  0
 31 63  1  0
 31 64  1  0
 31 65  1  0
 32 66  1  0
 32 67  1  0
 32 68  1  0
M  END
>  <i_m_ct_stereo_status>  (34) 
1

>  <s_m_source_file>  (34) 
/var/tmp/pbs.5076255.sched01/tmpu3exd1vk/0t_9me_9p.sdf

>  <i_m_source_file_index>  (34) 
13

>  <i_lp_mmshare_version>  (34) 
48012

>  <i_f3d_flags>  (34) 
0

>  <s_epik_input>  (34) 
W09IXVtDQEhdMVtDSDJdL1tDSF09QyhDMihbQ0gzXSlbQ0gzXSlcW0NASF0oT1tDQEhdM1tDSDNdKVtDQEBdKE9bQ0gzXSkoW0NIMl1bQ0BIXTRbQ0gzXSlbQ0BIXTNbQ0BASF0oW09IXSlbQ0BIXTJbQ0BdKFtDSF00W0NAXTE1NikoW0NIM10pQzU9W0NIXUMoPU8pT1tDSDJdNg==

>  <s_epik_cmdline>  (34) 
J2VwaWtfcHl0aG9uJywgJy1waHQnLCAnMi4wJywgJy1waCcsICc3LjAnLCAnLXRuJywgJzgnLCAnLW1hJywgJzIwMCcsICctaW1hZScsICc8aW5maWxlLm1hZT4nLCAnLW9tYWUnLCAnPG91dGZpbGUubWFlPic=

>  <r_lp_tautomer_probability>  (34) 
1

>  <r_epik_Ionization_Penalty>  (34) 
1.02834e-07

>  <r_epik_Ionization_Penalty_Charging>  (34) 
0

>  <r_epik_Ionization_Penalty_Neutral>  (34) 
1.02834e-07

>  <r_epik_State_Penalty>  (34) 
-0

>  <r_epik_Charging_Adjusted_Penalty>  (34) 
0

>  <i_epik_Tot_Q>  (34) 
0

>  <i_epik_Tot_abs_Q>  (34) 
0

>  <s_epik_Chemistry_Notes>  (34) 
This compound has an ester and may undergo hydrolysis at high or low pH.

>  <s_lp_Force_Field>  (34) 
OPLS3e

>  <r_lp_Energy>  (34) 
258.692

>  <b_lp_Chiralities_Consistent>  (34) 
1

>  <s_lp_Variant>  (34) 
9:0-2

>  <s_i_glide_gridfile>  (34) 
pfpi4k_grid

>  <i_i_glide_lignum>  (34) 
13

>  <i_i_glide_rotatable_bonds>  (34) 
3

>  <r_i_docking_score>  (34) 
-2.67577

>  <r_i_glide_ligand_efficiency>  (34) 
-0.0836178

>  <r_i_glide_ligand_efficiency_sa>  (34) 
-0.26547

>  <r_i_glide_ligand_efficiency_ln>  (34) 
-0.599178

>  <r_i_glide_gscore>  (34) 
-2.67577

>  <r_i_glide_lipo>  (34) 
-0.539098

>  <r_i_glide_hbond>  (34) 
-0.0266333

>  <r_i_glide_metal>  (34) 
-0

>  <r_i_glide_rewards>  (34) 
-0.458321

>  <r_i_glide_evdw>  (34) 
-23.4696

>  <r_i_glide_ecoul>  (34) 
-3.18826

>  <r_i_glide_erotb>  (34) 
0

>  <r_i_glide_esite>  (34) 
0

>  <r_i_glide_emodel>  (34) 
-28.9609

>  <r_i_glide_energy>  (34) 
-26.6578

>  <r_i_glide_einternal>  (34) 
3.04581

>  <r_i_glide_intrahb_reward>  (34) 
-0

>  <i_i_glide_confnum>  (34) 
1

>  <i_i_glide_posenum>  (34) 
13

>  <r_i_glide_eff_state_penalty>  (34) 
0

>  <ligand_id>  (34) 
9

>  <original_smiles>  (34) 
COC12CC(C)C3C4(C)C5=CC(=O)OCC53C(O)CC=C3C1OC(C)C2C(O)C4C3(C)C

>  <smiles>  (34) 
[H]OC1([H])C2([H])C([H])(C([H])([H])[H])OC3([H])C4=C([H])C([H])([H])C([H])(O[H])C56C(=C([H])C(=O)OC5([H])[H])C(C([H])([H])[H])(C1([H])C4(C([H])([H])[H])C([H])([H])[H])C6([H])C([H])(C([H])([H])[H])C([H])([H])C32OC([H])([H])[H]

$$$$
9:1:1
     RDKit          3D

 68 73  0  0  1  0  0  0  0  0999 V2000
    0.8745   -5.4783    5.6440 C   0  0  0  0  0  0  0  0  0  0  0  0
    2.0952   -4.7489    5.4438 O   0  0  0  0  0  0  0  0  0  0  0  0
    2.7827   -4.8045    4.1722 C   0  0  1  0  0  0  0  0  0  0  0  0
    1.8493   -4.0046    3.2218 C   0  0  0  0  0  0  0  0  0  0  0  0
    2.2200   -2.7137    2.4545 C   0  0  1  0  0  0  0  0  0  0  0  0
    2.1022   -1.4121    3.2882 C   0  0  0  0  0  0  0  0  0  0  0  0
    3.0305   -2.8016    1.1037 C   0  0  2  0  0  0  0  0  0  0  0  0
    3.2884   -4.2080    0.5628 C   0  0  1  0  0  0  0  0  0  0  0  0
    2.0918   -4.9075   -0.1099 C   0  0  0  0  0  0  0  0  0  0  0  0
    3.8840   -3.2303   -0.4546 C   0  0  0  0  0  0  0  0  0  0  0  0
    3.6428   -3.0633   -1.7872 C   0  0  0  0  0  0  0  0  0  0  0  0
    4.2413   -1.9033   -2.4433 C   0  0  0  0  0  0  0  0  0  0  0  0
    3.9662   -1.5313   -3.5863 O   0  0  0  0  0  0  0  0  0  0  0  0
    5.1469   -1.3115   -1.6596 O   0  0  0  0  0  0  0  0  0  0  0  0
    5.6187   -2.0819   -0.5360 C   0  0  0  0  0  0  0  0  0  0  0  0
    4.5638   -2.3503    0.6633 C   0  0  2  0  0  0  0  0  0  0  0  0
    4.7691   -0.9250    1.2286 C   0  0  1  0  0  0  0  0  0  0  0  0
    3.6318   -0.0964    1.2913 O   0  0  0  0  0  0  0  0  0  0  0  0
    5.5412   -1.1479    2.5818 C   0  0  0  0  0  0  0  0  0  0  0  0
    5.1193   -2.3380    3.4901 C   0  0  0  0  0  0  0  0  0  0  0  0
    5.0321   -3.7020    3.3769 C   0  0  0  0  0  0  0  0  0  0  0  0
    4.2307   -4.3711    4.5202 C   0  0  2  0  0  0  0  0  0  0  0  0
    4.8543   -5.5542    5.0380 O   0  0  0  0  0  0  0  0  0  0  0  0
    4.0519   -6.7131    4.7899 C   0  0  1  0  0  0  0  0  0  0  0  0
    3.5148   -7.2557    6.1312 C   0  0  0  0  0  0  0  0  0  0  0  0
    3.0497   -6.2380    3.7074 C   0  0  2  0  0  0  0  0  0  0  0  0
    3.5951   -6.3977    2.2217 C   0  0  1  0  0  0  0  0  0  0  0  0
    2.6563   -7.1657    1.4942 O   0  0  0  0  0  0  0  0  0  0  0  0
    4.2981   -5.2222    1.3758 C   0  0  2  0  0  0  0  0  0  0  0  0
    5.5547   -4.6486    2.2271 C   0  0  0  0  0  0  0  0  0  0  0  0
    6.7243   -4.0513    1.3684 C   0  0  0  0  0  0  0  0  0  0  0  0
    6.4601   -5.8138    2.7698 C   0  0  0  0  0  0  0  0  0  0  0  0
    0.4774   -5.2189    6.6245 H   0  0  0  0  0  0  0  0  0  0  0  0
    1.0161   -6.5562    5.6590 H   0  0  0  0  0  0  0  0  0  0  0  0
    0.1013   -5.2668    4.9070 H   0  0  0  0  0  0  0  0  0  0  0  0
    1.3792   -4.7153    2.5558 H   0  0  0  0  0  0  0  0  0  0  0  0
    0.9920   -3.6840    3.8082 H   0  0  0  0  0  0  0  0  0  0  0  0
    1.2135   -2.5934    2.0496 H   0  0  0  0  0  0  0  0  0  0  0  0
    1.4935   -1.5786    4.1790 H   0  0  0  0  0  0  0  0  0  0  0  0
    1.5863   -0.6270    2.7257 H   0  0  0  0  0  0  0  0  0  0  0  0
    3.0318   -0.9865    3.6442 H   0  0  0  0  0  0  0  0  0  0  0  0
    2.3176   -2.1904    0.5046 H   0  0  0  0  0  0  0  0  0  0  0  0
    1.4046   -5.3305    0.5992 H   0  0  0  0  0  0  0  0  0  0  0  0
    2.4047   -5.7434   -0.7167 H   0  0  0  0  0  0  0  0  0  0  0  0
    1.4964   -4.2432   -0.7398 H   0  0  0  0  0  0  0  0  0  0  0  0
    3.0392   -3.7282   -2.3868 H   0  0  0  0  0  0  0  0  0  0  0  0
    6.0495   -2.9916   -0.9485 H   0  0  0  0  0  0  0  0  0  0  0  0
    6.5191   -1.5758   -0.1928 H   0  0  0  0  0  0  0  0  0  0  0  0
    5.4077   -0.2360    0.6679 H   0  0  0  0  0  0  0  0  0  0  0  0
    2.9056   -0.6133    1.5993 H   0  0  0  0  0  0  0  0  0  0  0  0
    6.6149   -1.2167    2.4086 H   0  0  0  0  0  0  0  0  0  0  0  0
    5.4493   -0.2422    3.1884 H   0  0  0  0  0  0  0  0  0  0  0  0
    4.7387   -1.9350    4.4210 H   0  0  0  0  0  0  0  0  0  0  0  0
    4.1878   -3.6884    5.3673 H   0  0  0  0  0  0  0  0  0  0  0  0
    4.6311   -7.5555    4.4226 H   0  0  0  0  0  0  0  0  0  0  0  0
    2.7544   -8.0238    5.9793 H   0  0  0  0  0  0  0  0  0  0  0  0
    3.1074   -6.4829    6.7811 H   0  0  0  0  0  0  0  0  0  0  0  0
    4.3192   -7.7229    6.7023 H   0  0  0  0  0  0  0  0  0  0  0  0
    2.1471   -6.8440    3.7843 H   0  0  0  0  0  0  0  0  0  0  0  0
    4.3476   -7.1790    2.2736 H   0  0  0  0  0  0  0  0  0  0  0  0
    2.5717   -8.0104    1.9076 H   0  0  0  0  0  0  0  0  0  0  0  0
    4.7831   -5.7775    0.5658 H   0  0  0  0  0  0  0  0  0  0  0  0
    6.6880   -4.4338    0.3518 H   0  0  0  0  0  0  0  0  0  0  0  0
    7.7347   -4.2846    1.7076 H   0  0  0  0  0  0  0  0  0  0  0  0
    6.8087   -2.9858    1.3727 H   0  0  0  0  0  0  0  0  0  0  0  0
    6.9540   -6.3438    1.9550 H   0  0  0  0  0  0  0  0  0  0  0  0
    6.0159   -6.6086    3.3204 H   0  0  0  0  0  0  0  0  0  0  0  0
    7.2412   -5.4524    3.4371 H   0  0  0  0  0  0  0  0  0  0  0  0
  1  2  1  0
  1 33  1  0
  1 34  1  0
  1 35  1  0
  3  2  1  1
  3 22  1  0
  3 26  1  0
  3  4  1  0
  4  5  1  0
  4 36  1  0
  4 37  1  0
  5  6  1  0
  5  7  1  0
  5 38  1  6
  6 39  1  0
  6 40  1  0
  6 41  1  0
  7 16  1  0
  7  8  1  0
  7 42  1  6
  8 29  1  0
  8  9  1  6
  8 10  1  0
  9 43  1  0
  9 44  1  0
  9 45  1  0
 10 16  1  0
 10 11  2  0
 11 12  1  0
 11 46  1  0
 12 13  2  0
 12 14  1  0
 14 15  1  0
 16 15  1  6
 15 47  1  0
 15 48  1  0
 16 17  1  0
 17 18  1  0
 17 19  1  0
 17 49  1  6
 18 50  1  0
 19 20  1  0
 19 51  1  0
 19 52  1  0
 20 21  2  3
 20 53  1  0
 21 30  1  0
 21 22  1  0
 22 23  1  0
 22 54  1  1
 23 24  1  0
 24 25  1  0
 24 26  1  0
 24 55  1  6
 25 56  1  0
 25 57  1  0
 25 58  1  0
 26 27  1  0
 26 59  1  6
 27 28  1  0
 27 29  1  0
 27 60  1  1
 28 61  1  0
 29 30  1  0
 29 62  1  6
 30 31  1  0
 30 32  1  0
 31 63  1  0
 31 64  1  0
 31 65  1  0
 32 66  1  0
 32 67  1  0
 32 68  1  0
M  END
>  <i_m_ct_stereo_status>  (35) 
1

>  <s_m_source_file>  (35) 
/var/tmp/pbs.5076255.sched01/tmpu3exd1vk/0t_9me_9p.sdf

>  <i_m_source_file_index>  (35) 
13

>  <i_lp_mmshare_version>  (35) 
48012

>  <i_f3d_flags>  (35) 
0

>  <s_epik_input>  (35) 
W09IXVtDQEhdMVtDSDJdL1tDSF09QyhDMihbQ0gzXSlbQ0gzXSlcW0NASF0oT1tDQEhdM1tDSDNdKVtDQEBdKE9bQ0gzXSkoW0NIMl1bQ0BIXTRbQ0gzXSlbQ0BIXTNbQ0BASF0oW09IXSlbQ0BIXTJbQ0BdKFtDSF00W0NAXTE1NikoW0NIM10pQzU9W0NIXUMoPU8pT1tDSDJdNg==

>  <s_epik_cmdline>  (35) 
J2VwaWtfcHl0aG9uJywgJy1waHQnLCAnMi4wJywgJy1waCcsICc3LjAnLCAnLXRuJywgJzgnLCAnLW1hJywgJzIwMCcsICctaW1hZScsICc8aW5maWxlLm1hZT4nLCAnLW9tYWUnLCAnPG91dGZpbGUubWFlPic=

>  <r_lp_tautomer_probability>  (35) 
1

>  <r_epik_Ionization_Penalty>  (35) 
1.02834e-07

>  <r_epik_Ionization_Penalty_Charging>  (35) 
0

>  <r_epik_Ionization_Penalty_Neutral>  (35) 
1.02834e-07

>  <r_epik_State_Penalty>  (35) 
-0

>  <r_epik_Charging_Adjusted_Penalty>  (35) 
0

>  <i_epik_Tot_Q>  (35) 
0

>  <i_epik_Tot_abs_Q>  (35) 
0

>  <s_epik_Chemistry_Notes>  (35) 
This compound has an ester and may undergo hydrolysis at high or low pH.

>  <s_lp_Force_Field>  (35) 
OPLS3e

>  <r_lp_Energy>  (35) 
258.692

>  <b_lp_Chiralities_Consistent>  (35) 
1

>  <s_lp_Variant>  (35) 
9:0-2

>  <s_i_glide_gridfile>  (35) 
pfpi4k_grid

>  <i_i_glide_lignum>  (35) 
13

>  <i_i_glide_rotatable_bonds>  (35) 
3

>  <r_i_docking_score>  (35) 
-2.44484

>  <r_i_glide_ligand_efficiency>  (35) 
-0.0764012

>  <r_i_glide_ligand_efficiency_sa>  (35) 
-0.242559

>  <r_i_glide_ligand_efficiency_ln>  (35) 
-0.547466

>  <r_i_glide_gscore>  (35) 
-2.44484

>  <r_i_glide_lipo>  (35) 
-0.495344

>  <r_i_glide_hbond>  (35) 
0

>  <r_i_glide_metal>  (35) 
-0

>  <r_i_glide_rewards>  (35) 
-0.377997

>  <r_i_glide_evdw>  (35) 
-23.7157

>  <r_i_glide_ecoul>  (35) 
-2.53905

>  <r_i_glide_erotb>  (35) 
0

>  <r_i_glide_esite>  (35) 
-0.00485392

>  <r_i_glide_emodel>  (35) 
-29.4668

>  <r_i_glide_energy>  (35) 
-26.2547

>  <r_i_glide_einternal>  (35) 
0.68759

>  <r_i_glide_intrahb_reward>  (35) 
-0

>  <i_i_glide_confnum>  (35) 
1

>  <i_i_glide_posenum>  (35) 
19

>  <r_i_glide_eff_state_penalty>  (35) 
0

>  <ligand_id>  (35) 
9

>  <original_smiles>  (35) 
COC12CC(C)C3C4(C)C5=CC(=O)OCC53C(O)CC=C3C1OC(C)C2C(O)C4C3(C)C

>  <smiles>  (35) 
[H]OC1([H])C2([H])C([H])(C([H])([H])[H])OC3([H])C4=C([H])C([H])([H])C([H])(O[H])C56C(=C([H])C(=O)OC5([H])[H])C(C([H])([H])[H])(C1([H])C4(C([H])([H])[H])C([H])([H])[H])C6([H])C([H])(C([H])([H])[H])C([H])([H])C32OC([H])([H])[H]

$$$$
9:1:2
     RDKit          3D

 68 73  0  0  1  0  0  0  0  0999 V2000
    0.9361   -5.4495    5.7418 C   0  0  0  0  0  0  0  0  0  0  0  0
    2.1542   -4.7256    5.5087 O   0  0  0  0  0  0  0  0  0  0  0  0
    2.8126   -4.7944    4.2227 C   0  0  1  0  0  0  0  0  0  0  0  0
    1.8547   -4.0127    3.2814 C   0  0  0  0  0  0  0  0  0  0  0  0
    2.2033   -2.7336    2.4889 C   0  0  1  0  0  0  0  0  0  0  0  0
    2.0996   -1.4242    3.3140 C   0  0  0  0  0  0  0  0  0  0  0  0
    2.9914   -2.8347    1.1277 C   0  0  2  0  0  0  0  0  0  0  0  0
    3.2409   -4.2464    0.5984 C   0  0  1  0  0  0  0  0  0  0  0  0
    2.0417   -4.9722   -0.0482 C   0  0  0  0  0  0  0  0  0  0  0  0
    3.8085   -3.2857   -0.4422 C   0  0  0  0  0  0  0  0  0  0  0  0
    3.5446   -3.1400   -1.7762 C   0  0  0  0  0  0  0  0  0  0  0  0
    4.1270   -1.9843   -2.4604 C   0  0  0  0  0  0  0  0  0  0  0  0
    3.8348   -1.6268   -3.5963 O   0  0  0  0  0  0  0  0  0  0  0  0
    5.0484   -1.3761   -1.6926 O   0  0  0  0  0  0  0  0  0  0  0  0
    5.5416   -2.1313   -0.5759 C   0  0  0  0  0  0  0  0  0  0  0  0
    4.5138   -2.3864    0.6455 C   0  0  2  0  0  0  0  0  0  0  0  0
    4.7304   -0.9486    1.1804 C   0  0  1  0  0  0  0  0  0  0  0  0
    3.5878   -0.1390    1.2946 O   0  0  0  0  0  0  0  0  0  0  0  0
    5.5370   -1.1503    2.5188 C   0  0  0  0  0  0  0  0  0  0  0  0
    5.1346   -2.3242    3.4541 C   0  0  0  0  0  0  0  0  0  0  0  0
    5.0474   -3.6985    3.3666 C   0  0  0  0  0  0  0  0  0  0  0  0
    4.2675   -4.3480    4.5347 C   0  0  2  0  0  0  0  0  0  0  0  0
    4.9050   -5.5228    5.0553 O   0  0  0  0  0  0  0  0  0  0  0  0
    4.1030   -6.6883    4.8408 C   0  0  1  0  0  0  0  0  0  0  0  0
    3.5944   -7.2146    6.2025 C   0  0  0  0  0  0  0  0  0  0  0  0
    3.0758   -6.2329    3.7728 C   0  0  2  0  0  0  0  0  0  0  0  0
    3.5920   -6.4163    2.2804 C   0  0  1  0  0  0  0  0  0  0  0  0
    2.6431   -7.1951    1.5832 O   0  0  0  0  0  0  0  0  0  0  0  0
    4.2735   -5.2483    1.4017 C   0  0  2  0  0  0  0  0  0  0  0  0
    5.5467   -4.6589    2.2229 C   0  0  0  0  0  0  0  0  0  0  0  0
    6.6979   -4.0701    1.3352 C   0  0  0  0  0  0  0  0  0  0  0  0
    6.4643   -5.8158    2.7611 C   0  0  0  0  0  0  0  0  0  0  0  0
    0.5574   -5.1759    6.7261 H   0  0  0  0  0  0  0  0  0  0  0  0
    1.0801   -6.5267    5.7654 H   0  0  0  0  0  0  0  0  0  0  0  0
    0.1481   -5.2463    5.0190 H   0  0  0  0  0  0  0  0  0  0  0  0
    1.3759   -4.7341    2.6333 H   0  0  0  0  0  0  0  0  0  0  0  0
    1.0086   -3.6848    3.8821 H   0  0  0  0  0  0  0  0  0  0  0  0
    1.1915   -2.6238    2.0927 H   0  0  0  0  0  0  0  0  0  0  0  0
    1.5075   -1.5678    4.2195 H   0  0  0  0  0  0  0  0  0  0  0  0
    1.5832   -0.6490    2.7417 H   0  0  0  0  0  0  0  0  0  0  0  0
    3.0347   -0.9865    3.6364 H   0  0  0  0  0  0  0  0  0  0  0  0
    2.2632   -2.2385    0.5295 H   0  0  0  0  0  0  0  0  0  0  0  0
    1.3556   -5.3825    0.6790 H   0  0  0  0  0  0  0  0  0  0  0  0
    2.3481   -5.8116   -0.6586 H   0  0  0  0  0  0  0  0  0  0  0  0
    1.4362   -4.3200   -0.6811 H   0  0  0  0  0  0  0  0  0  0  0  0
    2.9306   -3.8122   -2.3469 H   0  0  0  0  0  0  0  0  0  0  0  0
    5.9711   -3.0511   -0.9856 H   0  0  0  0  0  0  0  0  0  0  0  0
    6.4552   -1.6257   -0.2596 H   0  0  0  0  0  0  0  0  0  0  0  0
    5.3416   -0.2586    0.5892 H   0  0  0  0  0  0  0  0  0  0  0  0
    3.0803   -0.2249    0.5005 H   0  0  0  0  0  0  0  0  0  0  0  0
    6.6072   -1.2151    2.3323 H   0  0  0  0  0  0  0  0  0  0  0  0
    5.4463   -0.2387    3.1123 H   0  0  0  0  0  0  0  0  0  0  0  0
    4.7629   -1.9114    4.3817 H   0  0  0  0  0  0  0  0  0  0  0  0
    4.2390   -3.6519    5.3732 H   0  0  0  0  0  0  0  0  0  0  0  0
    4.6771   -7.5352    4.4744 H   0  0  0  0  0  0  0  0  0  0  0  0
    2.8345   -7.9866    6.0748 H   0  0  0  0  0  0  0  0  0  0  0  0
    3.1969   -6.4330    6.8478 H   0  0  0  0  0  0  0  0  0  0  0  0
    4.4133   -7.6696    6.7610 H   0  0  0  0  0  0  0  0  0  0  0  0
    2.1780   -6.8406    3.8792 H   0  0  0  0  0  0  0  0  0  0  0  0
    4.3469   -7.1924    2.3270 H   0  0  0  0  0  0  0  0  0  0  0  0
    2.5628   -8.0335    2.0159 H   0  0  0  0  0  0  0  0  0  0  0  0
    4.7434   -5.8126    0.5932 H   0  0  0  0  0  0  0  0  0  0  0  0
    6.6468   -4.4684    0.3240 H   0  0  0  0  0  0  0  0  0  0  0  0
    7.7144   -4.2889    1.6698 H   0  0  0  0  0  0  0  0  0  0  0  0
    6.7779   -3.0031    1.3213 H   0  0  0  0  0  0  0  0  0  0  0  0
    6.9422   -6.3564    1.9416 H   0  0  0  0  0  0  0  0  0  0  0  0
    6.0326   -6.6063    3.3306 H   0  0  0  0  0  0  0  0  0  0  0  0
    7.2597   -5.4464    3.4104 H   0  0  0  0  0  0  0  0  0  0  0  0
  1  2  1  0
  1 33  1  0
  1 34  1  0
  1 35  1  0
  3  2  1  1
  3 22  1  0
  3 26  1  0
  3  4  1  0
  4  5  1  0
  4 36  1  0
  4 37  1  0
  5  6  1  0
  5  7  1  0
  5 38  1  6
  6 39  1  0
  6 40  1  0
  6 41  1  0
  7 16  1  0
  7  8  1  0
  7 42  1  6
  8 29  1  0
  8  9  1  6
  8 10  1  0
  9 43  1  0
  9 44  1  0
  9 45  1  0
 10 16  1  0
 10 11  2  0
 11 12  1  0
 11 46  1  0
 12 13  2  0
 12 14  1  0
 14 15  1  0
 16 15  1  6
 15 47  1  0
 15 48  1  0
 16 17  1  0
 17 18  1  0
 17 19  1  0
 17 49  1  6
 18 50  1  0
 19 20  1  0
 19 51  1  0
 19 52  1  0
 20 21  2  3
 20 53  1  0
 21 30  1  0
 21 22  1  0
 22 23  1  0
 22 54  1  1
 23 24  1  0
 24 25  1  0
 24 26  1  0
 24 55  1  6
 25 56  1  0
 25 57  1  0
 25 58  1  0
 26 27  1  0
 26 59  1  6
 27 28  1  0
 27 29  1  0
 27 60  1  1
 28 61  1  0
 29 30  1  0
 29 62  1  6
 30 31  1  0
 30 32  1  0
 31 63  1  0
 31 64  1  0
 31 65  1  0
 32 66  1  0
 32 67  1  0
 32 68  1  0
M  END
>  <i_m_ct_stereo_status>  (36) 
1

>  <s_m_source_file>  (36) 
/var/tmp/pbs.5076255.sched01/tmpu3exd1vk/0t_9me_9p.sdf

>  <i_m_source_file_index>  (36) 
13

>  <i_lp_mmshare_version>  (36) 
48012

>  <i_f3d_flags>  (36) 
0

>  <s_epik_input>  (36) 
W09IXVtDQEhdMVtDSDJdL1tDSF09QyhDMihbQ0gzXSlbQ0gzXSlcW0NASF0oT1tDQEhdM1tDSDNdKVtDQEBdKE9bQ0gzXSkoW0NIMl1bQ0BIXTRbQ0gzXSlbQ0BIXTNbQ0BASF0oW09IXSlbQ0BIXTJbQ0BdKFtDSF00W0NAXTE1NikoW0NIM10pQzU9W0NIXUMoPU8pT1tDSDJdNg==

>  <s_epik_cmdline>  (36) 
J2VwaWtfcHl0aG9uJywgJy1waHQnLCAnMi4wJywgJy1waCcsICc3LjAnLCAnLXRuJywgJzgnLCAnLW1hJywgJzIwMCcsICctaW1hZScsICc8aW5maWxlLm1hZT4nLCAnLW9tYWUnLCAnPG91dGZpbGUubWFlPic=

>  <r_lp_tautomer_probability>  (36) 
1

>  <r_epik_Ionization_Penalty>  (36) 
1.02834e-07

>  <r_epik_Ionization_Penalty_Charging>  (36) 
0

>  <r_epik_Ionization_Penalty_Neutral>  (36) 
1.02834e-07

>  <r_epik_State_Penalty>  (36) 
-0

>  <r_epik_Charging_Adjusted_Penalty>  (36) 
0

>  <i_epik_Tot_Q>  (36) 
0

>  <i_epik_Tot_abs_Q>  (36) 
0

>  <s_epik_Chemistry_Notes>  (36) 
This compound has an ester and may undergo hydrolysis at high or low pH.

>  <s_lp_Force_Field>  (36) 
OPLS3e

>  <r_lp_Energy>  (36) 
258.692

>  <b_lp_Chiralities_Consistent>  (36) 
1

>  <s_lp_Variant>  (36) 
9:0-2

>  <s_i_glide_gridfile>  (36) 
pfpi4k_grid

>  <i_i_glide_lignum>  (36) 
13

>  <i_i_glide_rotatable_bonds>  (36) 
3

>  <r_i_docking_score>  (36) 
-2.43364

>  <r_i_glide_ligand_efficiency>  (36) 
-0.0760512

>  <r_i_glide_ligand_efficiency_sa>  (36) 
-0.241448

>  <r_i_glide_ligand_efficiency_ln>  (36) 
-0.544958

>  <r_i_glide_gscore>  (36) 
-2.43364

>  <r_i_glide_lipo>  (36) 
-0.496426

>  <r_i_glide_hbond>  (36) 
0

>  <r_i_glide_metal>  (36) 
-0

>  <r_i_glide_rewards>  (36) 
-0.379035

>  <r_i_glide_evdw>  (36) 
-23.7448

>  <r_i_glide_ecoul>  (36) 
-2.47292

>  <r_i_glide_erotb>  (36) 
0

>  <r_i_glide_esite>  (36) 
0

>  <r_i_glide_emodel>  (36) 
-29.3416

>  <r_i_glide_energy>  (36) 
-26.2177

>  <r_i_glide_einternal>  (36) 
1.03383

>  <r_i_glide_intrahb_reward>  (36) 
-0

>  <i_i_glide_confnum>  (36) 
1

>  <i_i_glide_posenum>  (36) 
11

>  <r_i_glide_eff_state_penalty>  (36) 
0

>  <ligand_id>  (36) 
9

>  <original_smiles>  (36) 
COC12CC(C)C3C4(C)C5=CC(=O)OCC53C(O)CC=C3C1OC(C)C2C(O)C4C3(C)C

>  <smiles>  (36) 
[H]OC1([H])C2([H])C([H])(C([H])([H])[H])OC3([H])C4=C([H])C([H])([H])C([H])(O[H])C56C(=C([H])C(=O)OC5([H])[H])C(C([H])([H])[H])(C1([H])C4(C([H])([H])[H])C([H])([H])[H])C6([H])C([H])(C([H])([H])[H])C([H])([H])C32OC([H])([H])[H]

$$$$
13:0:0
     RDKit          3D

 54 59  0  0  1  0  0  0  0  0999 V2000
    4.8489   -0.6573    2.4345 C   0  0  0  0  0  0  0  0  0  0  0  0
    4.6445   -1.8329    1.8254 C   0  0  0  0  0  0  0  0  0  0  0  0
    5.6821   -2.8917    1.7548 C   0  0  0  0  0  0  0  0  0  0  0  0
    5.4176   -3.9437    0.6017 C   0  0  1  0  0  0  0  0  0  0  0  0
    5.6081   -5.2875    1.3237 C   0  0  0  0  0  0  0  0  0  0  0  0
    4.5297   -5.4518    2.4566 C   0  0  0  0  0  0  0  0  0  0  0  0
    3.3089   -4.5650    2.3586 N   0  0  1  0  0  0  0  0  0  0  0  0
    2.9702   -3.7270    3.5461 C   0  0  0  0  0  0  0  0  0  0  0  0
    1.8904   -2.6445    3.2237 C   0  0  0  0  0  0  0  0  0  0  0  0
    2.1311   -1.7746    1.9309 C   0  0  0  0  0  0  0  0  0  0  0  0
    3.3655   -2.2591    1.1276 C   0  0  2  0  0  0  0  0  0  0  0  0
    3.1255   -3.8020    1.0977 C   0  0  1  0  0  0  0  0  0  0  0  0
    3.9811   -4.1779   -0.0510 C   0  0  1  0  0  0  0  0  0  0  0  0
    3.4121   -3.2401   -1.1821 C   0  0  2  0  0  0  0  0  0  0  0  0
    1.9065   -3.4841   -1.5081 C   0  0  0  0  0  0  0  0  0  0  0  0
    4.0638   -3.2615   -2.6011 C   0  0  0  0  0  0  0  0  0  0  0  0
    4.1021   -1.8741   -3.2575 C   0  0  0  0  0  0  0  0  0  0  0  0
    4.5599   -0.7701   -2.2900 C   0  0  0  0  0  0  0  0  0  0  0  0
    4.8267   -1.2876   -0.9289 N   0  0  2  0  0  0  0  0  0  0  0  0
    6.1916   -1.9700   -0.8627 C   0  0  0  0  0  0  0  0  0  0  0  0
    6.3811   -3.4776   -0.4714 C   0  0  0  0  0  0  0  0  0  0  0  0
    3.5608   -1.9280   -0.4124 C   0  0  2  0  0  0  0  0  0  0  0  0
    4.0991    0.1185    2.4795 H   0  0  0  0  0  0  0  0  0  0  0  0
    5.8026   -0.4491    2.9058 H   0  0  0  0  0  0  0  0  0  0  0  0
    6.6616   -2.4260    1.6834 H   0  0  0  0  0  0  0  0  0  0  0  0
    5.7328   -3.3264    2.7501 H   0  0  0  0  0  0  0  0  0  0  0  0
    5.5170   -6.1055    0.6074 H   0  0  0  0  0  0  0  0  0  0  0  0
    6.6211   -5.3755    1.7362 H   0  0  0  0  0  0  0  0  0  0  0  0
    4.1904   -6.4772    2.4523 H   0  0  0  0  0  0  0  0  0  0  0  0
    5.0034   -5.3177    3.4194 H   0  0  0  0  0  0  0  0  0  0  0  0
    2.6225   -4.3620    4.3525 H   0  0  0  0  0  0  0  0  0  0  0  0
    3.8440   -3.2223    3.9432 H   0  0  0  0  0  0  0  0  0  0  0  0
    0.9252   -3.1433    3.1181 H   0  0  0  0  0  0  0  0  0  0  0  0
    1.7687   -1.9827    4.0836 H   0  0  0  0  0  0  0  0  0  0  0  0
    1.2394   -1.8544    1.3039 H   0  0  0  0  0  0  0  0  0  0  0  0
    2.1624   -0.7092    2.1758 H   0  0  0  0  0  0  0  0  0  0  0  0
    2.0931   -4.0251    0.8803 H   0  0  0  0  0  0  0  0  0  0  0  0
    3.8209   -5.2118   -0.3741 H   0  0  0  0  0  0  0  0  0  0  0  0
    1.5735   -2.9761   -2.4153 H   0  0  0  0  0  0  0  0  0  0  0  0
    1.2548   -3.0925   -0.7397 H   0  0  0  0  0  0  0  0  0  0  0  0
    1.6709   -4.5439   -1.6251 H   0  0  0  0  0  0  0  0  0  0  0  0
    5.0521   -3.7033   -2.6358 H   0  0  0  0  0  0  0  0  0  0  0  0
    3.5050   -3.9063   -3.2758 H   0  0  0  0  0  0  0  0  0  0  0  0
    4.7675   -1.9104   -4.1140 H   0  0  0  0  0  0  0  0  0  0  0  0
    3.1198   -1.6082   -3.6644 H   0  0  0  0  0  0  0  0  0  0  0  0
    5.4232   -0.2719   -2.6889 H   0  0  0  0  0  0  0  0  0  0  0  0
    3.8108    0.0111   -2.3184 H   0  0  0  0  0  0  0  0  0  0  0  0
    6.6858   -1.8987   -1.8200 H   0  0  0  0  0  0  0  0  0  0  0  0
    6.8094   -1.3706   -0.2024 H   0  0  0  0  0  0  0  0  0  0  0  0
    7.3973   -3.5725   -0.0891 H   0  0  0  0  0  0  0  0  0  0  0  0
    6.3866   -4.1799   -1.2951 H   0  0  0  0  0  0  0  0  0  0  0  0
    2.7804   -1.2339   -0.6780 H   0  0  0  0  0  0  0  0  0  0  0  0
    4.9406   -0.4530   -0.3590 H   0  0  0  0  0  0  0  0  0  0  0  0
    2.5739   -5.2526    2.3247 H   0  0  0  0  0  0  0  0  0  0  0  0
  1  2  2  0
  1 23  1  0
  1 24  1  0
  2 11  1  0
  2  3  1  0
  4  3  1  1
  3 25  1  0
  3 26  1  0
  4 13  1  0
  4 21  1  0
  4  5  1  0
  5  6  1  0
  5 27  1  0
  5 28  1  0
  6  7  1  0
  6 29  1  0
  6 30  1  0
  7 12  1  0
  7  8  1  0
  7 54  1  6
  8  9  1  0
  8 31  1  0
  8 32  1  0
  9 10  1  0
  9 33  1  0
  9 34  1  0
 11 10  1  1
 10 35  1  0
 10 36  1  0
 11 22  1  0
 11 12  1  0
 12 13  1  0
 12 37  1  6
 13 14  1  0
 13 38  1  6
 14 22  1  0
 14 15  1  6
 14 16  1  0
 15 39  1  0
 15 40  1  0
 15 41  1  0
 16 17  1  0
 16 42  1  0
 16 43  1  0
 17 18  1  0
 17 44  1  0
 17 45  1  0
 18 19  1  0
 18 46  1  0
 18 47  1  0
 19 20  1  0
 19 22  1  0
 19 53  1  1
 20 21  1  0
 20 48  1  0
 20 49  1  0
 21 50  1  0
 21 51  1  0
 22 52  1  6
M  CHG  2   7   1  19   1
M  END
>  <i_m_ct_stereo_status>  (37) 
1

>  <s_m_source_file>  (37) 
/var/tmp/pbs.5076255.sched01/tmpu3exd1vk/0t_9me_9p.sdf

>  <i_m_source_file_index>  (37) 
17

>  <i_lp_mmshare_version>  (37) 
48012

>  <i_f3d_flags>  (37) 
0

>  <s_epik_input>  (37) 
W0NIMl0xW0NIMl1OMltDSDJdW0NIMl1bQ0gyXVtDQEBdKEMoPVtDSDJdKVtDSDJdMykoW0NASF0yW0NAQEhdNFtDQF0xMzUpW0NAQEhdNltDQEBdNChbQ0gzXSlbQ0gyXVtDSDJdW0NIMl1ONltDSDJdW0NIMl01

>  <s_epik_cmdline>  (37) 
J2VwaWtfcHl0aG9uJywgJy1waHQnLCAnMi4wJywgJy1waCcsICc3LjAnLCAnLXRuJywgJzgnLCAnLW1hJywgJzIwMCcsICctaW1hZScsICc8aW5maWxlLm1hZT4nLCAnLW9tYWUnLCAnPG91dGZpbGUubWFlPic=

>  <r_epik_Ionization_Penalty>  (37) 
0.0379006

>  <r_epik_Ionization_Penalty_Charging>  (37) 
0.0379006

>  <r_epik_Ionization_Penalty_Neutral>  (37) 
0

>  <r_epik_State_Penalty>  (37) 
0.0298404

>  <r_epik_Charging_Adjusted_Penalty>  (37) 
0.067741

>  <i_epik_Tot_Q>  (37) 
2

>  <i_epik_Tot_abs_Q>  (37) 
2

>  <s_lp_Force_Field>  (37) 
OPLS3e

>  <r_lp_Energy>  (37) 
167.279

>  <b_lp_Chiralities_Consistent>  (37) 
1

>  <s_lp_Variant>  (37) 
13:0-1

>  <s_i_glide_gridfile>  (37) 
pfpi4k_grid

>  <i_i_glide_lignum>  (37) 
17

>  <i_i_glide_rotatable_bonds>  (37) 
0

>  <r_i_docking_score>  (37) 
-3.59424

>  <r_i_glide_ligand_efficiency>  (37) 
-0.163375

>  <r_i_glide_ligand_efficiency_sa>  (37) 
-0.457782

>  <r_i_glide_ligand_efficiency_ln>  (37) 
-0.878564

>  <r_i_glide_gscore>  (37) 
-3.59424

>  <r_i_glide_lipo>  (37) 
-0.621277

>  <r_i_glide_hbond>  (37) 
0

>  <r_i_glide_metal>  (37) 
-0

>  <r_i_glide_rewards>  (37) 
-1.36035

>  <r_i_glide_evdw>  (37) 
-20.4019

>  <r_i_glide_ecoul>  (37) 
-3.68323

>  <r_i_glide_erotb>  (37) 
0

>  <r_i_glide_esite>  (37) 
-0.0400343

>  <r_i_glide_emodel>  (37) 
-27.8045

>  <r_i_glide_energy>  (37) 
-24.0851

>  <r_i_glide_einternal>  (37) 
0

>  <r_i_glide_intrahb_reward>  (37) 
-0

>  <i_i_glide_confnum>  (37) 
1

>  <i_i_glide_posenum>  (37) 
4

>  <r_i_glide_eff_state_penalty>  (37) 
0

>  <ligand_id>  (37) 
13

>  <original_smiles>  (37) 
C=C1CC23CCN4CCCC15C4C2C1(C)CCCN(CC3)C15

>  <smiles>  (37) 
[H]C([H])=C1C([H])([H])C23C([H])([H])C([H])([H])[N+]4([H])C([H])([H])C([H])([H])C([H])([H])C15C4([H])C2([H])C1(C([H])([H])[H])C([H])([H])C([H])([H])C([H])([H])[N+]([H])(C([H])([H])C3([H])[H])C51[H]

$$$$
13:0:1
     RDKit          3D

 54 59  0  0  1  0  0  0  0  0999 V2000
    5.5800   -0.5945    1.1595 C   0  0  0  0  0  0  0  0  0  0  0  0
    5.1547   -1.7927    0.7723 C   0  0  0  0  0  0  0  0  0  0  0  0
    6.0915   -2.9163    0.5056 C   0  0  0  0  0  0  0  0  0  0  0  0
    5.4349   -4.0279   -0.3987 C   0  0  1  0  0  0  0  0  0  0  0  0
    5.7861   -5.3274    0.3494 C   0  0  0  0  0  0  0  0  0  0  0  0
    5.1097   -5.3255    1.7634 C   0  0  0  0  0  0  0  0  0  0  0  0
    3.9542   -4.3585    1.9535 N   0  0  1  0  0  0  0  0  0  0  0  0
    4.0347   -3.3984    3.0993 C   0  0  0  0  0  0  0  0  0  0  0  0
    2.9485   -2.2770    3.0094 C   0  0  0  0  0  0  0  0  0  0  0  0
    2.8004   -1.5430    1.6238 C   0  0  0  0  0  0  0  0  0  0  0  0
    3.7017   -2.1705    0.5362 C   0  0  2  0  0  0  0  0  0  0  0  0
    3.4106   -3.6903    0.7354 C   0  0  1  0  0  0  0  0  0  0  0  0
    3.8677   -4.2097   -0.5805 C   0  0  1  0  0  0  0  0  0  0  0  0
    3.0396   -3.3355   -1.5905 C   0  0  2  0  0  0  0  0  0  0  0  0
    1.5310   -3.5838   -1.4837 C   0  0  0  0  0  0  0  0  0  0  0  0
    3.2017   -3.4524   -3.1389 C   0  0  0  0  0  0  0  0  0  0  0  0
    3.0862   -2.1387   -3.8960 C   0  0  0  0  0  0  0  0  0  0  0  0
    3.8896   -1.0065   -3.2311 C   0  0  0  0  0  0  0  0  0  0  0  0
    4.5060   -1.4452   -1.9406 N   0  0  2  0  0  0  0  0  0  0  0  0
    5.7745   -2.2431   -2.2285 C   0  0  0  0  0  0  0  0  0  0  0  0
    6.0077   -3.7045   -1.7516 C   0  0  0  0  0  0  0  0  0  0  0  0
    3.4279   -1.9647   -1.0267 C   0  0  2  0  0  0  0  0  0  0  0  0
    4.9104    0.2332    1.3434 H   0  0  0  0  0  0  0  0  0  0  0  0
    6.6375   -0.4244    1.2958 H   0  0  0  0  0  0  0  0  0  0  0  0
    7.0264   -2.5317    0.0940 H   0  0  0  0  0  0  0  0  0  0  0  0
    6.4315   -3.2703    1.4746 H   0  0  0  0  0  0  0  0  0  0  0  0
    5.4317   -6.1862   -0.2210 H   0  0  0  0  0  0  0  0  0  0  0  0
    6.8667   -5.4556    0.4362 H   0  0  0  0  0  0  0  0  0  0  0  0
    4.7374   -6.3239    1.9677 H   0  0  0  0  0  0  0  0  0  0  0  0
    5.8650   -5.1420    2.5222 H   0  0  0  0  0  0  0  0  0  0  0  0
    3.9292   -3.9472    4.0312 H   0  0  0  0  0  0  0  0  0  0  0  0
    5.0156   -2.9329    3.1540 H   0  0  0  0  0  0  0  0  0  0  0  0
    1.9833   -2.7220    3.2542 H   0  0  0  0  0  0  0  0  0  0  0  0
    3.1322   -1.5417    3.7906 H   0  0  0  0  0  0  0  0  0  0  0  0
    1.7576   -1.6278    1.3077 H   0  0  0  0  0  0  0  0  0  0  0  0
    2.9549   -0.4677    1.7357 H   0  0  0  0  0  0  0  0  0  0  0  0
    2.3490   -3.8650    0.8717 H   0  0  0  0  0  0  0  0  0  0  0  0
    3.5719   -5.2478   -0.7168 H   0  0  0  0  0  0  0  0  0  0  0  0
    0.9451   -3.0775   -2.2559 H   0  0  0  0  0  0  0  0  0  0  0  0
    1.2137   -3.1227   -0.5858 H   0  0  0  0  0  0  0  0  0  0  0  0
    1.2385   -4.6335   -1.4242 H   0  0  0  0  0  0  0  0  0  0  0  0
    4.1002   -3.9803   -3.4317 H   0  0  0  0  0  0  0  0  0  0  0  0
    2.4264   -4.1271   -3.5418 H   0  0  0  0  0  0  0  0  0  0  0  0
    3.4449   -2.3278   -4.8999 H   0  0  0  0  0  0  0  0  0  0  0  0
    2.0430   -1.8482   -4.0070 H   0  0  0  0  0  0  0  0  0  0  0  0
    4.6317   -0.6472   -3.9400 H   0  0  0  0  0  0  0  0  0  0  0  0
    3.2223   -0.1659   -3.0495 H   0  0  0  0  0  0  0  0  0  0  0  0
    5.8582   -2.3471   -3.2981 H   0  0  0  0  0  0  0  0  0  0  0  0
    6.6129   -1.6404   -1.9005 H   0  0  0  0  0  0  0  0  0  0  0  0
    7.0805   -3.8528   -1.7066 H   0  0  0  0  0  0  0  0  0  0  0  0
    5.7505   -4.4511   -2.4851 H   0  0  0  0  0  0  0  0  0  0  0  0
    2.6115   -1.2583   -1.1357 H   0  0  0  0  0  0  0  0  0  0  0  0
    4.8372   -0.5786   -1.5059 H   0  0  0  0  0  0  0  0  0  0  0  0
    3.2068   -4.9897    2.2216 H   0  0  0  0  0  0  0  0  0  0  0  0
  1  2  2  0
  1 23  1  0
  1 24  1  0
  2 11  1  0
  2  3  1  0
  4  3  1  1
  3 25  1  0
  3 26  1  0
  4 13  1  0
  4 21  1  0
  4  5  1  0
  5  6  1  0
  5 27  1  0
  5 28  1  0
  6  7  1  0
  6 29  1  0
  6 30  1  0
  7 12  1  0
  7  8  1  0
  7 54  1  1
  8  9  1  0
  8 31  1  0
  8 32  1  0
  9 10  1  0
  9 33  1  0
  9 34  1  0
 11 10  1  1
 10 35  1  0
 10 36  1  0
 11 22  1  0
 11 12  1  0
 12 13  1  0
 12 37  1  6
 13 14  1  0
 13 38  1  1
 14 22  1  0
 14 15  1  6
 14 16  1  0
 15 39  1  0
 15 40  1  0
 15 41  1  0
 16 17  1  0
 16 42  1  0
 16 43  1  0
 17 18  1  0
 17 44  1  0
 17 45  1  0
 18 19  1  0
 18 46  1  0
 18 47  1  0
 19 20  1  0
 19 22  1  0
 19 53  1  1
 20 21  1  0
 20 48  1  0
 20 49  1  0
 21 50  1  0
 21 51  1  0
 22 52  1  1
M  CHG  2   7   1  19   1
M  END
>  <i_m_ct_stereo_status>  (38) 
1

>  <s_m_source_file>  (38) 
/var/tmp/pbs.5076255.sched01/tmpu3exd1vk/0t_9me_9p.sdf

>  <i_m_source_file_index>  (38) 
17

>  <i_lp_mmshare_version>  (38) 
48012

>  <i_f3d_flags>  (38) 
0

>  <s_epik_input>  (38) 
W0NIMl0xW0NIMl1OMltDSDJdW0NIMl1bQ0gyXVtDQEBdKEMoPVtDSDJdKVtDSDJdMykoW0NASF0yW0NAQEhdNFtDQF0xMzUpW0NAQEhdNltDQEBdNChbQ0gzXSlbQ0gyXVtDSDJdW0NIMl1ONltDSDJdW0NIMl01

>  <s_epik_cmdline>  (38) 
J2VwaWtfcHl0aG9uJywgJy1waHQnLCAnMi4wJywgJy1waCcsICc3LjAnLCAnLXRuJywgJzgnLCAnLW1hJywgJzIwMCcsICctaW1hZScsICc8aW5maWxlLm1hZT4nLCAnLW9tYWUnLCAnPG91dGZpbGUubWFlPic=

>  <r_epik_Ionization_Penalty>  (38) 
0.0379006

>  <r_epik_Ionization_Penalty_Charging>  (38) 
0.0379006

>  <r_epik_Ionization_Penalty_Neutral>  (38) 
0

>  <r_epik_State_Penalty>  (38) 
0.0298404

>  <r_epik_Charging_Adjusted_Penalty>  (38) 
0.067741

>  <i_epik_Tot_Q>  (38) 
2

>  <i_epik_Tot_abs_Q>  (38) 
2

>  <s_lp_Force_Field>  (38) 
OPLS3e

>  <r_lp_Energy>  (38) 
167.279

>  <b_lp_Chiralities_Consistent>  (38) 
1

>  <s_lp_Variant>  (38) 
13:0-1

>  <s_i_glide_gridfile>  (38) 
pfpi4k_grid

>  <i_i_glide_lignum>  (38) 
17

>  <i_i_glide_rotatable_bonds>  (38) 
0

>  <r_i_docking_score>  (38) 
-3.53019

>  <r_i_glide_ligand_efficiency>  (38) 
-0.160463

>  <r_i_glide_ligand_efficiency_sa>  (38) 
-0.449624

>  <r_i_glide_ligand_efficiency_ln>  (38) 
-0.862907

>  <r_i_glide_gscore>  (38) 
-3.53019

>  <r_i_glide_lipo>  (38) 
-0.975071

>  <r_i_glide_hbond>  (38) 
0

>  <r_i_glide_metal>  (38) 
-0

>  <r_i_glide_rewards>  (38) 
-1.36035

>  <r_i_glide_evdw>  (38) 
-12.7676

>  <r_i_glide_ecoul>  (38) 
-3.42734

>  <r_i_glide_erotb>  (38) 
0

>  <r_i_glide_esite>  (38) 
-0.0422817

>  <r_i_glide_emodel>  (38) 
-19.5514

>  <r_i_glide_energy>  (38) 
-16.195

>  <r_i_glide_einternal>  (38) 
0

>  <r_i_glide_intrahb_reward>  (38) 
-0

>  <i_i_glide_confnum>  (38) 
1

>  <i_i_glide_posenum>  (38) 
36

>  <r_i_glide_eff_state_penalty>  (38) 
0

>  <ligand_id>  (38) 
13

>  <original_smiles>  (38) 
C=C1CC23CCN4CCCC15C4C2C1(C)CCCN(CC3)C15

>  <smiles>  (38) 
[H]C([H])=C1C([H])([H])C23C([H])([H])C([H])([H])[N+]4([H])C([H])([H])C([H])([H])C([H])([H])C15C4([H])C2([H])C1(C([H])([H])[H])C([H])([H])C([H])([H])C([H])([H])[N+]([H])(C([H])([H])C3([H])[H])C51[H]

$$$$
13:0:2
     RDKit          3D

 54 59  0  0  1  0  0  0  0  0999 V2000
    5.6009   -0.8431    2.3673 C   0  0  0  0  0  0  0  0  0  0  0  0
    5.4303   -2.0183    1.7295 C   0  0  0  0  0  0  0  0  0  0  0  0
    6.5914   -2.7844    1.1863 C   0  0  0  0  0  0  0  0  0  0  0  0
    6.1810   -3.8457    0.0852 C   0  0  1  0  0  0  0  0  0  0  0  0
    6.9121   -5.1116    0.5545 C   0  0  0  0  0  0  0  0  0  0  0  0
    6.3672   -5.5622    1.9607 C   0  0  0  0  0  0  0  0  0  0  0  0
    5.0458   -5.0115    2.3890 N   0  0  1  0  0  0  0  0  0  0  0  0
    4.9684   -4.3010    3.6990 C   0  0  0  0  0  0  0  0  0  0  0  0
    3.6251   -3.5116    3.8906 C   0  0  0  0  0  0  0  0  0  0  0  0
    3.1760   -2.5821    2.7064 C   0  0  0  0  0  0  0  0  0  0  0  0
    4.1295   -2.7208    1.4814 C   0  0  2  0  0  0  0  0  0  0  0  0
    4.2513   -4.2770    1.3616 C   0  0  1  0  0  0  0  0  0  0  0  0
    4.6982   -4.4001   -0.0639 C   0  0  1  0  0  0  0  0  0  0  0  0
    3.5786   -3.6010   -0.8069 C   0  0  2  0  0  0  0  0  0  0  0  0
    2.1834   -4.2146   -0.5888 C   0  0  0  0  0  0  0  0  0  0  0  0
    3.6840   -3.4287   -2.3751 C   0  0  0  0  0  0  0  0  0  0  0  0
    3.1997   -2.0728   -2.8781 C   0  0  0  0  0  0  0  0  0  0  0  0
    3.7421   -0.9409   -2.0362 C   0  0  0  0  0  0  0  0  0  0  0  0
    4.5190   -1.3760   -0.8353 N   0  0  2  0  0  0  0  0  0  0  0  0
    5.9181   -1.7255   -1.2754 C   0  0  0  0  0  0  0  0  0  0  0  0
    6.5731   -3.1511   -1.1920 C   0  0  0  0  0  0  0  0  0  0  0  0
    3.6609   -2.3055   -0.0093 C   0  0  2  0  0  0  0  0  0  0  0  0
    4.7698   -0.2764    2.7618 H   0  0  0  0  0  0  0  0  0  0  0  0
    6.5902   -0.4347    2.5047 H   0  0  0  0  0  0  0  0  0  0  0  0
    7.3894   -2.1106    0.8673 H   0  0  0  0  0  0  0  0  0  0  0  0
    7.0290   -3.2349    2.0575 H   0  0  0  0  0  0  0  0  0  0  0  0
    6.7191   -5.9168   -0.1505 H   0  0  0  0  0  0  0  0  0  0  0  0
    7.9873   -4.9669    0.5756 H   0  0  0  0  0  0  0  0  0  0  0  0
    6.2866   -6.6610    1.9514 H   0  0  0  0  0  0  0  0  0  0  0  0
    7.1314   -5.3499    2.7225 H   0  0  0  0  0  0  0  0  0  0  0  0
    5.0832   -5.0361    4.5054 H   0  0  0  0  0  0  0  0  0  0  0  0
    5.8075   -3.6078    3.8293 H   0  0  0  0  0  0  0  0  0  0  0  0
    2.8298   -4.2379    4.0705 H   0  0  0  0  0  0  0  0  0  0  0  0
    3.6921   -2.9249    4.8059 H   0  0  0  0  0  0  0  0  0  0  0  0
    2.1721   -2.8738    2.4128 H   0  0  0  0  0  0  0  0  0  0  0  0
    3.0802   -1.5531    3.0354 H   0  0  0  0  0  0  0  0  0  0  0  0
    3.2954   -4.7721    1.5088 H   0  0  0  0  0  0  0  0  0  0  0  0
    4.6564   -5.4268   -0.4244 H   0  0  0  0  0  0  0  0  0  0  0  0
    1.4343   -3.7682   -1.2532 H   0  0  0  0  0  0  0  0  0  0  0  0
    1.8104   -4.0049    0.4066 H   0  0  0  0  0  0  0  0  0  0  0  0
    2.1604   -5.2936   -0.7218 H   0  0  0  0  0  0  0  0  0  0  0  0
    4.6623   -3.6039   -2.7830 H   0  0  0  0  0  0  0  0  0  0  0  0
    3.0654   -4.1351   -2.9166 H   0  0  0  0  0  0  0  0  0  0  0  0
    3.4694   -1.9261   -3.9217 H   0  0  0  0  0  0  0  0  0  0  0  0
    2.1123   -2.0276   -2.8379 H   0  0  0  0  0  0  0  0  0  0  0  0
    4.2831   -0.1897   -2.6309 H   0  0  0  0  0  0  0  0  0  0  0  0
    2.8073   -0.4867   -1.7324 H   0  0  0  0  0  0  0  0  0  0  0  0
    6.0321   -1.4529   -2.3162 H   0  0  0  0  0  0  0  0  0  0  0  0
    6.5693   -1.0246   -0.7424 H   0  0  0  0  0  0  0  0  0  0  0  0
    7.6487   -2.9830   -1.1902 H   0  0  0  0  0  0  0  0  0  0  0  0
    6.4614   -3.7848   -2.0682 H   0  0  0  0  0  0  0  0  0  0  0  0
    2.6796   -1.8302    0.0965 H   0  0  0  0  0  0  0  0  0  0  0  0
    4.6223   -0.5460   -0.2804 H   0  0  0  0  0  0  0  0  0  0  0  0
    4.4967   -5.8476    2.5295 H   0  0  0  0  0  0  0  0  0  0  0  0
  1  2  2  0
  1 23  1  0
  1 24  1  0
  2 11  1  0
  2  3  1  0
  4  3  1  1
  3 25  1  0
  3 26  1  0
  4 13  1  0
  4 21  1  0
  4  5  1  0
  5  6  1  0
  5 27  1  0
  5 28  1  0
  6  7  1  0
  6 29  1  0
  6 30  1  0
  7 12  1  0
  7  8  1  0
  7 54  1  1
  8  9  1  0
  8 31  1  0
  8 32  1  0
  9 10  1  0
  9 33  1  0
  9 34  1  0
 11 10  1  1
 10 35  1  0
 10 36  1  0
 11 22  1  0
 11 12  1  0
 12 13  1  0
 12 37  1  6
 13 14  1  0
 13 38  1  6
 14 22  1  0
 14 15  1  6
 14 16  1  0
 15 39  1  0
 15 40  1  0
 15 41  1  0
 16 17  1  0
 16 42  1  0
 16 43  1  0
 17 18  1  0
 17 44  1  0
 17 45  1  0
 18 19  1  0
 18 46  1  0
 18 47  1  0
 19 20  1  0
 19 22  1  0
 19 53  1  1
 20 21  1  0
 20 48  1  0
 20 49  1  0
 21 50  1  0
 21 51  1  0
 22 52  1  1
M  CHG  2   7   1  19   1
M  END
>  <i_m_ct_stereo_status>  (39) 
1

>  <s_m_source_file>  (39) 
/var/tmp/pbs.5076255.sched01/tmpu3exd1vk/0t_9me_9p.sdf

>  <i_m_source_file_index>  (39) 
17

>  <i_lp_mmshare_version>  (39) 
48012

>  <i_f3d_flags>  (39) 
0

>  <s_epik_input>  (39) 
W0NIMl0xW0NIMl1OMltDSDJdW0NIMl1bQ0gyXVtDQEBdKEMoPVtDSDJdKVtDSDJdMykoW0NASF0yW0NAQEhdNFtDQF0xMzUpW0NAQEhdNltDQEBdNChbQ0gzXSlbQ0gyXVtDSDJdW0NIMl1ONltDSDJdW0NIMl01

>  <s_epik_cmdline>  (39) 
J2VwaWtfcHl0aG9uJywgJy1waHQnLCAnMi4wJywgJy1waCcsICc3LjAnLCAnLXRuJywgJzgnLCAnLW1hJywgJzIwMCcsICctaW1hZScsICc8aW5maWxlLm1hZT4nLCAnLW9tYWUnLCAnPG91dGZpbGUubWFlPic=

>  <r_epik_Ionization_Penalty>  (39) 
0.0379006

>  <r_epik_Ionization_Penalty_Charging>  (39) 
0.0379006

>  <r_epik_Ionization_Penalty_Neutral>  (39) 
0

>  <r_epik_State_Penalty>  (39) 
0.0298404

>  <r_epik_Charging_Adjusted_Penalty>  (39) 
0.067741

>  <i_epik_Tot_Q>  (39) 
2

>  <i_epik_Tot_abs_Q>  (39) 
2

>  <s_lp_Force_Field>  (39) 
OPLS3e

>  <r_lp_Energy>  (39) 
167.279

>  <b_lp_Chiralities_Consistent>  (39) 
1

>  <s_lp_Variant>  (39) 
13:0-1

>  <s_i_glide_gridfile>  (39) 
pfpi4k_grid

>  <i_i_glide_lignum>  (39) 
17

>  <i_i_glide_rotatable_bonds>  (39) 
0

>  <r_i_docking_score>  (39) 
-3.21488

>  <r_i_glide_ligand_efficiency>  (39) 
-0.146131

>  <r_i_glide_ligand_efficiency_sa>  (39) 
-0.409465

>  <r_i_glide_ligand_efficiency_ln>  (39) 
-0.785834

>  <r_i_glide_gscore>  (39) 
-3.21488

>  <r_i_glide_lipo>  (39) 
-0.629163

>  <r_i_glide_hbond>  (39) 
0

>  <r_i_glide_metal>  (39) 
-0

>  <r_i_glide_rewards>  (39) 
-1.36035

>  <r_i_glide_evdw>  (39) 
-12.9298

>  <r_i_glide_ecoul>  (39) 
-3.58227

>  <r_i_glide_erotb>  (39) 
0

>  <r_i_glide_esite>  (39) 
-0.0415326

>  <r_i_glide_emodel>  (39) 
-19.4137

>  <r_i_glide_energy>  (39) 
-16.5121

>  <r_i_glide_einternal>  (39) 
0

>  <r_i_glide_intrahb_reward>  (39) 
-0

>  <i_i_glide_confnum>  (39) 
1

>  <i_i_glide_posenum>  (39) 
13

>  <r_i_glide_eff_state_penalty>  (39) 
0

>  <ligand_id>  (39) 
13

>  <original_smiles>  (39) 
C=C1CC23CCN4CCCC15C4C2C1(C)CCCN(CC3)C15

>  <smiles>  (39) 
[H]C([H])=C1C([H])([H])C23C([H])([H])C([H])([H])[N+]4([H])C([H])([H])C([H])([H])C([H])([H])C15C4([H])C2([H])C1(C([H])([H])[H])C([H])([H])C([H])([H])C([H])([H])[N+]([H])(C([H])([H])C3([H])[H])C51[H]

$$$$
13:1:0
     RDKit          3D

 53 58  0  0  1  0  0  0  0  0999 V2000
    5.0687   -0.5798    2.0408 C   0  0  0  0  0  0  0  0  0  0  0  0
    4.7690   -1.7736    1.5337 C   0  0  0  0  0  0  0  0  0  0  0  0
    5.7697   -2.8851    1.4537 C   0  0  0  0  0  0  0  0  0  0  0  0
    5.3571   -4.0012    0.4049 C   0  0  1  0  0  0  0  0  0  0  0  0
    5.5102   -5.3209    1.2065 C   0  0  0  0  0  0  0  0  0  0  0  0
    4.4255   -5.3917    2.3591 C   0  0  0  0  0  0  0  0  0  0  0  0
    3.4913   -4.2455    2.3308 N   0  0  0  0  0  0  0  0  0  0  0  0
    2.6337   -3.7930    3.4168 C   0  0  0  0  0  0  0  0  0  0  0  0
    2.3298   -2.2537    3.2890 C   0  0  0  0  0  0  0  0  0  0  0  0
    2.2582   -1.6250    1.8450 C   0  0  0  0  0  0  0  0  0  0  0  0
    3.4127   -2.1725    0.9576 C   0  0  2  0  0  0  0  0  0  0  0  0
    3.1066   -3.6878    1.0495 C   0  0  1  0  0  0  0  0  0  0  0  0
    3.8661   -4.1877   -0.1316 C   0  0  1  0  0  0  0  0  0  0  0  0
    3.2472   -3.3157   -1.2834 C   0  0  2  0  0  0  0  0  0  0  0  0
    1.7316   -3.5480   -1.5051 C   0  0  0  0  0  0  0  0  0  0  0  0
    3.7731   -3.4449   -2.7510 C   0  0  0  0  0  0  0  0  0  0  0  0
    3.8149   -2.0980   -3.4762 C   0  0  0  0  0  0  0  0  0  0  0  0
    4.4183   -0.9812   -2.6086 C   0  0  0  0  0  0  0  0  0  0  0  0
    4.7559   -1.4241   -1.2370 N   0  0  2  0  0  0  0  0  0  0  0  0
    6.0884   -2.1738   -1.2454 C   0  0  0  0  0  0  0  0  0  0  0  0
    6.2342   -3.6515   -0.7575 C   0  0  0  0  0  0  0  0  0  0  0  0
    3.5022   -1.9637   -0.6158 C   0  0  2  0  0  0  0  0  0  0  0  0
    4.3427    0.2212    2.0947 H   0  0  0  0  0  0  0  0  0  0  0  0
    6.0626   -0.3736    2.4266 H   0  0  0  0  0  0  0  0  0  0  0  0
    6.7659   -2.4798    1.2869 H   0  0  0  0  0  0  0  0  0  0  0  0
    5.8514   -3.2753    2.4673 H   0  0  0  0  0  0  0  0  0  0  0  0
    5.3745   -6.1747    0.5402 H   0  0  0  0  0  0  0  0  0  0  0  0
    6.5201   -5.4256    1.6061 H   0  0  0  0  0  0  0  0  0  0  0  0
    3.8831   -6.3357    2.3278 H   0  0  0  0  0  0  0  0  0  0  0  0
    4.9458   -5.3502    3.3131 H   0  0  0  0  0  0  0  0  0  0  0  0
    1.7089   -4.3635    3.3788 H   0  0  0  0  0  0  0  0  0  0  0  0
    3.0994   -4.0073    4.3812 H   0  0  0  0  0  0  0  0  0  0  0  0
    1.4031   -2.0378    3.8222 H   0  0  0  0  0  0  0  0  0  0  0  0
    3.1091   -1.7282    3.8423 H   0  0  0  0  0  0  0  0  0  0  0  0
    1.2992   -1.8656    1.3910 H   0  0  0  0  0  0  0  0  0  0  0  0
    2.2683   -0.5383    1.9045 H   0  0  0  0  0  0  0  0  0  0  0  0
    2.0502   -3.9157    0.9372 H   0  0  0  0  0  0  0  0  0  0  0  0
    3.6249   -5.2295   -0.3538 H   0  0  0  0  0  0  0  0  0  0  0  0
    1.3434   -3.0745   -2.4144 H   0  0  0  0  0  0  0  0  0  0  0  0
    1.1652   -3.0641   -0.7319 H   0  0  0  0  0  0  0  0  0  0  0  0
    1.4590   -4.6042   -1.5139 H   0  0  0  0  0  0  0  0  0  0  0  0
    4.7237   -3.9591   -2.8541 H   0  0  0  0  0  0  0  0  0  0  0  0
    3.1220   -4.0736   -3.3609 H   0  0  0  0  0  0  0  0  0  0  0  0
    4.4013   -2.2279   -4.3782 H   0  0  0  0  0  0  0  0  0  0  0  0
    2.8143   -1.8123   -3.8131 H   0  0  0  0  0  0  0  0  0  0  0  0
    5.3227   -0.6186   -3.0616 H   0  0  0  0  0  0  0  0  0  0  0  0
    3.7276   -0.1321   -2.5933 H   0  0  0  0  0  0  0  0  0  0  0  0
    6.5160   -2.2013   -2.2410 H   0  0  0  0  0  0  0  0  0  0  0  0
    6.7924   -1.5657   -0.6821 H   0  0  0  0  0  0  0  0  0  0  0  0
    7.2797   -3.8016   -0.4832 H   0  0  0  0  0  0  0  0  0  0  0  0
    6.0844   -4.3568   -1.5485 H   0  0  0  0  0  0  0  0  0  0  0  0
    2.7304   -1.2430   -0.8814 H   0  0  0  0  0  0  0  0  0  0  0  0
    4.9541   -0.5659   -0.7382 H   0  0  0  0  0  0  0  0  0  0  0  0
  1  2  2  0
  1 23  1  0
  1 24  1  0
  2 11  1  0
  2  3  1  0
  4  3  1  1
  3 25  1  0
  3 26  1  0
  4 13  1  0
  4 21  1  0
  4  5  1  0
  5  6  1  0
  5 27  1  0
  5 28  1  0
  6  7  1  0
  6 29  1  0
  6 30  1  0
  7 12  1  0
  7  8  1  0
  8  9  1  0
  8 31  1  0
  8 32  1  0
  9 10  1  0
  9 33  1  0
  9 34  1  0
 11 10  1  1
 10 35  1  0
 10 36  1  0
 11 22  1  0
 11 12  1  0
 12 13  1  0
 12 37  1  6
 13 14  1  0
 13 38  1  6
 14 22  1  0
 14 15  1  6
 14 16  1  0
 15 39  1  0
 15 40  1  0
 15 41  1  0
 16 17  1  0
 16 42  1  0
 16 43  1  0
 17 18  1  0
 17 44  1  0
 17 45  1  0
 18 19  1  0
 18 46  1  0
 18 47  1  0
 19 20  1  0
 19 22  1  0
 19 53  1  1
 20 21  1  0
 20 48  1  0
 20 49  1  0
 21 50  1  0
 21 51  1  0
 22 52  1  6
M  CHG  1  19   1
M  END
>  <i_m_ct_stereo_status>  (40) 
1

>  <s_m_source_file>  (40) 
/var/tmp/pbs.5076255.sched01/tmpu3exd1vk/0t_9me_9p.sdf

>  <i_m_source_file_index>  (40) 
18

>  <i_lp_mmshare_version>  (40) 
48012

>  <i_f3d_flags>  (40) 
0

>  <s_epik_input>  (40) 
W0NIMl0xW0NIMl1OMltDSDJdW0NIMl1bQ0gyXVtDQEBdKEMoPVtDSDJdKVtDSDJdMykoW0NASF0yW0NAQEhdNFtDQF0xMzUpW0NAQEhdNltDQEBdNChbQ0gzXSlbQ0gyXVtDSDJdW0NIMl1ONltDSDJdW0NIMl01

>  <s_epik_cmdline>  (40) 
J2VwaWtfcHl0aG9uJywgJy1waHQnLCAnMi4wJywgJy1waCcsICc3LjAnLCAnLXRuJywgJzgnLCAnLW1hJywgJzIwMCcsICctaW1hZScsICc8aW5maWxlLm1hZT4nLCAnLW9tYWUnLCAnPG91dGZpbGUubWFlPic=

>  <r_epik_Ionization_Penalty>  (40) 
2.04774

>  <r_epik_Ionization_Penalty_Charging>  (40) 
0.00025266

>  <r_epik_Ionization_Penalty_Neutral>  (40) 
2.04749

>  <r_epik_State_Penalty>  (40) 
2.1944

>  <r_epik_Charging_Adjusted_Penalty>  (40) 
2.19465

>  <i_epik_Tot_Q>  (40) 
1

>  <i_epik_Tot_abs_Q>  (40) 
1

>  <s_lp_Force_Field>  (40) 
OPLS3e

>  <r_lp_Energy>  (40) 
153.927

>  <b_lp_Chiralities_Consistent>  (40) 
1

>  <s_lp_Variant>  (40) 
13:0-2

>  <s_i_glide_gridfile>  (40) 
pfpi4k_grid

>  <i_i_glide_lignum>  (40) 
18

>  <i_i_glide_rotatable_bonds>  (40) 
0

>  <r_i_docking_score>  (40) 
-3.30921

>  <r_i_glide_ligand_efficiency>  (40) 
-0.150419

>  <r_i_glide_ligand_efficiency_sa>  (40) 
-0.421479

>  <r_i_glide_ligand_efficiency_ln>  (40) 
-0.808892

>  <r_i_glide_gscore>  (40) 
-3.30921

>  <r_i_glide_lipo>  (40) 
-0.745147

>  <r_i_glide_hbond>  (40) 
0

>  <r_i_glide_metal>  (40) 
-0

>  <r_i_glide_rewards>  (40) 
-1.36723

>  <r_i_glide_evdw>  (40) 
-18.1072

>  <r_i_glide_ecoul>  (40) 
-1.66168

>  <r_i_glide_erotb>  (40) 
0

>  <r_i_glide_esite>  (40) 
-0.0422248

>  <r_i_glide_emodel>  (40) 
-20.938

>  <r_i_glide_energy>  (40) 
-19.7689

>  <r_i_glide_einternal>  (40) 
0

>  <r_i_glide_intrahb_reward>  (40) 
-0

>  <i_i_glide_confnum>  (40) 
2

>  <i_i_glide_posenum>  (40) 
18

>  <r_i_glide_eff_state_penalty>  (40) 
0

>  <ligand_id>  (40) 
13

>  <original_smiles>  (40) 
C=C1CC23CCN4CCCC15C4C2C1(C)CCCN(CC3)C15

>  <smiles>  (40) 
[H]C([H])=C1C([H])([H])C23C([H])([H])C([H])([H])N4C([H])([H])C([H])([H])C([H])([H])C15C4([H])C2([H])C1(C([H])([H])[H])C([H])([H])C([H])([H])C([H])([H])[N+]([H])(C([H])([H])C3([H])[H])C51[H]

$$$$
13:1:1
     RDKit          3D

 53 58  0  0  1  0  0  0  0  0999 V2000
    5.1346   -0.6627    2.1706 C   0  0  0  0  0  0  0  0  0  0  0  0
    5.0757   -1.8419    1.5317 C   0  0  0  0  0  0  0  0  0  0  0  0
    6.3004   -2.5434    1.0385 C   0  0  0  0  0  0  0  0  0  0  0  0
    5.9735   -3.6445   -0.0573 C   0  0  1  0  0  0  0  0  0  0  0  0
    6.7141   -4.8972    0.4882 C   0  0  0  0  0  0  0  0  0  0  0  0
    6.0554   -5.4213    1.8255 C   0  0  0  0  0  0  0  0  0  0  0  0
    4.8637   -4.6414    2.1959 N   0  0  0  0  0  0  0  0  0  0  0  0
    4.2205   -4.6047    3.5015 C   0  0  0  0  0  0  0  0  0  0  0  0
    3.4492   -3.2478    3.7010 C   0  0  0  0  0  0  0  0  0  0  0  0
    2.8161   -2.5625    2.4272 C   0  0  0  0  0  0  0  0  0  0  0  0
    3.8130   -2.6166    1.2322 C   0  0  2  0  0  0  0  0  0  0  0  0
    3.9990   -4.1520    1.1406 C   0  0  1  0  0  0  0  0  0  0  0  0
    4.5111   -4.2720   -0.2530 C   0  0  1  0  0  0  0  0  0  0  0  0
    3.3657   -3.5439   -1.0475 C   0  0  2  0  0  0  0  0  0  0  0  0
    1.9600   -4.2015   -0.8685 C   0  0  0  0  0  0  0  0  0  0  0  0
    3.5153   -3.3764   -2.6123 C   0  0  0  0  0  0  0  0  0  0  0  0
    2.9900   -2.0504   -3.1427 C   0  0  0  0  0  0  0  0  0  0  0  0
    3.4518   -0.8812   -2.3013 C   0  0  0  0  0  0  0  0  0  0  0  0
    4.2133   -1.2843   -1.0917 N   0  0  2  0  0  0  0  0  0  0  0  0
    5.6382   -1.5558   -1.4940 C   0  0  0  0  0  0  0  0  0  0  0  0
    6.3713   -2.9451   -1.3402 C   0  0  0  0  0  0  0  0  0  0  0  0
    3.4168   -2.2497   -0.2631 C   0  0  2  0  0  0  0  0  0  0  0  0
    4.2470   -0.1489    2.5152 H   0  0  0  0  0  0  0  0  0  0  0  0
    6.0863   -0.1831    2.3475 H   0  0  0  0  0  0  0  0  0  0  0  0
    7.0538   -1.8205    0.7287 H   0  0  0  0  0  0  0  0  0  0  0  0
    6.7490   -2.9694    1.9309 H   0  0  0  0  0  0  0  0  0  0  0  0
    6.6304   -5.7003   -0.2384 H   0  0  0  0  0  0  0  0  0  0  0  0
    7.7799   -4.7039    0.6156 H   0  0  0  0  0  0  0  0  0  0  0  0
    5.8250   -6.4855    1.7508 H   0  0  0  0  0  0  0  0  0  0  0  0
    6.7781   -5.2991    2.6330 H   0  0  0  0  0  0  0  0  0  0  0  0
    3.5294   -5.4435    3.5743 H   0  0  0  0  0  0  0  0  0  0  0  0
    4.9681   -4.7317    4.2863 H   0  0  0  0  0  0  0  0  0  0  0  0
    2.6741   -3.3917    4.4610 H   0  0  0  0  0  0  0  0  0  0  0  0
    4.1531   -2.5377    4.1409 H   0  0  0  0  0  0  0  0  0  0  0  0
    1.8893   -3.0785    2.1747 H   0  0  0  0  0  0  0  0  0  0  0  0
    2.5127   -1.5430    2.6664 H   0  0  0  0  0  0  0  0  0  0  0  0
    3.0825   -4.7177    1.2569 H   0  0  0  0  0  0  0  0  0  0  0  0
    4.5391   -5.3100   -0.6018 H   0  0  0  0  0  0  0  0  0  0  0  0
    1.2174   -3.7917   -1.5588 H   0  0  0  0  0  0  0  0  0  0  0  0
    1.5829   -4.0520    0.1231 H   0  0  0  0  0  0  0  0  0  0  0  0
    1.9329   -5.2783   -0.9770 H   0  0  0  0  0  0  0  0  0  0  0  0
    4.5118   -3.5413   -2.9921 H   0  0  0  0  0  0  0  0  0  0  0  0
    2.9271   -4.1442   -3.1690 H   0  0  0  0  0  0  0  0  0  0  0  0
    3.2877   -1.9110   -4.1836 H   0  0  0  0  0  0  0  0  0  0  0  0
    1.8966   -2.0788   -3.1534 H   0  0  0  0  0  0  0  0  0  0  0  0
    3.9813   -0.1420   -2.8979 H   0  0  0  0  0  0  0  0  0  0  0  0
    2.5387   -0.3846   -2.0201 H   0  0  0  0  0  0  0  0  0  0  0  0
    5.7712   -1.3242   -2.5405 H   0  0  0  0  0  0  0  0  0  0  0  0
    6.2068   -0.7896   -0.9792 H   0  0  0  0  0  0  0  0  0  0  0  0
    7.4431   -2.7430   -1.3021 H   0  0  0  0  0  0  0  0  0  0  0  0
    6.3124   -3.6188   -2.1931 H   0  0  0  0  0  0  0  0  0  0  0  0
    2.4258   -1.8636   -0.1101 H   0  0  0  0  0  0  0  0  0  0  0  0
    4.2724   -0.4594   -0.5297 H   0  0  0  0  0  0  0  0  0  0  0  0
  1  2  2  0
  1 23  1  0
  1 24  1  0
  2 11  1  0
  2  3  1  0
  4  3  1  1
  3 25  1  0
  3 26  1  0
  4 13  1  0
  4 21  1  0
  4  5  1  0
  5  6  1  0
  5 27  1  0
  5 28  1  0
  6  7  1  0
  6 29  1  0
  6 30  1  0
  7 12  1  0
  7  8  1  0
  8  9  1  0
  8 31  1  0
  8 32  1  0
  9 10  1  0
  9 33  1  0
  9 34  1  0
 11 10  1  1
 10 35  1  0
 10 36  1  0
 11 22  1  0
 11 12  1  0
 12 13  1  0
 12 37  1  6
 13 14  1  0
 13 38  1  6
 14 22  1  0
 14 15  1  6
 14 16  1  0
 15 39  1  0
 15 40  1  0
 15 41  1  0
 16 17  1  0
 16 42  1  0
 16 43  1  0
 17 18  1  0
 17 44  1  0
 17 45  1  0
 18 19  1  0
 18 46  1  0
 18 47  1  0
 19 20  1  0
 19 22  1  0
 19 53  1  1
 20 21  1  0
 20 48  1  0
 20 49  1  0
 21 50  1  0
 21 51  1  0
 22 52  1  1
M  CHG  1  19   1
M  END
>  <i_m_ct_stereo_status>  (41) 
1

>  <s_m_source_file>  (41) 
/var/tmp/pbs.5076255.sched01/tmpu3exd1vk/0t_9me_9p.sdf

>  <i_m_source_file_index>  (41) 
18

>  <i_lp_mmshare_version>  (41) 
48012

>  <i_f3d_flags>  (41) 
0

>  <s_epik_input>  (41) 
W0NIMl0xW0NIMl1OMltDSDJdW0NIMl1bQ0gyXVtDQEBdKEMoPVtDSDJdKVtDSDJdMykoW0NASF0yW0NAQEhdNFtDQF0xMzUpW0NAQEhdNltDQEBdNChbQ0gzXSlbQ0gyXVtDSDJdW0NIMl1ONltDSDJdW0NIMl01

>  <s_epik_cmdline>  (41) 
J2VwaWtfcHl0aG9uJywgJy1waHQnLCAnMi4wJywgJy1waCcsICc3LjAnLCAnLXRuJywgJzgnLCAnLW1hJywgJzIwMCcsICctaW1hZScsICc8aW5maWxlLm1hZT4nLCAnLW9tYWUnLCAnPG91dGZpbGUubWFlPic=

>  <r_epik_Ionization_Penalty>  (41) 
2.04774

>  <r_epik_Ionization_Penalty_Charging>  (41) 
0.00025266

>  <r_epik_Ionization_Penalty_Neutral>  (41) 
2.04749

>  <r_epik_State_Penalty>  (41) 
2.1944

>  <r_epik_Charging_Adjusted_Penalty>  (41) 
2.19465

>  <i_epik_Tot_Q>  (41) 
1

>  <i_epik_Tot_abs_Q>  (41) 
1

>  <s_lp_Force_Field>  (41) 
OPLS3e

>  <r_lp_Energy>  (41) 
153.927

>  <b_lp_Chiralities_Consistent>  (41) 
1

>  <s_lp_Variant>  (41) 
13:0-2

>  <s_i_glide_gridfile>  (41) 
pfpi4k_grid

>  <i_i_glide_lignum>  (41) 
18

>  <i_i_glide_rotatable_bonds>  (41) 
0

>  <r_i_docking_score>  (41) 
-2.94208

>  <r_i_glide_ligand_efficiency>  (41) 
-0.133731

>  <r_i_glide_ligand_efficiency_sa>  (41) 
-0.374719

>  <r_i_glide_ligand_efficiency_ln>  (41) 
-0.719152

>  <r_i_glide_gscore>  (41) 
-2.94208

>  <r_i_glide_lipo>  (41) 
-0.652264

>  <r_i_glide_hbond>  (41) 
0

>  <r_i_glide_metal>  (41) 
-0

>  <r_i_glide_rewards>  (41) 
-1.36723

>  <r_i_glide_evdw>  (41) 
-10.1453

>  <r_i_glide_ecoul>  (41) 
-2.46745

>  <r_i_glide_erotb>  (41) 
0

>  <r_i_glide_esite>  (41) 
-0.0452055

>  <r_i_glide_emodel>  (41) 
-13.5279

>  <r_i_glide_energy>  (41) 
-12.6128

>  <r_i_glide_einternal>  (41) 
0

>  <r_i_glide_intrahb_reward>  (41) 
-0

>  <i_i_glide_confnum>  (41) 
1

>  <i_i_glide_posenum>  (41) 
33

>  <r_i_glide_eff_state_penalty>  (41) 
0

>  <ligand_id>  (41) 
13

>  <original_smiles>  (41) 
C=C1CC23CCN4CCCC15C4C2C1(C)CCCN(CC3)C15

>  <smiles>  (41) 
[H]C([H])=C1C([H])([H])C23C([H])([H])C([H])([H])N4C([H])([H])C([H])([H])C([H])([H])C15C4([H])C2([H])C1(C([H])([H])[H])C([H])([H])C([H])([H])C([H])([H])[N+]([H])(C([H])([H])C3([H])[H])C51[H]

$$$$
13:2:0
     RDKit          3D

 53 58  0  0  1  0  0  0  0  0999 V2000
    5.2056   -0.5794    1.7311 C   0  0  0  0  0  0  0  0  0  0  0  0
    4.9132   -1.7609    1.1523 C   0  0  0  0  0  0  0  0  0  0  0  0
    5.9498   -2.7979    0.9269 C   0  0  0  0  0  0  0  0  0  0  0  0
    5.4877   -3.9074   -0.1006 C   0  0  1  0  0  0  0  0  0  0  0  0
    5.8008   -5.2182    0.6432 C   0  0  0  0  0  0  0  0  0  0  0  0
    4.9374   -5.3191    1.9500 C   0  0  0  0  0  0  0  0  0  0  0  0
    3.7036   -4.4377    2.0088 N   0  0  1  0  0  0  0  0  0  0  0  0
    3.5490   -3.5481    3.1993 C   0  0  0  0  0  0  0  0  0  0  0  0
    2.4272   -2.4784    3.0100 C   0  0  0  0  0  0  0  0  0  0  0  0
    2.4428   -1.6798    1.6594 C   0  0  0  0  0  0  0  0  0  0  0  0
    3.5387   -2.1980    0.6904 C   0  0  2  0  0  0  0  0  0  0  0  0
    3.3032   -3.7402    0.7611 C   0  0  1  0  0  0  0  0  0  0  0  0
    3.9648   -4.1579   -0.4950 C   0  0  1  0  0  0  0  0  0  0  0  0
    3.2148   -3.2679   -1.5525 C   0  0  2  0  0  0  0  0  0  0  0  0
    1.6863   -3.5149   -1.6028 C   0  0  0  0  0  0  0  0  0  0  0  0
    3.5902   -3.3715   -3.0742 C   0  0  0  0  0  0  0  0  0  0  0  0
    3.6138   -1.9937   -3.7697 C   0  0  0  0  0  0  0  0  0  0  0  0
    4.1732   -0.8575   -2.8830 C   0  0  0  0  0  0  0  0  0  0  0  0
    4.6708   -1.3526   -1.5984 N   0  0  0  0  0  0  0  0  0  0  0  0
    5.9198   -2.1198   -1.9069 C   0  0  0  0  0  0  0  0  0  0  0  0
    6.2537   -3.5142   -1.3450 C   0  0  0  0  0  0  0  0  0  0  0  0
    3.4874   -1.9163   -0.8843 C   0  0  2  0  0  0  0  0  0  0  0  0
    4.4636    0.1888    1.8781 H   0  0  0  0  0  0  0  0  0  0  0  0
    6.2194   -0.3622    2.0269 H   0  0  0  0  0  0  0  0  0  0  0  0
    6.8750   -2.3060    0.6355 H   0  0  0  0  0  0  0  0  0  0  0  0
    6.2055   -3.1868    1.9103 H   0  0  0  0  0  0  0  0  0  0  0  0
    5.5879   -6.0673   -0.0071 H   0  0  0  0  0  0  0  0  0  0  0  0
    6.8702   -5.2977    0.8734 H   0  0  0  0  0  0  0  0  0  0  0  0
    4.6182   -6.3434    2.0660 H   0  0  0  0  0  0  0  0  0  0  0  0
    5.5662   -5.1167    2.8066 H   0  0  0  0  0  0  0  0  0  0  0  0
    3.3388   -4.1507    4.0752 H   0  0  0  0  0  0  0  0  0  0  0  0
    4.4813   -3.0335    3.4176 H   0  0  0  0  0  0  0  0  0  0  0  0
    1.4596   -2.9793    3.0761 H   0  0  0  0  0  0  0  0  0  0  0  0
    2.4458   -1.7721    3.8376 H   0  0  0  0  0  0  0  0  0  0  0  0
    1.4557   -1.8234    1.2162 H   0  0  0  0  0  0  0  0  0  0  0  0
    2.5011   -0.5984    1.8225 H   0  0  0  0  0  0  0  0  0  0  0  0
    2.2502   -3.9768    0.7309 H   0  0  0  0  0  0  0  0  0  0  0  0
    3.7618   -5.2032   -0.7186 H   0  0  0  0  0  0  0  0  0  0  0  0
    1.2155   -3.0301   -2.4554 H   0  0  0  0  0  0  0  0  0  0  0  0
    1.1816   -3.0716   -0.7588 H   0  0  0  0  0  0  0  0  0  0  0  0
    1.4286   -4.5740   -1.6569 H   0  0  0  0  0  0  0  0  0  0  0  0
    4.5192   -3.9057   -3.2406 H   0  0  0  0  0  0  0  0  0  0  0  0
    2.8815   -3.9883   -3.6175 H   0  0  0  0  0  0  0  0  0  0  0  0
    4.2133   -2.0772   -4.6698 H   0  0  0  0  0  0  0  0  0  0  0  0
    2.6160   -1.7232   -4.1228 H   0  0  0  0  0  0  0  0  0  0  0  0
    4.9720   -0.3413   -3.4081 H   0  0  0  0  0  0  0  0  0  0  0  0
    3.3951   -0.1124   -2.7208 H   0  0  0  0  0  0  0  0  0  0  0  0
    6.0449   -2.2548   -2.9814 H   0  0  0  0  0  0  0  0  0  0  0  0
    6.7171   -1.4671   -1.5921 H   0  0  0  0  0  0  0  0  0  0  0  0
    7.3198   -3.5354   -1.1330 H   0  0  0  0  0  0  0  0  0  0  0  0
    6.1417   -4.2599   -2.1204 H   0  0  0  0  0  0  0  0  0  0  0  0
    2.6631   -1.2285   -1.0624 H   0  0  0  0  0  0  0  0  0  0  0  0
    2.9709   -5.1334    2.1208 H   0  0  0  0  0  0  0  0  0  0  0  0
  1  2  2  0
  1 23  1  0
  1 24  1  0
  2 11  1  0
  2  3  1  0
  4  3  1  1
  3 25  1  0
  3 26  1  0
  4 13  1  0
  4 21  1  0
  4  5  1  0
  5  6  1  0
  5 27  1  0
  5 28  1  0
  6  7  1  0
  6 29  1  0
  6 30  1  0
  7 12  1  0
  7  8  1  0
  7 53  1  1
  8  9  1  0
  8 31  1  0
  8 32  1  0
  9 10  1  0
  9 33  1  0
  9 34  1  0
 11 10  1  1
 10 35  1  0
 10 36  1  0
 11 22  1  0
 11 12  1  0
 12 13  1  0
 12 37  1  6
 13 14  1  0
 13 38  1  6
 14 22  1  0
 14 15  1  6
 14 16  1  0
 15 39  1  0
 15 40  1  0
 15 41  1  0
 16 17  1  0
 16 42  1  0
 16 43  1  0
 17 18  1  0
 17 44  1  0
 17 45  1  0
 18 19  1  0
 18 46  1  0
 18 47  1  0
 19 20  1  0
 19 22  1  0
 20 21  1  0
 20 48  1  0
 20 49  1  0
 21 50  1  0
 21 51  1  0
 22 52  1  1
M  CHG  1   7   1
M  END
>  <i_m_ct_stereo_status>  (42) 
1

>  <s_m_source_file>  (42) 
/var/tmp/pbs.5076255.sched01/tmpu3exd1vk/0t_9me_9p.sdf

>  <i_m_source_file_index>  (42) 
19

>  <i_lp_mmshare_version>  (42) 
48012

>  <i_f3d_flags>  (42) 
0

>  <s_epik_input>  (42) 
W0NIMl0xW0NIMl1OMltDSDJdW0NIMl1bQ0gyXVtDQEBdKEMoPVtDSDJdKVtDSDJdMykoW0NASF0yW0NAQEhdNFtDQF0xMzUpW0NAQEhdNltDQEBdNChbQ0gzXSlbQ0gyXVtDSDJdW0NIMl1ONltDSDJdW0NIMl01

>  <s_epik_cmdline>  (42) 
J2VwaWtfcHl0aG9uJywgJy1waHQnLCAnMi4wJywgJy1waCcsICc3LjAnLCAnLXRuJywgJzgnLCAnLW1hJywgJzIwMCcsICctaW1hZScsICc8aW5maWxlLm1hZT4nLCAnLW9tYWUnLCAnPG91dGZpbGUubWFlPic=

>  <r_epik_Ionization_Penalty>  (42) 
2.05097

>  <r_epik_Ionization_Penalty_Charging>  (42) 
0.000279972

>  <r_epik_Ionization_Penalty_Neutral>  (42) 
2.05069

>  <r_epik_State_Penalty>  (42) 
2.19792

>  <r_epik_Charging_Adjusted_Penalty>  (42) 
2.1982

>  <i_epik_Tot_Q>  (42) 
1

>  <i_epik_Tot_abs_Q>  (42) 
1

>  <s_lp_Force_Field>  (42) 
OPLS3e

>  <r_lp_Energy>  (42) 
158.108

>  <b_lp_Chiralities_Consistent>  (42) 
1

>  <s_lp_Variant>  (42) 
13:0-3

>  <s_i_glide_gridfile>  (42) 
pfpi4k_grid

>  <i_i_glide_lignum>  (42) 
19

>  <i_i_glide_rotatable_bonds>  (42) 
0

>  <r_i_docking_score>  (42) 
-3.49566

>  <r_i_glide_ligand_efficiency>  (42) 
-0.158894

>  <r_i_glide_ligand_efficiency_sa>  (42) 
-0.445226

>  <r_i_glide_ligand_efficiency_ln>  (42) 
-0.854467

>  <r_i_glide_gscore>  (42) 
-3.49566

>  <r_i_glide_lipo>  (42) 
-0.927539

>  <r_i_glide_hbond>  (42) 
0

>  <r_i_glide_metal>  (42) 
-0

>  <r_i_glide_rewards>  (42) 
-1.36723

>  <r_i_glide_evdw>  (42) 
-20.3555

>  <r_i_glide_ecoul>  (42) 
-1.22081

>  <r_i_glide_erotb>  (42) 
0

>  <r_i_glide_esite>  (42) 
0

>  <r_i_glide_emodel>  (42) 
-25.4411

>  <r_i_glide_energy>  (42) 
-21.5763

>  <r_i_glide_einternal>  (42) 
0

>  <r_i_glide_intrahb_reward>  (42) 
-0

>  <i_i_glide_confnum>  (42) 
1

>  <i_i_glide_posenum>  (42) 
36

>  <r_i_glide_eff_state_penalty>  (42) 
0

>  <ligand_id>  (42) 
13

>  <original_smiles>  (42) 
C=C1CC23CCN4CCCC15C4C2C1(C)CCCN(CC3)C15

>  <smiles>  (42) 
[H]C([H])=C1C([H])([H])C23C([H])([H])C([H])([H])N4C([H])([H])C([H])([H])C([H])([H])C5(C([H])([H])[H])C4([H])C14C([H])([H])C([H])([H])C([H])([H])[N+]([H])(C([H])([H])C2([H])[H])C4([H])C35[H]

$$$$
13:2:1
     RDKit          3D

 53 58  0  0  1  0  0  0  0  0999 V2000
    4.9150   -0.6775    2.7424 C   0  0  0  0  0  0  0  0  0  0  0  0
    4.7387   -1.8403    2.0810 C   0  0  0  0  0  0  0  0  0  0  0  0
    5.7950   -2.8829    2.0404 C   0  0  0  0  0  0  0  0  0  0  0  0
    5.5814   -3.9570    0.8936 C   0  0  1  0  0  0  0  0  0  0  0  0
    5.7268   -5.2922    1.6505 C   0  0  0  0  0  0  0  0  0  0  0  0
    4.5971   -5.4248    2.7414 C   0  0  0  0  0  0  0  0  0  0  0  0
    3.3782   -4.5455    2.5596 N   0  0  1  0  0  0  0  0  0  0  0  0
    2.9695   -3.6820    3.7141 C   0  0  0  0  0  0  0  0  0  0  0  0
    1.9111   -2.5947    3.3125 C   0  0  0  0  0  0  0  0  0  0  0  0
    2.2236   -1.7514    2.0210 C   0  0  0  0  0  0  0  0  0  0  0  0
    3.5055   -2.2499    1.3090 C   0  0  2  0  0  0  0  0  0  0  0  0
    3.2582   -3.7962    1.2758 C   0  0  1  0  0  0  0  0  0  0  0  0
    4.1753   -4.1857    0.1687 C   0  0  1  0  0  0  0  0  0  0  0  0
    3.6583   -3.2458   -0.9821 C   0  0  2  0  0  0  0  0  0  0  0  0
    2.1618   -3.4627   -1.3649 C   0  0  0  0  0  0  0  0  0  0  0  0
    4.3671   -3.3171   -2.3726 C   0  0  0  0  0  0  0  0  0  0  0  0
    4.5435   -1.9235   -3.0029 C   0  0  0  0  0  0  0  0  0  0  0  0
    4.9140   -0.8153   -1.9914 C   0  0  0  0  0  0  0  0  0  0  0  0
    5.1207   -1.3420   -0.6422 N   0  0  0  0  0  0  0  0  0  0  0  0
    6.4227   -2.0933   -0.6782 C   0  0  0  0  0  0  0  0  0  0  0  0
    6.6227   -3.5394   -0.1275 C   0  0  0  0  0  0  0  0  0  0  0  0
    3.7975   -1.9170   -0.2285 C   0  0  2  0  0  0  0  0  0  0  0  0
    4.1639    0.0952    2.7600 H   0  0  0  0  0  0  0  0  0  0  0  0
    5.8417   -0.4828    3.2606 H   0  0  0  0  0  0  0  0  0  0  0  0
    6.7567   -2.3842    1.9642 H   0  0  0  0  0  0  0  0  0  0  0  0
    5.8281   -3.3025    3.0428 H   0  0  0  0  0  0  0  0  0  0  0  0
    5.6594   -6.1269    0.9490 H   0  0  0  0  0  0  0  0  0  0  0  0
    6.7107   -5.3818    2.1163 H   0  0  0  0  0  0  0  0  0  0  0  0
    4.2534   -6.4614    2.7573 H   0  0  0  0  0  0  0  0  0  0  0  0
    5.0267   -5.2528    3.7316 H   0  0  0  0  0  0  0  0  0  0  0  0
    2.5686   -4.3141    4.5085 H   0  0  0  0  0  0  0  0  0  0  0  0
    3.8349   -3.1827    4.1535 H   0  0  0  0  0  0  0  0  0  0  0  0
    0.9532   -3.0948    3.1606 H   0  0  0  0  0  0  0  0  0  0  0  0
    1.7579   -1.9183    4.1538 H   0  0  0  0  0  0  0  0  0  0  0  0
    1.3808   -1.8566    1.3377 H   0  0  0  0  0  0  0  0  0  0  0  0
    2.2577   -0.6840    2.2423 H   0  0  0  0  0  0  0  0  0  0  0  0
    2.2295   -4.0279    1.0107 H   0  0  0  0  0  0  0  0  0  0  0  0
    4.0282   -5.2199   -0.1488 H   0  0  0  0  0  0  0  0  0  0  0  0
    1.9004   -2.9307   -2.2823 H   0  0  0  0  0  0  0  0  0  0  0  0
    1.4660   -3.0548   -0.6383 H   0  0  0  0  0  0  0  0  0  0  0  0
    1.9032   -4.5095   -1.5132 H   0  0  0  0  0  0  0  0  0  0  0  0
    5.3178   -3.8305   -2.3401 H   0  0  0  0  0  0  0  0  0  0  0  0
    3.8039   -3.9251   -3.0764 H   0  0  0  0  0  0  0  0  0  0  0  0
    5.3246   -2.0064   -3.7499 H   0  0  0  0  0  0  0  0  0  0  0  0
    3.6515   -1.6234   -3.5534 H   0  0  0  0  0  0  0  0  0  0  0  0
    5.8072   -0.2869   -2.3212 H   0  0  0  0  0  0  0  0  0  0  0  0
    4.1304   -0.0614   -1.9735 H   0  0  0  0  0  0  0  0  0  0  0  0
    6.8074   -2.1359   -1.6983 H   0  0  0  0  0  0  0  0  0  0  0  0
    7.1334   -1.4508   -0.1655 H   0  0  0  0  0  0  0  0  0  0  0  0
    7.6146   -3.5934    0.3249 H   0  0  0  0  0  0  0  0  0  0  0  0
    6.6777   -4.2515   -0.9272 H   0  0  0  0  0  0  0  0  0  0  0  0
    3.0186   -1.2199   -0.5431 H   0  0  0  0  0  0  0  0  0  0  0  0
    2.6378   -5.2308    2.4903 H   0  0  0  0  0  0  0  0  0  0  0  0
  1  2  2  0
  1 23  1  0
  1 24  1  0
  2 11  1  0
  2  3  1  0
  4  3  1  1
  3 25  1  0
  3 26  1  0
  4 13  1  0
  4 21  1  0
  4  5  1  0
  5  6  1  0
  5 27  1  0
  5 28  1  0
  6  7  1  0
  6 29  1  0
  6 30  1  0
  7 12  1  0
  7  8  1  0
  7 53  1  6
  8  9  1  0
  8 31  1  0
  8 32  1  0
  9 10  1  0
  9 33  1  0
  9 34  1  0
 11 10  1  1
 10 35  1  0
 10 36  1  0
 11 22  1  0
 11 12  1  0
 12 13  1  0
 12 37  1  6
 13 14  1  0
 13 38  1  6
 14 22  1  0
 14 15  1  6
 14 16  1  0
 15 39  1  0
 15 40  1  0
 15 41  1  0
 16 17  1  0
 16 42  1  0
 16 43  1  0
 17 18  1  0
 17 44  1  0
 17 45  1  0
 18 19  1  0
 18 46  1  0
 18 47  1  0
 19 20  1  0
 19 22  1  0
 20 21  1  0
 20 48  1  0
 20 49  1  0
 21 50  1  0
 21 51  1  0
 22 52  1  6
M  CHG  1   7   1
M  END
>  <i_m_ct_stereo_status>  (43) 
1

>  <s_m_source_file>  (43) 
/var/tmp/pbs.5076255.sched01/tmpu3exd1vk/0t_9me_9p.sdf

>  <i_m_source_file_index>  (43) 
19

>  <i_lp_mmshare_version>  (43) 
48012

>  <i_f3d_flags>  (43) 
0

>  <s_epik_input>  (43) 
W0NIMl0xW0NIMl1OMltDSDJdW0NIMl1bQ0gyXVtDQEBdKEMoPVtDSDJdKVtDSDJdMykoW0NASF0yW0NAQEhdNFtDQF0xMzUpW0NAQEhdNltDQEBdNChbQ0gzXSlbQ0gyXVtDSDJdW0NIMl1ONltDSDJdW0NIMl01

>  <s_epik_cmdline>  (43) 
J2VwaWtfcHl0aG9uJywgJy1waHQnLCAnMi4wJywgJy1waCcsICc3LjAnLCAnLXRuJywgJzgnLCAnLW1hJywgJzIwMCcsICctaW1hZScsICc8aW5maWxlLm1hZT4nLCAnLW9tYWUnLCAnPG91dGZpbGUubWFlPic=

>  <r_epik_Ionization_Penalty>  (43) 
2.05097

>  <r_epik_Ionization_Penalty_Charging>  (43) 
0.000279972

>  <r_epik_Ionization_Penalty_Neutral>  (43) 
2.05069

>  <r_epik_State_Penalty>  (43) 
2.19792

>  <r_epik_Charging_Adjusted_Penalty>  (43) 
2.1982

>  <i_epik_Tot_Q>  (43) 
1

>  <i_epik_Tot_abs_Q>  (43) 
1

>  <s_lp_Force_Field>  (43) 
OPLS3e

>  <r_lp_Energy>  (43) 
158.108

>  <b_lp_Chiralities_Consistent>  (43) 
1

>  <s_lp_Variant>  (43) 
13:0-3

>  <s_i_glide_gridfile>  (43) 
pfpi4k_grid

>  <i_i_glide_lignum>  (43) 
19

>  <i_i_glide_rotatable_bonds>  (43) 
0

>  <r_i_docking_score>  (43) 
-3.25684

>  <r_i_glide_ligand_efficiency>  (43) 
-0.148038

>  <r_i_glide_ligand_efficiency_sa>  (43) 
-0.414809

>  <r_i_glide_ligand_efficiency_ln>  (43) 
-0.79609

>  <r_i_glide_gscore>  (43) 
-3.25684

>  <r_i_glide_lipo>  (43) 
-0.569584

>  <r_i_glide_hbond>  (43) 
0

>  <r_i_glide_metal>  (43) 
-0

>  <r_i_glide_rewards>  (43) 
-1.36723

>  <r_i_glide_evdw>  (43) 
-21.7487

>  <r_i_glide_ecoul>  (43) 
-1.55063

>  <r_i_glide_erotb>  (43) 
0

>  <r_i_glide_esite>  (43) 
0

>  <r_i_glide_emodel>  (43) 
-27.0497

>  <r_i_glide_energy>  (43) 
-23.2993

>  <r_i_glide_einternal>  (43) 
0

>  <r_i_glide_intrahb_reward>  (43) 
-0

>  <i_i_glide_confnum>  (43) 
1

>  <i_i_glide_posenum>  (43) 
1

>  <r_i_glide_eff_state_penalty>  (43) 
0

>  <ligand_id>  (43) 
13

>  <original_smiles>  (43) 
C=C1CC23CCN4CCCC15C4C2C1(C)CCCN(CC3)C15

>  <smiles>  (43) 
[H]C([H])=C1C([H])([H])C23C([H])([H])C([H])([H])N4C([H])([H])C([H])([H])C([H])([H])C5(C([H])([H])[H])C4([H])C14C([H])([H])C([H])([H])C([H])([H])[N+]([H])(C([H])([H])C2([H])[H])C4([H])C35[H]

$$$$
14:0:0
     RDKit          3D

 72 79  0  0  1  0  0  0  0  0999 V2000
    4.7788   -4.6522    6.1330 C   0  0  0  0  0  0  0  0  0  0  0  0
    3.5213   -4.3420    5.2942 C   0  0  2  0  0  0  0  0  0  0  0  0
    3.7743   -4.6117    3.8008 C   0  0  0  0  0  0  0  0  0  0  0  0
    3.9689   -5.7516    3.3881 O   0  0  0  0  0  0  0  0  0  0  0  0
    3.6193   -3.3860    2.9147 C   0  0  1  0  0  0  0  0  0  0  0  0
    4.3354   -2.1830    3.5723 C   0  0  1  0  0  0  0  0  0  0  0  0
    5.0370   -1.3336    2.4534 C   0  0  1  0  0  0  0  0  0  0  0  0
    5.1109   -2.5144    1.7804 O   0  0  0  0  0  0  0  0  0  0  0  0
    3.9726   -3.2494    1.4108 C   0  0  2  0  0  0  0  0  0  0  0  0
    2.7850   -2.4139    0.8590 C   0  0  0  0  0  0  0  0  0  0  0  0
    3.0871   -0.9088    0.9608 C   0  0  0  0  0  0  0  0  0  0  0  0
    4.6012   -0.6922    1.0935 C   0  0  2  0  0  0  0  0  0  0  0  0
    5.4488   -1.1408   -0.2418 C   0  0  1  0  0  0  0  0  0  0  0  0
    6.7882   -2.0842   -0.3396 C   0  0  1  0  0  0  0  0  0  0  0  0
    7.2614   -3.1548    0.6959 C   0  0  0  0  0  0  0  0  0  0  0  0
    6.3108   -4.4038    0.7629 C   0  0  1  0  0  0  0  0  0  0  0  0
    6.4276   -5.0196    2.0230 O   0  0  0  0  0  0  0  0  0  0  0  0
    4.8230   -4.0842    0.3074 C   0  0  1  0  0  0  0  0  0  0  0  0
    4.0944   -5.4209    0.0665 C   0  0  0  0  0  0  0  0  0  0  0  0
    4.9934   -3.3568   -1.1699 C   0  0  2  0  0  0  0  0  0  0  0  0
    6.4766   -3.0319   -1.5036 C   0  0  0  0  0  0  0  0  0  0  0  0
    4.6362   -1.8575   -1.3350 C   0  0  1  0  0  0  0  0  0  0  0  0
    3.3988   -1.4371   -1.8479 O   0  0  0  0  0  0  0  0  0  0  0  0
    3.6671   -1.6639    4.8895 C   0  0  1  0  0  0  0  0  0  0  0  0
    4.7269   -1.1323    5.8866 C   0  0  0  0  0  0  0  0  0  0  0  0
    2.7787   -0.4302    4.5721 C   0  0  0  0  0  0  0  0  0  0  0  0
    3.2840    0.5284    4.0459 O   0  0  0  0  0  0  0  0  0  0  0  0
    1.4604   -0.4390    4.9093 N   0  0  0  0  0  0  0  0  0  0  0  0
    0.5271    0.6141    4.5309 C   0  0  0  0  0  0  0  0  0  0  0  0
   -0.8242    0.1772    5.1258 C   0  0  0  0  0  0  0  0  0  0  0  0
   -0.6923   -1.3353    5.2409 C   0  0  0  0  0  0  0  0  0  0  0  0
    0.7748   -1.4788    5.6470 C   0  0  1  0  0  0  0  0  0  0  0  0
    1.3924   -2.8603    5.3896 C   0  0  0  0  0  0  0  0  0  0  0  0
    0.7681   -3.8633    5.0678 O   0  0  0  0  0  0  0  0  0  0  0  0
    2.9286   -2.8988    5.5667 C   0  0  1  0  0  0  0  0  0  0  0  0
    4.9947   -5.7185    6.1067 H   0  0  0  0  0  0  0  0  0  0  0  0
    4.6432   -4.3709    7.1785 H   0  0  0  0  0  0  0  0  0  0  0  0
    5.6580   -4.1370    5.7517 H   0  0  0  0  0  0  0  0  0  0  0  0
    2.7824   -5.0755    5.6207 H   0  0  0  0  0  0  0  0  0  0  0  0
    2.5529   -3.2337    3.0214 H   0  0  0  0  0  0  0  0  0  0  0  0
    5.2370   -2.6308    3.9927 H   0  0  0  0  0  0  0  0  0  0  0  0
    6.0263   -0.9875    2.7603 H   0  0  0  0  0  0  0  0  0  0  0  0
    2.5207   -2.7738   -0.1280 H   0  0  0  0  0  0  0  0  0  0  0  0
    1.8345   -2.5854    1.3629 H   0  0  0  0  0  0  0  0  0  0  0  0
    2.6436   -0.3108    0.1671 H   0  0  0  0  0  0  0  0  0  0  0  0
    2.5960   -0.5155    1.8422 H   0  0  0  0  0  0  0  0  0  0  0  0
    4.7415    0.3856    1.2008 H   0  0  0  0  0  0  0  0  0  0  0  0
    5.7419   -0.2070   -0.6982 H   0  0  0  0  0  0  0  0  0  0  0  0
    7.6523   -1.4546   -0.5527 H   0  0  0  0  0  0  0  0  0  0  0  0
    8.2631   -3.4881    0.4418 H   0  0  0  0  0  0  0  0  0  0  0  0
    7.3792   -2.6861    1.6668 H   0  0  0  0  0  0  0  0  0  0  0  0
    6.6909   -5.1540    0.0711 H   0  0  0  0  0  0  0  0  0  0  0  0
    7.3232   -5.2927    2.1483 H   0  0  0  0  0  0  0  0  0  0  0  0
    4.6128   -5.9974   -0.7043 H   0  0  0  0  0  0  0  0  0  0  0  0
    3.0765   -5.2590   -0.2885 H   0  0  0  0  0  0  0  0  0  0  0  0
    4.0552   -6.0502    0.9524 H   0  0  0  0  0  0  0  0  0  0  0  0
    4.5524   -3.9472   -1.9773 H   0  0  0  0  0  0  0  0  0  0  0  0
    6.6484   -2.5855   -2.4796 H   0  0  0  0  0  0  0  0  0  0  0  0
    7.1670   -3.8526   -1.5581 H   0  0  0  0  0  0  0  0  0  0  0  0
    5.0542   -1.4744   -2.2672 H   0  0  0  0  0  0  0  0  0  0  0  0
    2.7336   -1.4533   -1.1683 H   0  0  0  0  0  0  0  0  0  0  0  0
    5.4097   -1.9032    6.2360 H   0  0  0  0  0  0  0  0  0  0  0  0
    4.2430   -0.7249    6.7733 H   0  0  0  0  0  0  0  0  0  0  0  0
    5.3254   -0.3270    5.4648 H   0  0  0  0  0  0  0  0  0  0  0  0
    0.8413    1.5839    4.9093 H   0  0  0  0  0  0  0  0  0  0  0  0
    0.4793    0.6713    3.4446 H   0  0  0  0  0  0  0  0  0  0  0  0
   -0.9402    0.6091    6.1223 H   0  0  0  0  0  0  0  0  0  0  0  0
   -1.6697    0.4988    4.5133 H   0  0  0  0  0  0  0  0  0  0  0  0
   -1.3892   -1.7863    5.9502 H   0  0  0  0  0  0  0  0  0  0  0  0
   -0.8617   -1.7919    4.2620 H   0  0  0  0  0  0  0  0  0  0  0  0
    0.8694   -1.2681    6.7127 H   0  0  0  0  0  0  0  0  0  0  0  0
    3.0223   -2.7530    6.6434 H   0  0  0  0  0  0  0  0  0  0  0  0
  1  2  1  0
  1 36  1  0
  1 37  1  0
  1 38  1  0
  2 35  1  0
  2  3  1  0
  2 39  1  1
  3  4  2  0
  3  5  1  0
  5  9  1  0
  5  6  1  0
  5 40  1  6
  6  7  1  0
  6 24  1  0
  6 41  1  1
  7 12  1  0
  7  8  1  0
  7 42  1  1
  8  9  1  0
  9 18  1  0
  9 10  1  6
 10 11  1  0
 10 43  1  0
 10 44  1  0
 11 12  1  0
 11 45  1  0
 11 46  1  0
 12 13  1  0
 12 47  1  1
 13 22  1  0
 13 14  1  0
 13 48  1  6
 14 21  1  0
 14 15  1  0
 14 49  1  6
 15 16  1  0
 15 50  1  0
 15 51  1  0
 16 17  1  0
 16 18  1  0
 16 52  1  6
 17 53  1  0
 18 19  1  6
 18 20  1  0
 19 54  1  0
 19 55  1  0
 19 56  1  0
 20 21  1  0
 20 22  1  0
 20 57  1  6
 21 58  1  0
 21 59  1  0
 22 23  1  0
 22 60  1  6
 23 61  1  0
 24 35  1  0
 24 25  1  1
 24 26  1  0
 25 62  1  0
 25 63  1  0
 25 64  1  0
 26 27  2  0
 26 28  1  0
 28 32  1  0
 28 29  1  0
 29 30  1  0
 29 65  1  0
 29 66  1  0
 30 31  1  0
 30 67  1  0
 30 68  1  0
 31 32  1  0
 31 69  1  0
 31 70  1  0
 32 33  1  0
 32 71  1  1
 33 34  2  0
 33 35  1  0
 35 72  1  1
M  END
>  <i_m_ct_stereo_status>  (44) 
1

>  <s_m_source_file>  (44) 
/var/tmp/pbs.5076255.sched01/tmpu3exd1vk/0t_9me_9p.sdf

>  <i_m_source_file_index>  (44) 
20

>  <i_lp_mmshare_version>  (44) 
48012

>  <i_f3d_flags>  (44) 
0

>  <s_epik_input>  (44) 
W0NIMl0xW0NIMl1bQ0gyXU4oQzI9TylbQ0BASF0xQyg9TylbQ0BASF0oW0NASF0oW0NIM10pQzM9TylbQ0BAXTIoW0NIM10pW0NAQEhdKFtDQEhdM1tDQF00NTYpW0NAQEhdKE80KVtDQEhdKFtDSDJdW0NIMl01KVtDQEhdN1tDQEhdOFtDSDJdW0NAQEhdKFtPSF0pW0NAXTYoW0NIM10pW0NASF0oW0NIMl04KVtDQEhdN1tPSF0=

>  <s_epik_cmdline>  (44) 
J2VwaWtfcHl0aG9uJywgJy1waHQnLCAnMi4wJywgJy1waCcsICc3LjAnLCAnLXRuJywgJzgnLCAnLW1hJywgJzIwMCcsICctaW1hZScsICc8aW5maWxlLm1hZT4nLCAnLW9tYWUnLCAnPG91dGZpbGUubWFlPic=

>  <r_lp_tautomer_probability>  (44) 
1

>  <r_epik_Ionization_Penalty>  (44) 
1.05102e-06

>  <r_epik_Ionization_Penalty_Charging>  (44) 
0

>  <r_epik_Ionization_Penalty_Neutral>  (44) 
1.05102e-06

>  <r_epik_State_Penalty>  (44) 
-0

>  <r_epik_Charging_Adjusted_Penalty>  (44) 
0

>  <i_epik_Tot_Q>  (44) 
0

>  <i_epik_Tot_abs_Q>  (44) 
0

>  <s_lp_Force_Field>  (44) 
OPLS3e

>  <r_lp_Energy>  (44) 
231.609

>  <b_lp_Chiralities_Consistent>  (44) 
1

>  <s_lp_Variant>  (44) 
14:0-1

>  <s_i_glide_gridfile>  (44) 
pfpi4k_grid

>  <i_i_glide_lignum>  (44) 
20

>  <i_i_glide_rotatable_bonds>  (44) 
2

>  <r_i_docking_score>  (44) 
-2.47043

>  <r_i_glide_ligand_efficiency>  (44) 
-0.0705838

>  <r_i_glide_ligand_efficiency_sa>  (44) 
-0.230884

>  <r_i_glide_ligand_efficiency_ln>  (44) 
-0.542315

>  <r_i_glide_gscore>  (44) 
-2.47043

>  <r_i_glide_lipo>  (44) 
-0.591689

>  <r_i_glide_hbond>  (44) 
-0.115456

>  <r_i_glide_metal>  (44) 
-0

>  <r_i_glide_rewards>  (44) 
-0.111842

>  <r_i_glide_evdw>  (44) 
-30.0438

>  <r_i_glide_ecoul>  (44) 
-0.993193

>  <r_i_glide_erotb>  (44) 
0

>  <r_i_glide_esite>  (44) 
-0.000275521

>  <r_i_glide_emodel>  (44) 
-35.6227

>  <r_i_glide_energy>  (44) 
-31.037

>  <r_i_glide_einternal>  (44) 
0.478849

>  <r_i_glide_intrahb_reward>  (44) 
-0

>  <i_i_glide_confnum>  (44) 
2

>  <i_i_glide_posenum>  (44) 
27

>  <r_i_glide_eff_state_penalty>  (44) 
0

>  <ligand_id>  (44) 
14

>  <original_smiles>  (44) 
CC1C(=O)C2C(C3OC24CCC3C2C3CC(O)C4(C)C(C3)C2O)C2(C)C(=O)N3CCCC3C(=O)C12

>  <smiles>  (44) 
[H]OC1([H])C2([H])C3([H])C([H])([H])C([H])(O[H])C(C([H])([H])[H])(C1([H])C3([H])[H])C13OC([H])(C2([H])C([H])([H])C1([H])[H])C1([H])C3([H])C(=O)C([H])(C([H])([H])[H])C2([H])C(=O)C3([H])N(C(=O)C21C([H])([H])[H])C([H])([H])C([H])([H])C3([H])[H]

$$$$
14:0:1
     RDKit          3D

 72 79  0  0  1  0  0  0  0  0999 V2000
    4.7224   -4.7579    6.0603 C   0  0  0  0  0  0  0  0  0  0  0  0
    3.4760   -4.4284    5.2161 C   0  0  2  0  0  0  0  0  0  0  0  0
    3.7476   -4.6693    3.7143 C   0  0  0  0  0  0  0  0  0  0  0  0
    3.9878   -5.7873    3.2675 O   0  0  0  0  0  0  0  0  0  0  0  0
    3.5993   -3.4173    2.8620 C   0  0  1  0  0  0  0  0  0  0  0  0
    4.3070   -2.2308    3.5543 C   0  0  1  0  0  0  0  0  0  0  0  0
    5.0164   -1.3430    2.4706 C   0  0  1  0  0  0  0  0  0  0  0  0
    5.1009   -2.5222    1.7821 O   0  0  0  0  0  0  0  0  0  0  0  0
    3.9636   -3.2455    1.3683 C   0  0  2  0  0  0  0  0  0  0  0  0
    2.7849   -2.3959    0.8166 C   0  0  0  0  0  0  0  0  0  0  0  0
    3.0870   -0.8927    0.9635 C   0  0  0  0  0  0  0  0  0  0  0  0
    4.6065   -0.6830    1.1130 C   0  0  2  0  0  0  0  0  0  0  0  0
    5.4763   -1.1044   -0.2193 C   0  0  1  0  0  0  0  0  0  0  0  0
    6.8106   -2.0637   -0.3204 C   0  0  1  0  0  0  0  0  0  0  0  0
    7.2680   -3.1455    0.7081 C   0  0  0  0  0  0  0  0  0  0  0  0
    6.3137   -4.3953    0.7308 C   0  0  1  0  0  0  0  0  0  0  0  0
    6.4474   -5.0443    1.9696 O   0  0  0  0  0  0  0  0  0  0  0  0
    4.8293   -4.0571    0.2595 C   0  0  1  0  0  0  0  0  0  0  0  0
    4.1135   -5.3824   -0.0272 C   0  0  0  0  0  0  0  0  0  0  0  0
    5.0133   -3.2974   -1.1999 C   0  0  2  0  0  0  0  0  0  0  0  0
    6.5040   -2.9924   -1.5127 C   0  0  0  0  0  0  0  0  0  0  0  0
    4.6637   -1.7904   -1.3396 C   0  0  1  0  0  0  0  0  0  0  0  0
    3.4211   -1.3613   -1.8580 O   0  0  0  0  0  0  0  0  0  0  0  0
    3.6235   -1.7419    4.8748 C   0  0  1  0  0  0  0  0  0  0  0  0
    4.6686   -1.2332    5.9008 C   0  0  0  0  0  0  0  0  0  0  0  0
    2.7324   -0.5035    4.5802 C   0  0  0  0  0  0  0  0  0  0  0  0
    3.2445    0.4920    4.0719 O   0  0  0  0  0  0  0  0  0  0  0  0
    1.4253   -0.5220    4.9025 N   0  0  0  0  0  0  0  0  0  0  0  0
    0.4810    0.5356    4.5391 C   0  0  0  0  0  0  0  0  0  0  0  0
   -0.8766    0.0870    5.1026 C   0  0  0  0  0  0  0  0  0  0  0  0
   -0.7410   -1.4297    5.1862 C   0  0  0  0  0  0  0  0  0  0  0  0
    0.7240   -1.5931    5.6073 C   0  0  1  0  0  0  0  0  0  0  0  0
    1.3450   -2.9618    5.3260 C   0  0  0  0  0  0  0  0  0  0  0  0
    0.7074   -3.9528    4.9639 O   0  0  0  0  0  0  0  0  0  0  0  0
    2.8754   -2.9965    5.5242 C   0  0  1  0  0  0  0  0  0  0  0  0
    4.9415   -5.8230    6.0151 H   0  0  0  0  0  0  0  0  0  0  0  0
    4.5738   -4.5018    7.1109 H   0  0  0  0  0  0  0  0  0  0  0  0
    5.6051   -4.2320    5.7049 H   0  0  0  0  0  0  0  0  0  0  0  0
    2.7336   -5.1715    5.5135 H   0  0  0  0  0  0  0  0  0  0  0  0
    2.5310   -3.2672    2.9624 H   0  0  0  0  0  0  0  0  0  0  0  0
    5.2067   -2.6868    3.9790 H   0  0  0  0  0  0  0  0  0  0  0  0
    6.0053   -1.0143    2.7927 H   0  0  0  0  0  0  0  0  0  0  0  0
    2.5359   -2.7360   -0.1813 H   0  0  0  0  0  0  0  0  0  0  0  0
    1.8326   -2.5817    1.3091 H   0  0  0  0  0  0  0  0  0  0  0  0
    2.6525   -0.2822    0.1747 H   0  0  0  0  0  0  0  0  0  0  0  0
    2.5824   -0.5231    1.8512 H   0  0  0  0  0  0  0  0  0  0  0  0
    4.7349    0.3906    1.2526 H   0  0  0  0  0  0  0  0  0  0  0  0
    5.7754   -0.1519   -0.6349 H   0  0  0  0  0  0  0  0  0  0  0  0
    7.6934   -1.4574   -0.5124 H   0  0  0  0  0  0  0  0  0  0  0  0
    8.2726   -3.4746    0.4422 H   0  0  0  0  0  0  0  0  0  0  0  0
    7.3753   -2.6915    1.6843 H   0  0  0  0  0  0  0  0  0  0  0  0
    6.7127   -5.1291    0.0317 H   0  0  0  0  0  0  0  0  0  0  0  0
    5.9558   -5.8522    1.9344 H   0  0  0  0  0  0  0  0  0  0  0  0
    4.6340   -5.9383   -0.8119 H   0  0  0  0  0  0  0  0  0  0  0  0
    3.0972   -5.1988   -0.3792 H   0  0  0  0  0  0  0  0  0  0  0  0
    4.0579   -6.0353    0.8401 H   0  0  0  0  0  0  0  0  0  0  0  0
    4.5798   -3.8651   -2.0273 H   0  0  0  0  0  0  0  0  0  0  0  0
    6.7020   -2.5173   -2.4732 H   0  0  0  0  0  0  0  0  0  0  0  0
    7.1587   -3.8493   -1.5932 H   0  0  0  0  0  0  0  0  0  0  0  0
    5.1093   -1.3881   -2.2499 H   0  0  0  0  0  0  0  0  0  0  0  0
    2.7564   -1.4257   -1.1842 H   0  0  0  0  0  0  0  0  0  0  0  0
    5.3493   -2.0115    6.2368 H   0  0  0  0  0  0  0  0  0  0  0  0
    4.1730   -0.8476    6.7927 H   0  0  0  0  0  0  0  0  0  0  0  0
    5.2722   -0.4188    5.5019 H   0  0  0  0  0  0  0  0  0  0  0  0
    0.7882    1.5012    4.9411 H   0  0  0  0  0  0  0  0  0  0  0  0
    0.4438    0.6235    3.4536 H   0  0  0  0  0  0  0  0  0  0  0  0
   -1.0056    0.4963    6.1092 H   0  0  0  0  0  0  0  0  0  0  0  0
   -1.7181    0.4222    4.4918 H   0  0  0  0  0  0  0  0  0  0  0  0
   -1.4479   -1.8957    5.8767 H   0  0  0  0  0  0  0  0  0  0  0  0
   -0.9012   -1.8603    4.1971 H   0  0  0  0  0  0  0  0  0  0  0  0
    0.8013   -1.3904    6.6799 H   0  0  0  0  0  0  0  0  0  0  0  0
    2.9600   -2.8725    6.6042 H   0  0  0  0  0  0  0  0  0  0  0  0
  1  2  1  0
  1 36  1  0
  1 37  1  0
  1 38  1  0
  2 35  1  0
  2  3  1  0
  2 39  1  1
  3  4  2  0
  3  5  1  0
  5  9  1  0
  5  6  1  0
  5 40  1  6
  6  7  1  0
  6 24  1  0
  6 41  1  1
  7 12  1  0
  7  8  1  0
  7 42  1  1
  8  9  1  0
  9 18  1  0
  9 10  1  6
 10 11  1  0
 10 43  1  0
 10 44  1  0
 11 12  1  0
 11 45  1  0
 11 46  1  0
 12 13  1  0
 12 47  1  1
 13 22  1  0
 13 14  1  0
 13 48  1  6
 14 21  1  0
 14 15  1  0
 14 49  1  6
 15 16  1  0
 15 50  1  0
 15 51  1  0
 16 17  1  0
 16 18  1  0
 16 52  1  6
 17 53  1  0
 18 19  1  6
 18 20  1  0
 19 54  1  0
 19 55  1  0
 19 56  1  0
 20 21  1  0
 20 22  1  0
 20 57  1  6
 21 58  1  0
 21 59  1  0
 22 23  1  0
 22 60  1  6
 23 61  1  0
 24 35  1  0
 24 25  1  1
 24 26  1  0
 25 62  1  0
 25 63  1  0
 25 64  1  0
 26 27  2  0
 26 28  1  0
 28 32  1  0
 28 29  1  0
 29 30  1  0
 29 65  1  0
 29 66  1  0
 30 31  1  0
 30 67  1  0
 30 68  1  0
 31 32  1  0
 31 69  1  0
 31 70  1  0
 32 33  1  0
 32 71  1  1
 33 34  2  0
 33 35  1  0
 35 72  1  1
M  END
>  <i_m_ct_stereo_status>  (45) 
1

>  <s_m_source_file>  (45) 
/var/tmp/pbs.5076255.sched01/tmpu3exd1vk/0t_9me_9p.sdf

>  <i_m_source_file_index>  (45) 
20

>  <i_lp_mmshare_version>  (45) 
48012

>  <i_f3d_flags>  (45) 
0

>  <s_epik_input>  (45) 
W0NIMl0xW0NIMl1bQ0gyXU4oQzI9TylbQ0BASF0xQyg9TylbQ0BASF0oW0NASF0oW0NIM10pQzM9TylbQ0BAXTIoW0NIM10pW0NAQEhdKFtDQEhdM1tDQF00NTYpW0NAQEhdKE80KVtDQEhdKFtDSDJdW0NIMl01KVtDQEhdN1tDQEhdOFtDSDJdW0NAQEhdKFtPSF0pW0NAXTYoW0NIM10pW0NASF0oW0NIMl04KVtDQEhdN1tPSF0=

>  <s_epik_cmdline>  (45) 
J2VwaWtfcHl0aG9uJywgJy1waHQnLCAnMi4wJywgJy1waCcsICc3LjAnLCAnLXRuJywgJzgnLCAnLW1hJywgJzIwMCcsICctaW1hZScsICc8aW5maWxlLm1hZT4nLCAnLW9tYWUnLCAnPG91dGZpbGUubWFlPic=

>  <r_lp_tautomer_probability>  (45) 
1

>  <r_epik_Ionization_Penalty>  (45) 
1.05102e-06

>  <r_epik_Ionization_Penalty_Charging>  (45) 
0

>  <r_epik_Ionization_Penalty_Neutral>  (45) 
1.05102e-06

>  <r_epik_State_Penalty>  (45) 
-0

>  <r_epik_Charging_Adjusted_Penalty>  (45) 
0

>  <i_epik_Tot_Q>  (45) 
0

>  <i_epik_Tot_abs_Q>  (45) 
0

>  <s_lp_Force_Field>  (45) 
OPLS3e

>  <r_lp_Energy>  (45) 
231.609

>  <b_lp_Chiralities_Consistent>  (45) 
1

>  <s_lp_Variant>  (45) 
14:0-1

>  <s_i_glide_gridfile>  (45) 
pfpi4k_grid

>  <i_i_glide_lignum>  (45) 
20

>  <i_i_glide_rotatable_bonds>  (45) 
2

>  <r_i_docking_score>  (45) 
-2.38542

>  <r_i_glide_ligand_efficiency>  (45) 
-0.068155

>  <r_i_glide_ligand_efficiency_sa>  (45) 
-0.222939

>  <r_i_glide_ligand_efficiency_ln>  (45) 
-0.523654

>  <r_i_glide_gscore>  (45) 
-2.38542

>  <r_i_glide_lipo>  (45) 
-0.565674

>  <r_i_glide_hbond>  (45) 
-0.108265

>  <r_i_glide_metal>  (45) 
-0

>  <r_i_glide_rewards>  (45) 
-0.112709

>  <r_i_glide_evdw>  (45) 
-29.1096

>  <r_i_glide_ecoul>  (45) 
-0.953546

>  <r_i_glide_erotb>  (45) 
0

>  <r_i_glide_esite>  (45) 
-0.000266348

>  <r_i_glide_emodel>  (45) 
-34.5896

>  <r_i_glide_energy>  (45) 
-30.0631

>  <r_i_glide_einternal>  (45) 
0.457089

>  <r_i_glide_intrahb_reward>  (45) 
-0

>  <i_i_glide_confnum>  (45) 
2

>  <i_i_glide_posenum>  (45) 
10

>  <r_i_glide_eff_state_penalty>  (45) 
0

>  <ligand_id>  (45) 
14

>  <original_smiles>  (45) 
CC1C(=O)C2C(C3OC24CCC3C2C3CC(O)C4(C)C(C3)C2O)C2(C)C(=O)N3CCCC3C(=O)C12

>  <smiles>  (45) 
[H]OC1([H])C2([H])C3([H])C([H])([H])C([H])(O[H])C(C([H])([H])[H])(C1([H])C3([H])[H])C13OC([H])(C2([H])C([H])([H])C1([H])[H])C1([H])C3([H])C(=O)C([H])(C([H])([H])[H])C2([H])C(=O)C3([H])N(C(=O)C21C([H])([H])[H])C([H])([H])C([H])([H])C3([H])[H]

$$$$
14:0:2
     RDKit          3D

 72 79  0  0  1  0  0  0  0  0999 V2000
   -0.3032    4.7724    9.1917 C   0  0  0  0  0  0  0  0  0  0  0  0
   -0.2139    5.2034    7.7157 C   0  0  2  0  0  0  0  0  0  0  0  0
   -0.5732    4.0274    6.7757 C   0  0  0  0  0  0  0  0  0  0  0  0
   -1.6903    3.5256    6.7617 O   0  0  0  0  0  0  0  0  0  0  0  0
    0.5638    3.6271    5.8405 C   0  0  1  0  0  0  0  0  0  0  0  0
    1.8920    3.5679    6.6317 C   0  0  1  0  0  0  0  0  0  0  0  0
    2.7435    2.3520    6.1160 C   0  0  1  0  0  0  0  0  0  0  0  0
    1.5189    1.8105    5.8386 O   0  0  0  0  0  0  0  0  0  0  0  0
    0.6319    2.3925    4.9052 C   0  0  2  0  0  0  0  0  0  0  0  0
    1.2648    2.9724    3.6081 C   0  0  0  0  0  0  0  0  0  0  0  0
    2.7994    2.8828    3.6796 C   0  0  0  0  0  0  0  0  0  0  0  0
    3.2181    1.8232    4.7202 C   0  0  2  0  0  0  0  0  0  0  0  0
    2.8062    0.2857    4.3101 C   0  0  1  0  0  0  0  0  0  0  0  0
    2.0285   -0.8430    5.2243 C   0  0  1  0  0  0  0  0  0  0  0  0
    1.1169   -0.5696    6.4739 C   0  0  0  0  0  0  0  0  0  0  0  0
   -0.2500    0.1305    6.0816 C   0  0  1  0  0  0  0  0  0  0  0  0
   -0.7683    0.7986    7.2065 O   0  0  0  0  0  0  0  0  0  0  0  0
   -0.1604    0.9840    4.7292 C   0  0  1  0  0  0  0  0  0  0  0  0
   -1.5894    1.2937    4.2471 C   0  0  0  0  0  0  0  0  0  0  0  0
    0.4850   -0.0691    3.6288 C   0  0  2  0  0  0  0  0  0  0  0  0
    0.9354   -1.4050    4.2844 C   0  0  0  0  0  0  0  0  0  0  0  0
    1.9096    0.1634    3.0541 C   0  0  1  0  0  0  0  0  0  0  0  0
    2.0983    0.8342    1.8242 O   0  0  0  0  0  0  0  0  0  0  0  0
    2.4201    4.9556    7.1292 C   0  0  1  0  0  0  0  0  0  0  0  0
    3.1550    4.8311    8.4901 C   0  0  0  0  0  0  0  0  0  0  0  0
    3.5061    5.4854    6.1532 C   0  0  0  0  0  0  0  0  0  0  0  0
    4.5063    4.8001    5.9289 O   0  0  0  0  0  0  0  0  0  0  0  0
    3.3535    6.6971    5.5799 N   0  0  0  0  0  0  0  0  0  0  0  0
    4.2462    7.2111    4.5424 C   0  0  0  0  0  0  0  0  0  0  0  0
    3.6940    8.5908    4.1799 C   0  0  0  0  0  0  0  0  0  0  0  0
    2.2214    8.4975    4.5641 C   0  0  0  0  0  0  0  0  0  0  0  0
    2.2731    7.6484    5.8375 C   0  0  1  0  0  0  0  0  0  0  0  0
    0.9704    6.9504    6.2282 C   0  0  0  0  0  0  0  0  0  0  0  0
   -0.1291    7.1808    5.7192 O   0  0  0  0  0  0  0  0  0  0  0  0
    1.1534    5.9057    7.3481 C   0  0  1  0  0  0  0  0  0  0  0  0
   -1.3342    4.5392    9.4617 H   0  0  0  0  0  0  0  0  0  0  0  0
    0.0316    5.5662    9.8600 H   0  0  0  0  0  0  0  0  0  0  0  0
    0.2912    3.8844    9.3983 H   0  0  0  0  0  0  0  0  0  0  0  0
   -1.0100    5.9376    7.5927 H   0  0  0  0  0  0  0  0  0  0  0  0
    0.5931    4.5142    5.2194 H   0  0  0  0  0  0  0  0  0  0  0  0
    1.6011    3.1445    7.5962 H   0  0  0  0  0  0  0  0  0  0  0  0
    3.2308    1.8185    6.9327 H   0  0  0  0  0  0  0  0  0  0  0  0
    0.7909    2.5243    2.7439 H   0  0  0  0  0  0  0  0  0  0  0  0
    1.0102    4.0119    3.4100 H   0  0  0  0  0  0  0  0  0  0  0  0
    3.2642    2.7242    2.7107 H   0  0  0  0  0  0  0  0  0  0  0  0
    3.1949    3.8491    3.9794 H   0  0  0  0  0  0  0  0  0  0  0  0
    4.3080    1.8502    4.7518 H   0  0  0  0  0  0  0  0  0  0  0  0
    3.7566   -0.1666    4.0236 H   0  0  0  0  0  0  0  0  0  0  0  0
    2.7433   -1.6220    5.4944 H   0  0  0  0  0  0  0  0  0  0  0  0
    0.8777   -1.5174    6.9604 H   0  0  0  0  0  0  0  0  0  0  0  0
    1.6745   -0.0279    7.2378 H   0  0  0  0  0  0  0  0  0  0  0  0
   -0.9952   -0.6480    5.9138 H   0  0  0  0  0  0  0  0  0  0  0  0
   -0.2108    1.5493    7.3595 H   0  0  0  0  0  0  0  0  0  0  0  0
   -2.1547    0.3749    4.0836 H   0  0  0  0  0  0  0  0  0  0  0  0
   -1.5868    1.8431    3.3042 H   0  0  0  0  0  0  0  0  0  0  0  0
   -2.1486    1.8773    4.9740 H   0  0  0  0  0  0  0  0  0  0  0  0
   -0.2092   -0.2783    2.8149 H   0  0  0  0  0  0  0  0  0  0  0  0
    1.3348   -2.1541    3.5983 H   0  0  0  0  0  0  0  0  0  0  0  0
    0.1382   -1.9735    4.7631 H   0  0  0  0  0  0  0  0  0  0  0  0
    2.2696   -0.7460    2.5700 H   0  0  0  0  0  0  0  0  0  0  0  0
    1.7101    1.6944    1.8846 H   0  0  0  0  0  0  0  0  0  0  0  0
    2.5042    4.4986    9.2959 H   0  0  0  0  0  0  0  0  0  0  0  0
    3.5609    5.7971    8.7989 H   0  0  0  0  0  0  0  0  0  0  0  0
    3.9965    4.1388    8.4443 H   0  0  0  0  0  0  0  0  0  0  0  0
    5.2786    7.2694    4.8906 H   0  0  0  0  0  0  0  0  0  0  0  0
    4.2184    6.5451    3.6800 H   0  0  0  0  0  0  0  0  0  0  0  0
    4.1846    9.3401    4.8030 H   0  0  0  0  0  0  0  0  0  0  0  0
    3.8554    8.8594    3.1351 H   0  0  0  0  0  0  0  0  0  0  0  0
    1.7418    9.4676    4.7063 H   0  0  0  0  0  0  0  0  0  0  0  0
    1.6874    7.9648    3.7773 H   0  0  0  0  0  0  0  0  0  0  0  0
    2.5880    8.2886    6.6657 H   0  0  0  0  0  0  0  0  0  0  0  0
    1.3930    6.5373    8.2033 H   0  0  0  0  0  0  0  0  0  0  0  0
  1  2  1  0
  1 36  1  0
  1 37  1  0
  1 38  1  0
  2 35  1  0
  2  3  1  0
  2 39  1  1
  3  4  2  0
  3  5  1  0
  5  9  1  0
  5  6  1  0
  5 40  1  6
  6  7  1  0
  6 24  1  0
  6 41  1  1
  7 12  1  0
  7  8  1  0
  7 42  1  1
  8  9  1  0
  9 18  1  0
  9 10  1  6
 10 11  1  0
 10 43  1  0
 10 44  1  0
 11 12  1  0
 11 45  1  0
 11 46  1  0
 12 13  1  0
 12 47  1  1
 13 22  1  0
 13 14  1  0
 13 48  1  6
 14 21  1  0
 14 15  1  0
 14 49  1  1
 15 16  1  0
 15 50  1  0
 15 51  1  0
 16 17  1  0
 16 18  1  0
 16 52  1  6
 17 53  1  0
 18 19  1  6
 18 20  1  0
 19 54  1  0
 19 55  1  0
 19 56  1  0
 20 21  1  0
 20 22  1  0
 20 57  1  6
 21 58  1  0
 21 59  1  0
 22 23  1  0
 22 60  1  6
 23 61  1  0
 24 35  1  0
 24 25  1  1
 24 26  1  0
 25 62  1  0
 25 63  1  0
 25 64  1  0
 26 27  2  0
 26 28  1  0
 28 32  1  0
 28 29  1  0
 29 30  1  0
 29 65  1  0
 29 66  1  0
 30 31  1  0
 30 67  1  0
 30 68  1  0
 31 32  1  0
 31 69  1  0
 31 70  1  0
 32 33  1  0
 32 71  1  1
 33 34  2  0
 33 35  1  0
 35 72  1  1
M  END
>  <i_m_ct_stereo_status>  (46) 
1

>  <s_m_source_file>  (46) 
/var/tmp/pbs.5076255.sched01/tmpu3exd1vk/0t_9me_9p.sdf

>  <i_m_source_file_index>  (46) 
20

>  <i_lp_mmshare_version>  (46) 
48012

>  <i_f3d_flags>  (46) 
0

>  <s_epik_input>  (46) 
W0NIMl0xW0NIMl1bQ0gyXU4oQzI9TylbQ0BASF0xQyg9TylbQ0BASF0oW0NASF0oW0NIM10pQzM9TylbQ0BAXTIoW0NIM10pW0NAQEhdKFtDQEhdM1tDQF00NTYpW0NAQEhdKE80KVtDQEhdKFtDSDJdW0NIMl01KVtDQEhdN1tDQEhdOFtDSDJdW0NAQEhdKFtPSF0pW0NAXTYoW0NIM10pW0NASF0oW0NIMl04KVtDQEhdN1tPSF0=

>  <s_epik_cmdline>  (46) 
J2VwaWtfcHl0aG9uJywgJy1waHQnLCAnMi4wJywgJy1waCcsICc3LjAnLCAnLXRuJywgJzgnLCAnLW1hJywgJzIwMCcsICctaW1hZScsICc8aW5maWxlLm1hZT4nLCAnLW9tYWUnLCAnPG91dGZpbGUubWFlPic=

>  <r_lp_tautomer_probability>  (46) 
1

>  <r_epik_Ionization_Penalty>  (46) 
1.05102e-06

>  <r_epik_Ionization_Penalty_Charging>  (46) 
0

>  <r_epik_Ionization_Penalty_Neutral>  (46) 
1.05102e-06

>  <r_epik_State_Penalty>  (46) 
-0

>  <r_epik_Charging_Adjusted_Penalty>  (46) 
0

>  <i_epik_Tot_Q>  (46) 
0

>  <i_epik_Tot_abs_Q>  (46) 
0

>  <s_lp_Force_Field>  (46) 
OPLS3e

>  <r_lp_Energy>  (46) 
231.609

>  <b_lp_Chiralities_Consistent>  (46) 
1

>  <s_lp_Variant>  (46) 
14:0-1

>  <s_i_glide_gridfile>  (46) 
pfpi4k_grid

>  <i_i_glide_lignum>  (46) 
20

>  <i_i_glide_rotatable_bonds>  (46) 
2

>  <r_i_docking_score>  (46) 
-2.35928

>  <r_i_glide_ligand_efficiency>  (46) 
-0.067408

>  <r_i_glide_ligand_efficiency_sa>  (46) 
-0.220496

>  <r_i_glide_ligand_efficiency_ln>  (46) 
-0.517915

>  <r_i_glide_gscore>  (46) 
-2.35928

>  <r_i_glide_lipo>  (46) 
-0.0486228

>  <r_i_glide_hbond>  (46) 
-0.103468

>  <r_i_glide_metal>  (46) 
-0

>  <r_i_glide_rewards>  (46) 
-0.111842

>  <r_i_glide_evdw>  (46) 
-25.5977

>  <r_i_glide_ecoul>  (46) 
-5.36859

>  <r_i_glide_erotb>  (46) 
0

>  <r_i_glide_esite>  (46) 
-0.0101773

>  <r_i_glide_emodel>  (46) 
-35.6463

>  <r_i_glide_energy>  (46) 
-30.9662

>  <r_i_glide_einternal>  (46) 
0.118694

>  <r_i_glide_intrahb_reward>  (46) 
-0

>  <i_i_glide_confnum>  (46) 
1

>  <i_i_glide_posenum>  (46) 
4

>  <r_i_glide_eff_state_penalty>  (46) 
0

>  <ligand_id>  (46) 
14

>  <original_smiles>  (46) 
CC1C(=O)C2C(C3OC24CCC3C2C3CC(O)C4(C)C(C3)C2O)C2(C)C(=O)N3CCCC3C(=O)C12

>  <smiles>  (46) 
[H]OC1([H])C2([H])C3([H])C([H])([H])C([H])(O[H])C(C([H])([H])[H])(C1([H])C3([H])[H])C13OC([H])(C2([H])C([H])([H])C1([H])[H])C1([H])C3([H])C(=O)C([H])(C([H])([H])[H])C2([H])C(=O)C3([H])N(C(=O)C21C([H])([H])[H])C([H])([H])C([H])([H])C3([H])[H]

$$$$
15:0:0
     RDKit          3D

 65 71  0  0  1  0  0  0  0  0999 V2000
    4.4957   -3.9326    6.9091 C   0  0  0  0  0  0  0  0  0  0  0  0
    5.4978   -3.2490    5.9677 C   0  0  0  0  0  0  0  0  0  0  0  0
    6.6128   -3.0223    6.3699 O   0  0  0  0  0  0  0  0  0  0  0  0
    5.0948   -2.9042    4.6946 O   0  0  0  0  0  0  0  0  0  0  0  0
    3.7635   -2.9676    4.1531 C   0  0  2  0  0  0  0  0  0  0  0  0
    3.7120   -3.5442    2.7075 C   0  0  2  0  0  0  0  0  0  0  0  0
    4.0987   -4.9803    2.4608 C   0  0  0  0  0  0  0  0  0  0  0  0
    3.6769   -5.5519    1.3191 C   0  0  0  0  0  0  0  0  0  0  0  0
    2.8950   -4.7442    0.2823 C   0  0  0  0  0  0  0  0  0  0  0  0
    2.9499   -3.1789    0.4345 C   0  0  2  0  0  0  0  0  0  0  0  0
    3.0184   -2.5893   -0.8726 O   0  0  0  0  0  0  0  0  0  0  0  0
    4.2703   -2.2489   -1.3804 C   0  0  0  0  0  0  0  0  0  0  0  0
    5.0676   -3.4962   -1.8160 C   0  0  0  0  0  0  0  0  0  0  0  0
    4.0190   -1.3312   -2.5750 C   0  0  0  0  0  0  0  0  0  0  0  0
    5.0094   -1.5172   -0.4677 O   0  0  0  0  0  0  0  0  0  0  0  0
    5.1702   -2.1801    0.7750 C   0  0  1  0  0  0  0  0  0  0  0  0
    4.6120   -1.3185    1.8629 C   0  0  1  0  0  0  0  0  0  0  0  0
    5.8032   -0.9560    2.6976 C   0  0  0  0  0  0  0  0  0  0  0  0
    3.4714   -0.3555    2.1400 C   0  0  1  0  0  0  0  0  0  0  0  0
    2.8512    0.0246    0.9152 O   0  0  0  0  0  0  0  0  0  0  0  0
    2.4390   -0.8875    3.1771 C   0  0  1  0  0  0  0  0  0  0  0  0
    1.4393    0.1004    3.4442 O   0  0  0  0  0  0  0  0  0  0  0  0
    1.0171   -1.1429    2.8670 C   0  0  2  0  0  0  0  0  0  0  0  0
    0.4533   -2.1619    3.7866 C   0  0  0  0  0  0  0  0  0  0  0  0
    1.3920   -2.1559    4.9877 C   0  0  1  0  0  0  0  0  0  0  0  0
    1.2227   -3.3878    5.8648 C   0  0  0  0  0  0  0  0  0  0  0  0
    0.7873   -4.7033    5.5039 C   0  0  0  0  0  0  0  0  0  0  0  0
    0.8558   -5.4625    6.6346 C   0  0  0  0  0  0  0  0  0  0  0  0
    1.2462   -4.7192    7.6934 O   0  0  0  0  0  0  0  0  0  0  0  0
    1.4496   -3.4627    7.2092 C   0  0  0  0  0  0  0  0  0  0  0  0
    2.8245   -1.7100    4.4502 C   0  0  1  0  0  0  0  0  0  0  0  0
    3.3916   -0.7654    5.5414 C   0  0  0  0  0  0  0  0  0  0  0  0
    3.9699   -2.6987    1.4890 C   0  0  2  0  0  0  0  0  0  0  0  0
    3.5884   -4.2125    6.3714 H   0  0  0  0  0  0  0  0  0  0  0  0
    4.3005   -3.2675    7.7618 H   0  0  0  0  0  0  0  0  0  0  0  0
    4.9069   -4.8568    7.3285 H   0  0  0  0  0  0  0  0  0  0  0  0
    3.3066   -3.8318    4.6391 H   0  0  0  0  0  0  0  0  0  0  0  0
    2.6293   -3.6834    2.6619 H   0  0  0  0  0  0  0  0  0  0  0  0
    4.6390   -5.5090    3.2275 H   0  0  0  0  0  0  0  0  0  0  0  0
    3.8593   -6.5986    1.0851 H   0  0  0  0  0  0  0  0  0  0  0  0
    3.2707   -5.0398   -0.6905 H   0  0  0  0  0  0  0  0  0  0  0  0
    1.8542   -5.0712    0.3078 H   0  0  0  0  0  0  0  0  0  0  0  0
    1.9733   -2.8722    0.8104 H   0  0  0  0  0  0  0  0  0  0  0  0
    5.3044   -4.1455   -0.9729 H   0  0  0  0  0  0  0  0  0  0  0  0
    5.9972   -3.2022   -2.2936 H   0  0  0  0  0  0  0  0  0  0  0  0
    4.4708   -4.0686   -2.5237 H   0  0  0  0  0  0  0  0  0  0  0  0
    3.4725   -0.4403   -2.2675 H   0  0  0  0  0  0  0  0  0  0  0  0
    3.4278   -1.8487   -3.3262 H   0  0  0  0  0  0  0  0  0  0  0  0
    4.9590   -1.0207   -3.0078 H   0  0  0  0  0  0  0  0  0  0  0  0
    6.1054   -2.7366    0.8727 H   0  0  0  0  0  0  0  0  0  0  0  0
    5.5602   -0.5466    3.6704 H   0  0  0  0  0  0  0  0  0  0  0  0
    6.4300   -0.2440    2.1598 H   0  0  0  0  0  0  0  0  0  0  0  0
    6.4146   -1.8329    2.8354 H   0  0  0  0  0  0  0  0  0  0  0  0
    3.8864    0.5643    2.5712 H   0  0  0  0  0  0  0  0  0  0  0  0
    2.2563   -0.6575    0.6380 H   0  0  0  0  0  0  0  0  0  0  0  0
    0.6286   -1.1061    1.8466 H   0  0  0  0  0  0  0  0  0  0  0  0
   -0.5755   -1.9393    4.0652 H   0  0  0  0  0  0  0  0  0  0  0  0
    0.4712   -3.1192    3.2811 H   0  0  0  0  0  0  0  0  0  0  0  0
    1.0265   -1.3362    5.6034 H   0  0  0  0  0  0  0  0  0  0  0  0
    0.5059   -5.0863    4.5378 H   0  0  0  0  0  0  0  0  0  0  0  0
    0.6831   -6.5072    6.8523 H   0  0  0  0  0  0  0  0  0  0  0  0
    1.7914   -2.7634    7.9660 H   0  0  0  0  0  0  0  0  0  0  0  0
    2.7188    0.0625    5.7381 H   0  0  0  0  0  0  0  0  0  0  0  0
    4.3585   -0.3322    5.3188 H   0  0  0  0  0  0  0  0  0  0  0  0
    3.4820   -1.2929    6.4822 H   0  0  0  0  0  0  0  0  0  0  0  0
  1  2  1  0
  1 34  1  0
  1 35  1  0
  1 36  1  0
  2  3  2  0
  2  4  1  0
  4  5  1  0
  5 31  1  0
  5  6  1  0
  5 37  1  1
  6 33  1  0
  6  7  1  0
  6 38  1  6
  7  8  2  0
  7 39  1  0
  8  9  1  0
  8 40  1  0
  9 10  1  0
  9 41  1  0
  9 42  1  0
 10 33  1  0
 10 11  1  0
 10 43  1  1
 11 12  1  0
 12 13  1  0
 12 14  1  0
 12 15  1  0
 13 44  1  0
 13 45  1  0
 13 46  1  0
 14 47  1  0
 14 48  1  0
 14 49  1  0
 15 16  1  0
 16 33  1  0
 16 17  1  0
 16 50  1  1
 17 18  1  1
 17 19  1  0
 33 17  1  1
 18 51  1  0
 18 52  1  0
 18 53  1  0
 19 20  1  0
 19 21  1  0
 19 54  1  1
 20 55  1  0
 21 23  1  0
 21 31  1  0
 21 22  1  1
 22 23  1  0
 23 24  1  0
 23 56  1  6
 24 25  1  0
 24 57  1  0
 24 58  1  0
 25 26  1  0
 25 31  1  0
 25 59  1  1
 26 30  2  0
 26 27  1  0
 27 28  2  0
 27 60  1  0
 28 29  1  0
 28 61  1  0
 29 30  1  0
 30 62  1  0
 31 32  1  1
 32 63  1  0
 32 64  1  0
 32 65  1  0
M  END
>  <i_m_ct_stereo_status>  (47) 
1

>  <s_m_source_file>  (47) 
/var/tmp/pbs.5076255.sched01/tmpu3exd1vk/0t_9me_9p.sdf

>  <i_m_source_file_index>  (47) 
21

>  <i_lp_mmshare_version>  (47) 
48012

>  <i_f3d_flags>  (47) 
1

>  <s_epik_input>  (47) 
W2NIXTFvW2NIXVtjSF1jMVtDQEhdKFtDSDJdW0NAQEhdKFtDQEBdMjM0KU8zKVtDQEBdNChbQ0gzXSlbQ0BIXShPQyg9TylbQ0gzXSlbQ0BIXTVbQ0BdNjdbQ0BIXShbQ0gyXVtDSF09W0NIXTUpT0MoW0NIM10pKFtDSDNdKU9bQ0BIXTZDNyhbQ0gzXSlbQ0BIXTJbT0hd

>  <s_epik_cmdline>  (47) 
J2VwaWtfcHl0aG9uJywgJy1waHQnLCAnMi4wJywgJy1waCcsICc3LjAnLCAnLXRuJywgJzgnLCAnLW1hJywgJzIwMCcsICctaW1hZScsICc8aW5maWxlLm1hZT4nLCAnLW9tYWUnLCAnPG91dGZpbGUubWFlPic=

>  <r_lp_tautomer_probability>  (47) 
1

>  <r_epik_Ionization_Penalty>  (47) 
4.2901e-08

>  <r_epik_Ionization_Penalty_Charging>  (47) 
0

>  <r_epik_Ionization_Penalty_Neutral>  (47) 
4.2901e-08

>  <r_epik_State_Penalty>  (47) 
-0

>  <r_epik_Charging_Adjusted_Penalty>  (47) 
0

>  <i_epik_Tot_Q>  (47) 
0

>  <i_epik_Tot_abs_Q>  (47) 
0

>  <s_epik_Chemistry_Notes>  (47) 
This compound has an ester and may undergo hydrolysis at high or low pH.

>  <s_lp_Force_Field>  (47) 
OPLS3e

>  <r_lp_Energy>  (47) 
98.1477

>  <b_lp_Chiralities_Consistent>  (47) 
1

>  <s_lp_Variant>  (47) 
15:0-1

>  <s_i_glide_gridfile>  (47) 
pfpi4k_grid

>  <i_i_glide_lignum>  (47) 
21

>  <i_i_glide_rotatable_bonds>  (47) 
4

>  <r_i_docking_score>  (47) 
-2.16686

>  <r_i_glide_ligand_efficiency>  (47) 
-0.0656623

>  <r_i_glide_ligand_efficiency_sa>  (47) 
-0.210614

>  <r_i_glide_ligand_efficiency_ln>  (47) 
-0.481898

>  <r_i_glide_gscore>  (47) 
-2.16686

>  <r_i_glide_lipo>  (47) 
-0.296923

>  <r_i_glide_hbond>  (47) 
0

>  <r_i_glide_metal>  (47) 
-0

>  <r_i_glide_rewards>  (47) 
-0.313612

>  <r_i_glide_evdw>  (47) 
-24.3658

>  <r_i_glide_ecoul>  (47) 
-3.36911

>  <r_i_glide_erotb>  (47) 
0.19286

>  <r_i_glide_esite>  (47) 
-0.0255231

>  <r_i_glide_emodel>  (47) 
-26.41

>  <r_i_glide_energy>  (47) 
-27.735

>  <r_i_glide_einternal>  (47) 
5.57992

>  <r_i_glide_intrahb_reward>  (47) 
-0

>  <i_i_glide_confnum>  (47) 
3

>  <i_i_glide_posenum>  (47) 
12

>  <r_i_glide_eff_state_penalty>  (47) 
0

>  <ligand_id>  (47) 
15

>  <original_smiles>  (47) 
CC(=O)OC1C2C=CCC3OC(C)(C)OC4C(C)(C(O)C56OC5CC(c5ccoc5)C16C)C324

>  <smiles>  (47) 
[H]OC1([H])C23OC2([H])C([H])([H])C([H])(c2c([H])oc([H])c2[H])C3(C([H])([H])[H])C([H])(OC(=O)C([H])([H])[H])C2([H])C([H])=C([H])C([H])([H])C3([H])OC(C([H])([H])[H])(C([H])([H])[H])OC4([H])C1(C([H])([H])[H])C342

$$$$
15:0:1
     RDKit          3D

 65 71  0  0  1  0  0  0  0  0999 V2000
    7.0538   -6.0703    3.7348 C   0  0  0  0  0  0  0  0  0  0  0  0
    5.6414   -5.5079    3.7801 C   0  0  0  0  0  0  0  0  0  0  0  0
    4.8371   -5.9409    4.5896 O   0  0  0  0  0  0  0  0  0  0  0  0
    5.4144   -4.5374    2.8701 O   0  0  0  0  0  0  0  0  0  0  0  0
    4.1388   -3.8880    2.7130 C   0  0  2  0  0  0  0  0  0  0  0  0
    3.5653   -4.0069    1.2848 C   0  0  2  0  0  0  0  0  0  0  0  0
    3.0110   -5.3149    0.8263 C   0  0  0  0  0  0  0  0  0  0  0  0
    2.1765   -5.2718   -0.2243 C   0  0  0  0  0  0  0  0  0  0  0  0
    1.9874   -4.0223   -1.0839 C   0  0  0  0  0  0  0  0  0  0  0  0
    2.8823   -2.8434   -0.7107 C   0  0  2  0  0  0  0  0  0  0  0  0
    3.0465   -2.0419   -1.8595 O   0  0  0  0  0  0  0  0  0  0  0  0
    4.1729   -2.2206   -2.6574 C   0  0  0  0  0  0  0  0  0  0  0  0
    4.1717   -3.5148   -3.4697 C   0  0  0  0  0  0  0  0  0  0  0  0
    4.1742   -1.0662   -3.6676 C   0  0  0  0  0  0  0  0  0  0  0  0
    5.3191   -2.1932   -1.8695 O   0  0  0  0  0  0  0  0  0  0  0  0
    5.2827   -3.1579   -0.8168 C   0  0  1  0  0  0  0  0  0  0  0  0
    5.4454   -2.4286    0.4767 C   0  0  1  0  0  0  0  0  0  0  0  0
    6.7612   -2.8973    0.9925 C   0  0  0  0  0  0  0  0  0  0  0  0
    5.0197   -1.1393    1.1418 C   0  0  1  0  0  0  0  0  0  0  0  0
    4.5018   -0.3265    0.1621 O   0  0  0  0  0  0  0  0  0  0  0  0
    3.9628   -1.2665    2.2766 C   0  0  1  0  0  0  0  0  0  0  0  0
    3.7099    0.0073    2.8730 O   0  0  0  0  0  0  0  0  0  0  0  0
    2.6028   -0.6543    2.2875 C   0  0  2  0  0  0  0  0  0  0  0  0
    1.7054   -1.4451    3.2053 C   0  0  0  0  0  0  0  0  0  0  0  0
    2.6777   -2.1930    4.1286 C   0  0  1  0  0  0  0  0  0  0  0  0
    2.0079   -3.3501    4.8538 C   0  0  0  0  0  0  0  0  0  0  0  0
    0.6348   -3.7560    4.8506 C   0  0  0  0  0  0  0  0  0  0  0  0
    0.5485   -4.8453    5.6749 C   0  0  0  0  0  0  0  0  0  0  0  0
    1.7493   -5.1150    6.2386 O   0  0  0  0  0  0  0  0  0  0  0  0
    2.6018   -4.1724    5.7770 C   0  0  0  0  0  0  0  0  0  0  0  0
    4.0285   -2.4214    3.3114 C   0  0  1  0  0  0  0  0  0  0  0  0
    5.1025   -2.1587    4.3597 C   0  0  0  0  0  0  0  0  0  0  0  0
    4.1112   -3.1800    0.1134 C   0  0  2  0  0  0  0  0  0  0  0  0
    7.6320   -5.5954    2.9490 H   0  0  0  0  0  0  0  0  0  0  0  0
    6.9873   -7.1383    3.5474 H   0  0  0  0  0  0  0  0  0  0  0  0
    7.5533   -5.9241    4.6910 H   0  0  0  0  0  0  0  0  0  0  0  0
    3.4647   -4.5156    3.2854 H   0  0  0  0  0  0  0  0  0  0  0  0
    2.5927   -3.5560    1.5309 H   0  0  0  0  0  0  0  0  0  0  0  0
    3.3139   -6.2144    1.3608 H   0  0  0  0  0  0  0  0  0  0  0  0
    1.7371   -6.1655   -0.6093 H   0  0  0  0  0  0  0  0  0  0  0  0
    2.0825   -4.2580   -2.1416 H   0  0  0  0  0  0  0  0  0  0  0  0
    0.9793   -3.6553   -1.0891 H   0  0  0  0  0  0  0  0  0  0  0  0
    2.2716   -2.2746   -0.0209 H   0  0  0  0  0  0  0  0  0  0  0  0
    4.3041   -4.3323   -2.7841 H   0  0  0  0  0  0  0  0  0  0  0  0
    5.0151   -3.5724   -4.1672 H   0  0  0  0  0  0  0  0  0  0  0  0
    3.2370   -3.6348   -4.0139 H   0  0  0  0  0  0  0  0  0  0  0  0
    4.3078   -0.1089   -3.1451 H   0  0  0  0  0  0  0  0  0  0  0  0
    3.2232   -1.0523   -4.2297 H   0  0  0  0  0  0  0  0  0  0  0  0
    4.9819   -1.2438   -4.3809 H   0  0  0  0  0  0  0  0  0  0  0  0
    5.7694   -4.1186   -1.0163 H   0  0  0  0  0  0  0  0  0  0  0  0
    6.8479   -2.6072    2.0175 H   0  0  0  0  0  0  0  0  0  0  0  0
    7.5802   -2.4467    0.4417 H   0  0  0  0  0  0  0  0  0  0  0  0
    6.8392   -3.9724    0.9264 H   0  0  0  0  0  0  0  0  0  0  0  0
    5.8849   -0.6315    1.5651 H   0  0  0  0  0  0  0  0  0  0  0  0
    3.7169   -0.7317   -0.2501 H   0  0  0  0  0  0  0  0  0  0  0  0
    2.1770   -0.2204    1.4007 H   0  0  0  0  0  0  0  0  0  0  0  0
    1.0034   -0.7848    3.7224 H   0  0  0  0  0  0  0  0  0  0  0  0
    1.1343   -2.1348    2.5672 H   0  0  0  0  0  0  0  0  0  0  0  0
    2.8747   -1.4664    4.9235 H   0  0  0  0  0  0  0  0  0  0  0  0
   -0.1964   -3.3121    4.3193 H   0  0  0  0  0  0  0  0  0  0  0  0
   -0.2490   -5.4879    5.9927 H   0  0  0  0  0  0  0  0  0  0  0  0
    3.5889   -4.2455    6.2097 H   0  0  0  0  0  0  0  0  0  0  0  0
    5.0650   -1.1524    4.7930 H   0  0  0  0  0  0  0  0  0  0  0  0
    6.0493   -2.2655    3.8636 H   0  0  0  0  0  0  0  0  0  0  0  0
    5.0849   -2.8762    5.1888 H   0  0  0  0  0  0  0  0  0  0  0  0
  1  2  1  0
  1 34  1  0
  1 35  1  0
  1 36  1  0
  2  3  2  0
  2  4  1  0
  4  5  1  0
  5 31  1  0
  5  6  1  0
  5 37  1  1
  6 33  1  0
  6  7  1  0
  6 38  1  1
  7  8  2  0
  7 39  1  0
  8  9  1  0
  8 40  1  0
  9 10  1  0
  9 41  1  0
  9 42  1  0
 10 33  1  0
 10 11  1  0
 10 43  1  1
 11 12  1  0
 12 13  1  0
 12 14  1  0
 12 15  1  0
 13 44  1  0
 13 45  1  0
 13 46  1  0
 14 47  1  0
 14 48  1  0
 14 49  1  0
 15 16  1  0
 16 33  1  0
 16 17  1  0
 16 50  1  6
 17 18  1  1
 17 19  1  0
 33 17  1  1
 18 51  1  0
 18 52  1  0
 18 53  1  0
 19 20  1  0
 19 21  1  0
 19 54  1  1
 20 55  1  0
 21 23  1  0
 21 31  1  0
 21 22  1  1
 22 23  1  0
 23 24  1  0
 23 56  1  6
 24 25  1  0
 24 57  1  0
 24 58  1  0
 25 26  1  0
 25 31  1  0
 25 59  1  1
 26 30  2  0
 26 27  1  0
 27 28  2  0
 27 60  1  0
 28 29  1  0
 28 61  1  0
 29 30  1  0
 30 62  1  0
 31 32  1  1
 32 63  1  0
 32 64  1  0
 32 65  1  0
M  END
>  <i_m_ct_stereo_status>  (48) 
1

>  <s_m_source_file>  (48) 
/var/tmp/pbs.5076255.sched01/tmpu3exd1vk/0t_9me_9p.sdf

>  <i_m_source_file_index>  (48) 
21

>  <i_lp_mmshare_version>  (48) 
48012

>  <i_f3d_flags>  (48) 
1

>  <s_epik_input>  (48) 
W2NIXTFvW2NIXVtjSF1jMVtDQEhdKFtDSDJdW0NAQEhdKFtDQEBdMjM0KU8zKVtDQEBdNChbQ0gzXSlbQ0BIXShPQyg9TylbQ0gzXSlbQ0BIXTVbQ0BdNjdbQ0BIXShbQ0gyXVtDSF09W0NIXTUpT0MoW0NIM10pKFtDSDNdKU9bQ0BIXTZDNyhbQ0gzXSlbQ0BIXTJbT0hd

>  <s_epik_cmdline>  (48) 
J2VwaWtfcHl0aG9uJywgJy1waHQnLCAnMi4wJywgJy1waCcsICc3LjAnLCAnLXRuJywgJzgnLCAnLW1hJywgJzIwMCcsICctaW1hZScsICc8aW5maWxlLm1hZT4nLCAnLW9tYWUnLCAnPG91dGZpbGUubWFlPic=

>  <r_lp_tautomer_probability>  (48) 
1

>  <r_epik_Ionization_Penalty>  (48) 
4.2901e-08

>  <r_epik_Ionization_Penalty_Charging>  (48) 
0

>  <r_epik_Ionization_Penalty_Neutral>  (48) 
4.2901e-08

>  <r_epik_State_Penalty>  (48) 
-0

>  <r_epik_Charging_Adjusted_Penalty>  (48) 
0

>  <i_epik_Tot_Q>  (48) 
0

>  <i_epik_Tot_abs_Q>  (48) 
0

>  <s_epik_Chemistry_Notes>  (48) 
This compound has an ester and may undergo hydrolysis at high or low pH.

>  <s_lp_Force_Field>  (48) 
OPLS3e

>  <r_lp_Energy>  (48) 
98.1477

>  <b_lp_Chiralities_Consistent>  (48) 
1

>  <s_lp_Variant>  (48) 
15:0-1

>  <s_i_glide_gridfile>  (48) 
pfpi4k_grid

>  <i_i_glide_lignum>  (48) 
21

>  <i_i_glide_rotatable_bonds>  (48) 
4

>  <r_i_docking_score>  (48) 
-1.98378

>  <r_i_glide_ligand_efficiency>  (48) 
-0.0601147

>  <r_i_glide_ligand_efficiency_sa>  (48) 
-0.19282

>  <r_i_glide_ligand_efficiency_ln>  (48) 
-0.441183

>  <r_i_glide_gscore>  (48) 
-1.98378

>  <r_i_glide_lipo>  (48) 
-0.642083

>  <r_i_glide_hbond>  (48) 
0

>  <r_i_glide_metal>  (48) 
-0

>  <r_i_glide_rewards>  (48) 
-0.42062

>  <r_i_glide_evdw>  (48) 
-20.5936

>  <r_i_glide_ecoul>  (48) 
-0.561751

>  <r_i_glide_erotb>  (48) 
0.19286

>  <r_i_glide_esite>  (48) 
0

>  <r_i_glide_emodel>  (48) 
-22.1238

>  <r_i_glide_energy>  (48) 
-21.1553

>  <r_i_glide_einternal>  (48) 
0.3643

>  <r_i_glide_intrahb_reward>  (48) 
-0

>  <i_i_glide_confnum>  (48) 
3

>  <i_i_glide_posenum>  (48) 
38

>  <r_i_glide_eff_state_penalty>  (48) 
0

>  <ligand_id>  (48) 
15

>  <original_smiles>  (48) 
CC(=O)OC1C2C=CCC3OC(C)(C)OC4C(C)(C(O)C56OC5CC(c5ccoc5)C16C)C324

>  <smiles>  (48) 
[H]OC1([H])C23OC2([H])C([H])([H])C([H])(c2c([H])oc([H])c2[H])C3(C([H])([H])[H])C([H])(OC(=O)C([H])([H])[H])C2([H])C([H])=C([H])C([H])([H])C3([H])OC(C([H])([H])[H])(C([H])([H])[H])OC4([H])C1(C([H])([H])[H])C342

$$$$
15:0:2
     RDKit          3D

 65 71  0  0  1  0  0  0  0  0999 V2000
    6.7511   -6.1571    3.9117 C   0  0  0  0  0  0  0  0  0  0  0  0
    5.3688   -5.5198    3.9224 C   0  0  0  0  0  0  0  0  0  0  0  0
    4.5263   -5.8751    4.7366 O   0  0  0  0  0  0  0  0  0  0  0  0
    5.2179   -4.5725    2.9689 O   0  0  0  0  0  0  0  0  0  0  0  0
    3.9796   -3.8717    2.7664 C   0  0  2  0  0  0  0  0  0  0  0  0
    3.4578   -4.0166    1.3066 C   0  0  2  0  0  0  0  0  0  0  0  0
    2.8955   -5.3108    0.8295 C   0  0  0  0  0  0  0  0  0  0  0  0
    2.1119   -5.2660   -0.2668 C   0  0  0  0  0  0  0  0  0  0  0  0
    1.9129   -3.9988   -1.1155 C   0  0  0  0  0  0  0  0  0  0  0  0
    2.8508   -2.8438   -0.7495 C   0  0  2  0  0  0  0  0  0  0  0  0
    3.1094   -2.0814   -1.9147 O   0  0  0  0  0  0  0  0  0  0  0  0
    4.2640   -2.3441   -2.6458 C   0  0  0  0  0  0  0  0  0  0  0  0
    4.2545   -3.6806   -3.4070 C   0  0  0  0  0  0  0  0  0  0  0  0
    4.3550   -1.2180   -3.6600 C   0  0  0  0  0  0  0  0  0  0  0  0
    5.3789   -2.3158   -1.8192 O   0  0  0  0  0  0  0  0  0  0  0  0
    5.2669   -3.2468   -0.7369 C   0  0  1  0  0  0  0  0  0  0  0  0
    5.3848   -2.5016    0.5413 C   0  0  1  0  0  0  0  0  0  0  0  0
    6.6781   -3.0124    1.1303 C   0  0  0  0  0  0  0  0  0  0  0  0
    4.9986   -1.1467    1.1493 C   0  0  1  0  0  0  0  0  0  0  0  0
    4.5527   -0.2924    0.1357 O   0  0  0  0  0  0  0  0  0  0  0  0
    3.9298   -1.2474    2.2676 C   0  0  1  0  0  0  0  0  0  0  0  0
    3.6637    0.0434    2.8411 O   0  0  0  0  0  0  0  0  0  0  0  0
    2.5674   -0.6079    2.1970 C   0  0  2  0  0  0  0  0  0  0  0  0
    1.6240   -1.3424    3.0913 C   0  0  0  0  0  0  0  0  0  0  0  0
    2.5300   -2.1098    4.0791 C   0  0  1  0  0  0  0  0  0  0  0  0
    1.8425   -3.2435    4.8182 C   0  0  0  0  0  0  0  0  0  0  0  0
    2.3976   -4.0778    5.8253 C   0  0  0  0  0  0  0  0  0  0  0  0
    1.4162   -4.9701    6.1947 C   0  0  0  0  0  0  0  0  0  0  0  0
    0.2624   -4.7022    5.5374 O   0  0  0  0  0  0  0  0  0  0  0  0
    0.5336   -3.6490    4.7178 C   0  0  0  0  0  0  0  0  0  0  0  0
    3.9017   -2.3856    3.3470 C   0  0  1  0  0  0  0  0  0  0  0  0
    4.9764   -2.1437    4.4127 C   0  0  0  0  0  0  0  0  0  0  0  0
    4.0587   -3.2142    0.1319 C   0  0  2  0  0  0  0  0  0  0  0  0
    7.3803   -5.7007    3.1508 H   0  0  0  0  0  0  0  0  0  0  0  0
    6.6530   -7.2212    3.7018 H   0  0  0  0  0  0  0  0  0  0  0  0
    7.2321   -6.0461    4.8843 H   0  0  0  0  0  0  0  0  0  0  0  0
    3.2523   -4.4622    3.3136 H   0  0  0  0  0  0  0  0  0  0  0  0
    2.4974   -3.5273    1.5004 H   0  0  0  0  0  0  0  0  0  0  0  0
    3.1439   -6.2079    1.3736 H   0  0  0  0  0  0  0  0  0  0  0  0
    1.6835   -6.1830   -0.6505 H   0  0  0  0  0  0  0  0  0  0  0  0
    2.0497   -4.2303   -2.1792 H   0  0  0  0  0  0  0  0  0  0  0  0
    0.8792   -3.6511   -1.1455 H   0  0  0  0  0  0  0  0  0  0  0  0
    2.2599   -2.2225   -0.0872 H   0  0  0  0  0  0  0  0  0  0  0  0
    4.3244   -4.4992   -2.6983 H   0  0  0  0  0  0  0  0  0  0  0  0
    5.1092   -3.7628   -4.0846 H   0  0  0  0  0  0  0  0  0  0  0  0
    3.3345   -3.7753   -3.9778 H   0  0  0  0  0  0  0  0  0  0  0  0
    4.5194   -0.2617   -3.1587 H   0  0  0  0  0  0  0  0  0  0  0  0
    3.4731   -1.1796   -4.3011 H   0  0  0  0  0  0  0  0  0  0  0  0
    5.1808   -1.4516   -4.3096 H   0  0  0  0  0  0  0  0  0  0  0  0
    5.7356   -4.2205   -0.9118 H   0  0  0  0  0  0  0  0  0  0  0  0
    6.7121   -2.7054    2.1507 H   0  0  0  0  0  0  0  0  0  0  0  0
    7.5381   -2.5982    0.6065 H   0  0  0  0  0  0  0  0  0  0  0  0
    6.7283   -4.0973    1.0770 H   0  0  0  0  0  0  0  0  0  0  0  0
    5.8797   -0.6926    1.5908 H   0  0  0  0  0  0  0  0  0  0  0  0
    3.7628   -0.6453   -0.2354 H   0  0  0  0  0  0  0  0  0  0  0  0
    2.1916   -0.1561    1.2884 H   0  0  0  0  0  0  0  0  0  0  0  0
    0.9211   -0.6604    3.5828 H   0  0  0  0  0  0  0  0  0  0  0  0
    1.0377   -2.0232    2.4683 H   0  0  0  0  0  0  0  0  0  0  0  0
    2.7155   -1.3771    4.8630 H   0  0  0  0  0  0  0  0  0  0  0  0
    3.3936   -4.0845    6.2341 H   0  0  0  0  0  0  0  0  0  0  0  0
    1.3934   -5.7922    6.8858 H   0  0  0  0  0  0  0  0  0  0  0  0
   -0.3060   -3.3037    4.1358 H   0  0  0  0  0  0  0  0  0  0  0  0
    4.9363   -1.1348    4.8322 H   0  0  0  0  0  0  0  0  0  0  0  0
    5.9542   -2.2695    3.9811 H   0  0  0  0  0  0  0  0  0  0  0  0
    4.9058   -2.8459    5.2430 H   0  0  0  0  0  0  0  0  0  0  0  0
  1  2  1  0
  1 34  1  0
  1 35  1  0
  1 36  1  0
  2  3  2  0
  2  4  1  0
  4  5  1  0
  5 31  1  0
  5  6  1  0
  5 37  1  1
  6 33  1  0
  6  7  1  0
  6 38  1  1
  7  8  2  0
  7 39  1  0
  8  9  1  0
  8 40  1  0
  9 10  1  0
  9 41  1  0
  9 42  1  0
 10 33  1  0
 10 11  1  0
 10 43  1  1
 11 12  1  0
 12 13  1  0
 12 14  1  0
 12 15  1  0
 13 44  1  0
 13 45  1  0
 13 46  1  0
 14 47  1  0
 14 48  1  0
 14 49  1  0
 15 16  1  0
 16 33  1  0
 16 17  1  0
 16 50  1  6
 17 18  1  1
 17 19  1  0
 33 17  1  1
 18 51  1  0
 18 52  1  0
 18 53  1  0
 19 20  1  0
 19 21  1  0
 19 54  1  1
 20 55  1  0
 21 23  1  0
 21 31  1  0
 21 22  1  1
 22 23  1  0
 23 24  1  0
 23 56  1  6
 24 25  1  0
 24 57  1  0
 24 58  1  0
 25 26  1  0
 25 31  1  0
 25 59  1  1
 26 30  2  0
 26 27  1  0
 27 28  2  0
 27 60  1  0
 28 29  1  0
 28 61  1  0
 29 30  1  0
 30 62  1  0
 31 32  1  1
 32 63  1  0
 32 64  1  0
 32 65  1  0
M  END
>  <i_m_ct_stereo_status>  (49) 
1

>  <s_m_source_file>  (49) 
/var/tmp/pbs.5076255.sched01/tmpu3exd1vk/0t_9me_9p.sdf

>  <i_m_source_file_index>  (49) 
21

>  <i_lp_mmshare_version>  (49) 
48012

>  <i_f3d_flags>  (49) 
1

>  <s_epik_input>  (49) 
W2NIXTFvW2NIXVtjSF1jMVtDQEhdKFtDSDJdW0NAQEhdKFtDQEBdMjM0KU8zKVtDQEBdNChbQ0gzXSlbQ0BIXShPQyg9TylbQ0gzXSlbQ0BIXTVbQ0BdNjdbQ0BIXShbQ0gyXVtDSF09W0NIXTUpT0MoW0NIM10pKFtDSDNdKU9bQ0BIXTZDNyhbQ0gzXSlbQ0BIXTJbT0hd

>  <s_epik_cmdline>  (49) 
J2VwaWtfcHl0aG9uJywgJy1waHQnLCAnMi4wJywgJy1waCcsICc3LjAnLCAnLXRuJywgJzgnLCAnLW1hJywgJzIwMCcsICctaW1hZScsICc8aW5maWxlLm1hZT4nLCAnLW9tYWUnLCAnPG91dGZpbGUubWFlPic=

>  <r_lp_tautomer_probability>  (49) 
1

>  <r_epik_Ionization_Penalty>  (49) 
4.2901e-08

>  <r_epik_Ionization_Penalty_Charging>  (49) 
0

>  <r_epik_Ionization_Penalty_Neutral>  (49) 
4.2901e-08

>  <r_epik_State_Penalty>  (49) 
-0

>  <r_epik_Charging_Adjusted_Penalty>  (49) 
0

>  <i_epik_Tot_Q>  (49) 
0

>  <i_epik_Tot_abs_Q>  (49) 
0

>  <s_epik_Chemistry_Notes>  (49) 
This compound has an ester and may undergo hydrolysis at high or low pH.

>  <s_lp_Force_Field>  (49) 
OPLS3e

>  <r_lp_Energy>  (49) 
98.1477

>  <b_lp_Chiralities_Consistent>  (49) 
1

>  <s_lp_Variant>  (49) 
15:0-1

>  <s_i_glide_gridfile>  (49) 
pfpi4k_grid

>  <i_i_glide_lignum>  (49) 
21

>  <i_i_glide_rotatable_bonds>  (49) 
4

>  <r_i_docking_score>  (49) 
-1.80341

>  <r_i_glide_ligand_efficiency>  (49) 
-0.0546488

>  <r_i_glide_ligand_efficiency_sa>  (49) 
-0.175288

>  <r_i_glide_ligand_efficiency_ln>  (49) 
-0.401069

>  <r_i_glide_gscore>  (49) 
-1.80341

>  <r_i_glide_lipo>  (49) 
-0.51709

>  <r_i_glide_hbond>  (49) 
0

>  <r_i_glide_metal>  (49) 
-0

>  <r_i_glide_rewards>  (49) 
-0.46646

>  <r_i_glide_evdw>  (49) 
-16.3629

>  <r_i_glide_ecoul>  (49) 
-1.29716

>  <r_i_glide_erotb>  (49) 
0.19286

>  <r_i_glide_esite>  (49) 
0

>  <r_i_glide_emodel>  (49) 
-19.0638

>  <r_i_glide_energy>  (49) 
-17.66

>  <r_i_glide_einternal>  (49) 
0.278875

>  <r_i_glide_intrahb_reward>  (49) 
-0

>  <i_i_glide_confnum>  (49) 
1

>  <i_i_glide_posenum>  (49) 
17

>  <r_i_glide_eff_state_penalty>  (49) 
0

>  <ligand_id>  (49) 
15

>  <original_smiles>  (49) 
CC(=O)OC1C2C=CCC3OC(C)(C)OC4C(C)(C(O)C56OC5CC(c5ccoc5)C16C)C324

>  <smiles>  (49) 
[H]OC1([H])C23OC2([H])C([H])([H])C([H])(c2c([H])oc([H])c2[H])C3(C([H])([H])[H])C([H])(OC(=O)C([H])([H])[H])C2([H])C([H])=C([H])C([H])([H])C3([H])OC(C([H])([H])[H])(C([H])([H])[H])OC4([H])C1(C([H])([H])[H])C342

$$$$
15:1:0
     RDKit          3D

 65 71  0  0  1  0  0  0  0  0999 V2000
   -0.5712   -7.5140    2.8377 C   0  0  0  0  0  0  0  0  0  0  0  0
    0.4748   -7.1984    1.7633 C   0  0  0  0  0  0  0  0  0  0  0  0
    0.1284   -6.6505    0.7215 O   0  0  0  0  0  0  0  0  0  0  0  0
    1.7605   -7.5549    2.0061 O   0  0  0  0  0  0  0  0  0  0  0  0
    2.3000   -7.8381    3.3002 C   0  0  2  0  0  0  0  0  0  0  0  0
    3.3630   -6.7618    3.6859 C   0  0  2  0  0  0  0  0  0  0  0  0
    2.6419   -5.4856    4.0967 C   0  0  0  0  0  0  0  0  0  0  0  0
    3.3090   -4.3760    4.4269 C   0  0  0  0  0  0  0  0  0  0  0  0
    4.8074   -4.3243    4.3695 C   0  0  0  0  0  0  0  0  0  0  0  0
    5.4601   -5.3396    3.3831 C   0  0  2  0  0  0  0  0  0  0  0  0
    6.1947   -4.5633    2.4368 O   0  0  0  0  0  0  0  0  0  0  0  0
    5.6266   -4.3454    1.1747 C   0  0  0  0  0  0  0  0  0  0  0  0
    4.3524   -3.4781    1.2585 C   0  0  0  0  0  0  0  0  0  0  0  0
    6.6996   -3.6430    0.3374 C   0  0  0  0  0  0  0  0  0  0  0  0
    5.3585   -5.5578    0.5409 O   0  0  0  0  0  0  0  0  0  0  0  0
    4.4809   -6.4242    1.2338 C   0  0  1  0  0  0  0  0  0  0  0  0
    5.2065   -7.5757    1.8940 C   0  0  2  0  0  0  0  0  0  0  0  0
    6.7496   -7.6639    1.8434 C   0  0  0  0  0  0  0  0  0  0  0  0
    4.5598   -8.9619    1.7274 C   0  0  1  0  0  0  0  0  0  0  0  0
    5.3674   -9.8415    0.9933 O   0  0  0  0  0  0  0  0  0  0  0  0
    4.1152   -9.6194    3.0356 C   0  0  1  0  0  0  0  0  0  0  0  0
    4.6269  -10.9288    3.3019 O   0  0  0  0  0  0  0  0  0  0  0  0
    5.0178   -9.8816    4.1886 C   0  0  2  0  0  0  0  0  0  0  0  0
    4.2341   -9.7322    5.4732 C   0  0  0  0  0  0  0  0  0  0  0  0
    2.7555   -9.7463    5.0507 C   0  0  1  0  0  0  0  0  0  0  0  0
    1.8358   -9.0265    6.0345 C   0  0  0  0  0  0  0  0  0  0  0  0
    2.0433   -7.7800    6.7157 C   0  0  0  0  0  0  0  0  0  0  0  0
    0.9473   -7.5712    7.4970 C   0  0  0  0  0  0  0  0  0  0  0  0
    0.0737   -8.5984    7.3835 O   0  0  0  0  0  0  0  0  0  0  0  0
    0.6221   -9.4537    6.4799 C   0  0  0  0  0  0  0  0  0  0  0  0
    2.6943   -9.3463    3.5267 C   0  0  1  0  0  0  0  0  0  0  0  0
    1.6863  -10.3210    2.8657 C   0  0  0  0  0  0  0  0  0  0  0  0
    4.5620   -6.4384    2.7477 C   0  0  2  0  0  0  0  0  0  0  0  0
   -0.5581   -8.5687    3.1113 H   0  0  0  0  0  0  0  0  0  0  0  0
   -1.5847   -7.3087    2.4794 H   0  0  0  0  0  0  0  0  0  0  0  0
   -0.4134   -6.9181    3.7346 H   0  0  0  0  0  0  0  0  0  0  0  0
    1.5054   -7.6787    4.0173 H   0  0  0  0  0  0  0  0  0  0  0  0
    3.8312   -7.0936    4.6114 H   0  0  0  0  0  0  0  0  0  0  0  0
    1.5628   -5.5136    4.1482 H   0  0  0  0  0  0  0  0  0  0  0  0
    2.7972   -3.4867    4.7644 H   0  0  0  0  0  0  0  0  0  0  0  0
    5.1015   -3.3095    4.1024 H   0  0  0  0  0  0  0  0  0  0  0  0
    5.1892   -4.4886    5.3775 H   0  0  0  0  0  0  0  0  0  0  0  0
    6.2193   -5.8591    3.9726 H   0  0  0  0  0  0  0  0  0  0  0  0
    3.5336   -3.9966    1.7526 H   0  0  0  0  0  0  0  0  0  0  0  0
    4.0193   -3.2043    0.2549 H   0  0  0  0  0  0  0  0  0  0  0  0
    4.5624   -2.5617    1.8099 H   0  0  0  0  0  0  0  0  0  0  0  0
    7.5898   -4.2644    0.2623 H   0  0  0  0  0  0  0  0  0  0  0  0
    6.9686   -2.6857    0.7918 H   0  0  0  0  0  0  0  0  0  0  0  0
    6.3164   -3.4580   -0.6686 H   0  0  0  0  0  0  0  0  0  0  0  0
    3.5423   -6.5778    0.7076 H   0  0  0  0  0  0  0  0  0  0  0  0
    7.1267   -8.3238    2.6239 H   0  0  0  0  0  0  0  0  0  0  0  0
    7.2216   -6.7015    1.9762 H   0  0  0  0  0  0  0  0  0  0  0  0
    7.0909   -8.0424    0.8806 H   0  0  0  0  0  0  0  0  0  0  0  0
    3.6765   -8.8523    1.0992 H   0  0  0  0  0  0  0  0  0  0  0  0
    4.9014  -10.6834    0.8832 H   0  0  0  0  0  0  0  0  0  0  0  0
    6.0549   -9.5833    4.1747 H   0  0  0  0  0  0  0  0  0  0  0  0
    4.4903  -10.5113    6.1930 H   0  0  0  0  0  0  0  0  0  0  0  0
    4.5132   -8.7726    5.9142 H   0  0  0  0  0  0  0  0  0  0  0  0
    2.4731  -10.8032    5.1346 H   0  0  0  0  0  0  0  0  0  0  0  0
    2.8901   -7.1186    6.6615 H   0  0  0  0  0  0  0  0  0  0  0  0
    0.6604   -6.7845    8.1763 H   0  0  0  0  0  0  0  0  0  0  0  0
    0.0145  -10.3433    6.2979 H   0  0  0  0  0  0  0  0  0  0  0  0
    1.9706  -11.3632    3.0227 H   0  0  0  0  0  0  0  0  0  0  0  0
    1.6044  -10.1779    1.7900 H   0  0  0  0  0  0  0  0  0  0  0  0
    0.6902  -10.2212    3.3003 H   0  0  0  0  0  0  0  0  0  0  0  0
  1  2  1  0
  1 34  1  0
  1 35  1  0
  1 36  1  0
  2  3  2  0
  2  4  1  0
  4  5  1  0
  5 31  1  0
  5  6  1  0
  5 37  1  1
  6 33  1  0
  6  7  1  0
  6 38  1  1
  7  8  2  0
  7 39  1  0
  8  9  1  0
  8 40  1  0
  9 10  1  0
  9 41  1  0
  9 42  1  0
 10 33  1  0
 10 11  1  0
 10 43  1  1
 11 12  1  0
 12 13  1  0
 12 14  1  0
 12 15  1  0
 13 44  1  0
 13 45  1  0
 13 46  1  0
 14 47  1  0
 14 48  1  0
 14 49  1  0
 15 16  1  0
 16 33  1  0
 16 17  1  0
 16 50  1  1
 17 18  1  6
 17 19  1  0
 33 17  1  6
 18 51  1  0
 18 52  1  0
 18 53  1  0
 19 20  1  0
 19 21  1  0
 19 54  1  6
 20 55  1  0
 21 23  1  0
 21 31  1  0
 21 22  1  6
 22 23  1  0
 23 24  1  0
 23 56  1  1
 24 25  1  0
 24 57  1  0
 24 58  1  0
 25 26  1  0
 25 31  1  0
 25 59  1  6
 26 30  2  0
 26 27  1  0
 27 28  2  0
 27 60  1  0
 28 29  1  0
 28 61  1  0
 29 30  1  0
 30 62  1  0
 31 32  1  6
 32 63  1  0
 32 64  1  0
 32 65  1  0
M  END
>  <i_m_ct_stereo_status>  (50) 
1

>  <s_m_source_file>  (50) 
/var/tmp/pbs.5076255.sched01/tmpu3exd1vk/0t_9me_9p.sdf

>  <i_m_source_file_index>  (50) 
22

>  <i_lp_mmshare_version>  (50) 
48012

>  <i_f3d_flags>  (50) 
1

>  <s_epik_input>  (50) 
W2NIXTFvW2NIXVtjSF1jMVtDQEhdKFtDSDJdW0NAQEhdKFtDQEBdMjM0KU8zKVtDQEBdNChbQ0gzXSlbQ0BIXShPQyg9TylbQ0gzXSlbQ0BIXTVbQ0BdNjdbQ0BIXShbQ0gyXVtDSF09W0NIXTUpT0MoW0NIM10pKFtDSDNdKU9bQ0BIXTZDNyhbQ0gzXSlbQ0BIXTJbT0hd

>  <s_epik_cmdline>  (50) 
J2VwaWtfcHl0aG9uJywgJy1waHQnLCAnMi4wJywgJy1waCcsICc3LjAnLCAnLXRuJywgJzgnLCAnLW1hJywgJzIwMCcsICctaW1hZScsICc8aW5maWxlLm1hZT4nLCAnLW9tYWUnLCAnPG91dGZpbGUubWFlPic=

>  <r_lp_tautomer_probability>  (50) 
1

>  <r_epik_Ionization_Penalty>  (50) 
4.2901e-08

>  <r_epik_Ionization_Penalty_Charging>  (50) 
0

>  <r_epik_Ionization_Penalty_Neutral>  (50) 
4.2901e-08

>  <r_epik_State_Penalty>  (50) 
-0

>  <r_epik_Charging_Adjusted_Penalty>  (50) 
0

>  <i_epik_Tot_Q>  (50) 
0

>  <i_epik_Tot_abs_Q>  (50) 
0

>  <s_epik_Chemistry_Notes>  (50) 
This compound has an ester and may undergo hydrolysis at high or low pH.

>  <s_lp_Force_Field>  (50) 
OPLS3e

>  <r_lp_Energy>  (50) 
53.4247

>  <b_lp_Chiralities_Consistent>  (50) 
1

>  <s_lp_Variant>  (50) 
15:0-2

>  <s_i_glide_gridfile>  (50) 
pfpi4k_grid

>  <i_i_glide_lignum>  (50) 
22

>  <i_i_glide_rotatable_bonds>  (50) 
4

>  <r_i_docking_score>  (50) 
-3.41866

>  <r_i_glide_ligand_efficiency>  (50) 
-0.103596

>  <r_i_glide_ligand_efficiency_sa>  (50) 
-0.332287

>  <r_i_glide_ligand_efficiency_ln>  (50) 
-0.760292

>  <r_i_glide_gscore>  (50) 
-3.41866

>  <r_i_glide_lipo>  (50) 
-0.456375

>  <r_i_glide_hbond>  (50) 
-0.16

>  <r_i_glide_metal>  (50) 
-0

>  <r_i_glide_rewards>  (50) 
-0.380092

>  <r_i_glide_evdw>  (50) 
-29.7037

>  <r_i_glide_ecoul>  (50) 
-7.03239

>  <r_i_glide_erotb>  (50) 
0.19286

>  <r_i_glide_esite>  (50) 
-0.0750081

>  <r_i_glide_emodel>  (50) 
-41.6537

>  <r_i_glide_energy>  (50) 
-36.7361

>  <r_i_glide_einternal>  (50) 
6.52897

>  <r_i_glide_intrahb_reward>  (50) 
-0

>  <i_i_glide_confnum>  (50) 
3

>  <i_i_glide_posenum>  (50) 
7

>  <r_i_glide_eff_state_penalty>  (50) 
0

>  <ligand_id>  (50) 
15

>  <original_smiles>  (50) 
CC(=O)OC1C2C=CCC3OC(C)(C)OC4C(C)(C(O)C56OC5CC(c5ccoc5)C16C)C324

>  <smiles>  (50) 
[H]OC1([H])C23OC2([H])C([H])([H])C([H])(c2c([H])oc([H])c2[H])C3(C([H])([H])[H])C([H])(OC(=O)C([H])([H])[H])C2([H])C([H])=C([H])C([H])([H])C3([H])OC(C([H])([H])[H])(C([H])([H])[H])OC4([H])C1(C([H])([H])[H])C342

$$$$
15:1:1
     RDKit          3D

 65 71  0  0  1  0  0  0  0  0999 V2000
    2.0251   -8.3551    1.8262 C   0  0  0  0  0  0  0  0  0  0  0  0
    2.5199   -7.4878    2.9767 C   0  0  0  0  0  0  0  0  0  0  0  0
    1.8027   -7.2375    3.9450 O   0  0  0  0  0  0  0  0  0  0  0  0
    3.7880   -7.0597    2.7863 O   0  0  0  0  0  0  0  0  0  0  0  0
    4.4872   -6.2852    3.7661 C   0  0  2  0  0  0  0  0  0  0  0  0
    4.8374   -4.8505    3.2369 C   0  0  2  0  0  0  0  0  0  0  0  0
    3.6075   -3.9729    3.3446 C   0  0  0  0  0  0  0  0  0  0  0  0
    3.6014   -2.7133    2.9008 C   0  0  0  0  0  0  0  0  0  0  0  0
    4.8084   -2.1085    2.2330 C   0  0  0  0  0  0  0  0  0  0  0  0
    5.7655   -3.1379    1.5737 C   0  0  2  0  0  0  0  0  0  0  0  0
    5.8245   -2.7974    0.1836 O   0  0  0  0  0  0  0  0  0  0  0  0
    5.0727   -3.5559   -0.7133 C   0  0  0  0  0  0  0  0  0  0  0  0
    3.5532   -3.3715   -0.4916 C   0  0  0  0  0  0  0  0  0  0  0  0
    5.4703   -3.0835   -2.1212 C   0  0  0  0  0  0  0  0  0  0  0  0
    5.4133   -4.8988   -0.6309 O   0  0  0  0  0  0  0  0  0  0  0  0
    5.2604   -5.5039    0.6425 C   0  0  1  0  0  0  0  0  0  0  0  0
    6.5904   -5.6916    1.3559 C   0  0  2  0  0  0  0  0  0  0  0  0
    7.9082   -5.1792    0.7413 C   0  0  0  0  0  0  0  0  0  0  0  0
    6.7890   -7.0610    2.0269 C   0  0  1  0  0  0  0  0  0  0  0  0
    7.8133   -7.8370    1.4303 O   0  0  0  0  0  0  0  0  0  0  0  0
    6.9391   -7.0092    3.5454 C   0  0  1  0  0  0  0  0  0  0  0  0
    8.1122   -7.6330    4.0927 O   0  0  0  0  0  0  0  0  0  0  0  0
    7.9850   -6.2125    4.2454 C   0  0  2  0  0  0  0  0  0  0  0  0
    7.4389   -5.6983    5.5453 C   0  0  0  0  0  0  0  0  0  0  0  0
    6.1547   -6.5187    5.7945 C   0  0  1  0  0  0  0  0  0  0  0  0
    5.1213   -5.8275    6.6714 C   0  0  0  0  0  0  0  0  0  0  0  0
    4.2006   -6.4782    7.5477 C   0  0  0  0  0  0  0  0  0  0  0  0
    3.4677   -5.4939    8.1543 C   0  0  0  0  0  0  0  0  0  0  0  0
    3.8692   -4.2696    7.7297 O   0  0  0  0  0  0  0  0  0  0  0  0
    4.8697   -4.4914    6.8337 C   0  0  0  0  0  0  0  0  0  0  0  0
    5.6754   -7.0920    4.4013 C   0  0  1  0  0  0  0  0  0  0  0  0
    5.2624   -8.5676    4.6506 C   0  0  0  0  0  0  0  0  0  0  0  0
    5.5445   -4.6537    1.8599 C   0  0  2  0  0  0  0  0  0  0  0  0
    2.1628   -7.8292    0.8831 H   0  0  0  0  0  0  0  0  0  0  0  0
    0.9662   -8.5941    1.9356 H   0  0  0  0  0  0  0  0  0  0  0  0
    2.5829   -9.2918    1.7861 H   0  0  0  0  0  0  0  0  0  0  0  0
    3.7878   -6.1324    4.5861 H   0  0  0  0  0  0  0  0  0  0  0  0
    5.5106   -4.4076    3.9690 H   0  0  0  0  0  0  0  0  0  0  0  0
    2.7321   -4.3896    3.8208 H   0  0  0  0  0  0  0  0  0  0  0  0
    2.7365   -2.0739    3.0107 H   0  0  0  0  0  0  0  0  0  0  0  0
    4.4627   -1.3932    1.4852 H   0  0  0  0  0  0  0  0  0  0  0  0
    5.3533   -1.5232    2.9768 H   0  0  0  0  0  0  0  0  0  0  0  0
    6.7586   -2.8968    1.9520 H   0  0  0  0  0  0  0  0  0  0  0  0
    3.2315   -3.8158    0.4486 H   0  0  0  0  0  0  0  0  0  0  0  0
    3.0039   -3.8596   -1.2972 H   0  0  0  0  0  0  0  0  0  0  0  0
    3.2977   -2.3116   -0.4867 H   0  0  0  0  0  0  0  0  0  0  0  0
    6.5385   -3.2353   -2.2834 H   0  0  0  0  0  0  0  0  0  0  0  0
    5.2379   -2.0265   -2.2505 H   0  0  0  0  0  0  0  0  0  0  0  0
    4.9251   -3.6579   -2.8691 H   0  0  0  0  0  0  0  0  0  0  0  0
    4.5113   -6.2868    0.6453 H   0  0  0  0  0  0  0  0  0  0  0  0
    8.6855   -5.0773    1.4975 H   0  0  0  0  0  0  0  0  0  0  0  0
    7.7943   -4.2136    0.2604 H   0  0  0  0  0  0  0  0  0  0  0  0
    8.2739   -5.8556   -0.0312 H   0  0  0  0  0  0  0  0  0  0  0  0
    5.9122   -7.6637    1.8122 H   0  0  0  0  0  0  0  0  0  0  0  0
    8.6678   -7.5108    1.6778 H   0  0  0  0  0  0  0  0  0  0  0  0
    8.6967   -5.5986    3.6970 H   0  0  0  0  0  0  0  0  0  0  0  0
    8.1688   -5.7756    6.3538 H   0  0  0  0  0  0  0  0  0  0  0  0
    7.2142   -4.6437    5.4093 H   0  0  0  0  0  0  0  0  0  0  0  0
    6.5018   -7.3530    6.4011 H   0  0  0  0  0  0  0  0  0  0  0  0
    4.0836   -7.5358    7.7319 H   0  0  0  0  0  0  0  0  0  0  0  0
    2.6713   -5.4958    8.8812 H   0  0  0  0  0  0  0  0  0  0  0  0
    5.2946   -3.5883    6.4233 H   0  0  0  0  0  0  0  0  0  0  0  0
    6.0495   -9.1356    5.1462 H   0  0  0  0  0  0  0  0  0  0  0  0
    5.0259   -9.1041    3.7314 H   0  0  0  0  0  0  0  0  0  0  0  0
    4.3838   -8.6235    5.2957 H   0  0  0  0  0  0  0  0  0  0  0  0
  1  2  1  0
  1 34  1  0
  1 35  1  0
  1 36  1  0
  2  3  2  0
  2  4  1  0
  4  5  1  0
  5 31  1  0
  5  6  1  0
  5 37  1  1
  6 33  1  0
  6  7  1  0
  6 38  1  1
  7  8  2  0
  7 39  1  0
  8  9  1  0
  8 40  1  0
  9 10  1  0
  9 41  1  0
  9 42  1  0
 10 33  1  0
 10 11  1  0
 10 43  1  1
 11 12  1  0
 12 13  1  0
 12 14  1  0
 12 15  1  0
 13 44  1  0
 13 45  1  0
 13 46  1  0
 14 47  1  0
 14 48  1  0
 14 49  1  0
 15 16  1  0
 16 33  1  0
 16 17  1  0
 16 50  1  1
 17 18  1  6
 17 19  1  0
 33 17  1  1
 18 51  1  0
 18 52  1  0
 18 53  1  0
 19 20  1  0
 19 21  1  0
 19 54  1  1
 20 55  1  0
 21 23  1  0
 21 31  1  0
 21 22  1  1
 22 23  1  0
 23 24  1  0
 23 56  1  6
 24 25  1  0
 24 57  1  0
 24 58  1  0
 25 26  1  0
 25 31  1  0
 25 59  1  1
 26 30  2  0
 26 27  1  0
 27 28  2  0
 27 60  1  0
 28 29  1  0
 28 61  1  0
 29 30  1  0
 30 62  1  0
 31 32  1  1
 32 63  1  0
 32 64  1  0
 32 65  1  0
M  END
>  <i_m_ct_stereo_status>  (51) 
1

>  <s_m_source_file>  (51) 
/var/tmp/pbs.5076255.sched01/tmpu3exd1vk/0t_9me_9p.sdf

>  <i_m_source_file_index>  (51) 
22

>  <i_lp_mmshare_version>  (51) 
48012

>  <i_f3d_flags>  (51) 
1

>  <s_epik_input>  (51) 
W2NIXTFvW2NIXVtjSF1jMVtDQEhdKFtDSDJdW0NAQEhdKFtDQEBdMjM0KU8zKVtDQEBdNChbQ0gzXSlbQ0BIXShPQyg9TylbQ0gzXSlbQ0BIXTVbQ0BdNjdbQ0BIXShbQ0gyXVtDSF09W0NIXTUpT0MoW0NIM10pKFtDSDNdKU9bQ0BIXTZDNyhbQ0gzXSlbQ0BIXTJbT0hd

>  <s_epik_cmdline>  (51) 
J2VwaWtfcHl0aG9uJywgJy1waHQnLCAnMi4wJywgJy1waCcsICc3LjAnLCAnLXRuJywgJzgnLCAnLW1hJywgJzIwMCcsICctaW1hZScsICc8aW5maWxlLm1hZT4nLCAnLW9tYWUnLCAnPG91dGZpbGUubWFlPic=

>  <r_lp_tautomer_probability>  (51) 
1

>  <r_epik_Ionization_Penalty>  (51) 
4.2901e-08

>  <r_epik_Ionization_Penalty_Charging>  (51) 
0

>  <r_epik_Ionization_Penalty_Neutral>  (51) 
4.2901e-08

>  <r_epik_State_Penalty>  (51) 
-0

>  <r_epik_Charging_Adjusted_Penalty>  (51) 
0

>  <i_epik_Tot_Q>  (51) 
0

>  <i_epik_Tot_abs_Q>  (51) 
0

>  <s_epik_Chemistry_Notes>  (51) 
This compound has an ester and may undergo hydrolysis at high or low pH.

>  <s_lp_Force_Field>  (51) 
OPLS3e

>  <r_lp_Energy>  (51) 
53.4247

>  <b_lp_Chiralities_Consistent>  (51) 
1

>  <s_lp_Variant>  (51) 
15:0-2

>  <s_i_glide_gridfile>  (51) 
pfpi4k_grid

>  <i_i_glide_lignum>  (51) 
22

>  <i_i_glide_rotatable_bonds>  (51) 
4

>  <r_i_docking_score>  (51) 
-2.55016

>  <r_i_glide_ligand_efficiency>  (51) 
-0.0772775

>  <r_i_glide_ligand_efficiency_sa>  (51) 
-0.24787

>  <r_i_glide_ligand_efficiency_ln>  (51) 
-0.567142

>  <r_i_glide_gscore>  (51) 
-2.55016

>  <r_i_glide_lipo>  (51) 
-0.767014

>  <r_i_glide_hbond>  (51) 
0

>  <r_i_glide_metal>  (51) 
-0

>  <r_i_glide_rewards>  (51) 
-0.368625

>  <r_i_glide_evdw>  (51) 
-24.872

>  <r_i_glide_ecoul>  (51) 
-2.3969

>  <r_i_glide_erotb>  (51) 
0.19286

>  <r_i_glide_esite>  (51) 
-0.00424248

>  <r_i_glide_emodel>  (51) 
-33.4168

>  <r_i_glide_energy>  (51) 
-27.2689

>  <r_i_glide_einternal>  (51) 
0.114653

>  <r_i_glide_intrahb_reward>  (51) 
-0

>  <i_i_glide_confnum>  (51) 
1

>  <i_i_glide_posenum>  (51) 
3

>  <r_i_glide_eff_state_penalty>  (51) 
0

>  <ligand_id>  (51) 
15

>  <original_smiles>  (51) 
CC(=O)OC1C2C=CCC3OC(C)(C)OC4C(C)(C(O)C56OC5CC(c5ccoc5)C16C)C324

>  <smiles>  (51) 
[H]OC1([H])C23OC2([H])C([H])([H])C([H])(c2c([H])oc([H])c2[H])C3(C([H])([H])[H])C([H])(OC(=O)C([H])([H])[H])C2([H])C([H])=C([H])C([H])([H])C3([H])OC(C([H])([H])[H])(C([H])([H])[H])OC4([H])C1(C([H])([H])[H])C342

$$$$
15:1:2
     RDKit          3D

 65 71  0  0  1  0  0  0  0  0999 V2000
    0.6076   -7.0524    0.8850 C   0  0  0  0  0  0  0  0  0  0  0  0
    1.0746   -6.4541    2.1973 C   0  0  0  0  0  0  0  0  0  0  0  0
    0.2833   -6.2415    3.1116 O   0  0  0  0  0  0  0  0  0  0  0  0
    2.3989   -6.1858    2.1852 O   0  0  0  0  0  0  0  0  0  0  0  0
    3.0541   -5.5152    3.2648 C   0  0  2  0  0  0  0  0  0  0  0  0
    3.7666   -4.2129    2.7544 C   0  0  2  0  0  0  0  0  0  0  0  0
    2.7286   -3.1219    2.5901 C   0  0  0  0  0  0  0  0  0  0  0  0
    3.0473   -1.9203    2.1025 C   0  0  0  0  0  0  0  0  0  0  0  0
    4.4484   -1.5968    1.6554 C   0  0  0  0  0  0  0  0  0  0  0  0
    5.2961   -2.8280    1.2356 C   0  0  2  0  0  0  0  0  0  0  0  0
    5.6653   -2.6057   -0.1330 O   0  0  0  0  0  0  0  0  0  0  0  0
    4.9588   -3.2900   -1.1227 C   0  0  0  0  0  0  0  0  0  0  0  0
    3.4843   -2.8235   -1.2047 C   0  0  0  0  0  0  0  0  0  0  0  0
    5.6762   -3.0058   -2.4481 C   0  0  0  0  0  0  0  0  0  0  0  0
    5.0271   -4.6592   -0.9230 O   0  0  0  0  0  0  0  0  0  0  0  0
    4.5237   -5.1278    0.3137 C   0  0  1  0  0  0  0  0  0  0  0  0
    5.6326   -5.5028    1.2745 C   0  0  2  0  0  0  0  0  0  0  0  0
    7.1125   -5.2888    0.8933 C   0  0  0  0  0  0  0  0  0  0  0  0
    5.4328   -6.8325    2.0237 C   0  0  1  0  0  0  0  0  0  0  0  0
    6.3859   -7.8149    1.6827 O   0  0  0  0  0  0  0  0  0  0  0  0
    5.3192   -6.6833    3.5387 C   0  0  1  0  0  0  0  0  0  0  0  0
    6.2320   -7.4641    4.3296 O   0  0  0  0  0  0  0  0  0  0  0  0
    6.3598   -6.0352    4.3867 C   0  0  2  0  0  0  0  0  0  0  0  0
    5.7019   -5.3320    5.5371 C   0  0  0  0  0  0  0  0  0  0  0  0
    4.2598   -5.8928    5.5753 C   0  0  1  0  0  0  0  0  0  0  0  0
    3.2388   -4.9690    6.2179 C   0  0  0  0  0  0  0  0  0  0  0  0
    2.1543   -5.3693    7.0568 C   0  0  0  0  0  0  0  0  0  0  0  0
    1.4926   -4.2311    7.4225 C   0  0  0  0  0  0  0  0  0  0  0  0
    2.0844   -3.1386    6.8802 O   0  0  0  0  0  0  0  0  0  0  0  0
    3.1428   -3.6024    6.1591 C   0  0  0  0  0  0  0  0  0  0  0  0
    3.9333   -6.4773    4.1421 C   0  0  1  0  0  0  0  0  0  0  0  0
    3.2107   -7.8312    4.3691 C   0  0  0  0  0  0  0  0  0  0  0  0
    4.7353   -4.2542    1.5291 C   0  0  2  0  0  0  0  0  0  0  0  0
    0.9513   -6.4399    0.0545 H   0  0  0  0  0  0  0  0  0  0  0  0
   -0.4797   -7.1282    0.8471 H   0  0  0  0  0  0  0  0  0  0  0  0
    1.0202   -8.0559    0.7740 H   0  0  0  0  0  0  0  0  0  0  0  0
    2.2623   -5.1786    3.9299 H   0  0  0  0  0  0  0  0  0  0  0  0
    4.3752   -3.8490    3.5786 H   0  0  0  0  0  0  0  0  0  0  0  0
    1.7191   -3.3344    2.9071 H   0  0  0  0  0  0  0  0  0  0  0  0
    2.3157   -1.1303    2.0174 H   0  0  0  0  0  0  0  0  0  0  0  0
    4.3848   -0.8897    0.8285 H   0  0  0  0  0  0  0  0  0  0  0  0
    4.9502   -1.0621    2.4650 H   0  0  0  0  0  0  0  0  0  0  0  0
    6.2319   -2.7426    1.7927 H   0  0  0  0  0  0  0  0  0  0  0  0
    2.9166   -3.1187   -0.3250 H   0  0  0  0  0  0  0  0  0  0  0  0
    3.0013   -3.2619   -2.0795 H   0  0  0  0  0  0  0  0  0  0  0  0
    3.4393   -1.7380   -1.2936 H   0  0  0  0  0  0  0  0  0  0  0  0
    6.7108   -3.3529   -2.4034 H   0  0  0  0  0  0  0  0  0  0  0  0
    5.6642   -1.9363   -2.6557 H   0  0  0  0  0  0  0  0  0  0  0  0
    5.1723   -3.5267   -3.2630 H   0  0  0  0  0  0  0  0  0  0  0  0
    3.6472   -5.7543    0.1928 H   0  0  0  0  0  0  0  0  0  0  0  0
    7.7477   -5.2778    1.7771 H   0  0  0  0  0  0  0  0  0  0  0  0
    7.2739   -4.3532    0.3687 H   0  0  0  0  0  0  0  0  0  0  0  0
    7.4703   -6.0743    0.2280 H   0  0  0  0  0  0  0  0  0  0  0  0
    4.5087   -7.2828    1.6695 H   0  0  0  0  0  0  0  0  0  0  0  0
    6.1266   -8.6325    2.0848 H   0  0  0  0  0  0  0  0  0  0  0  0
    7.2668   -5.6168    3.9611 H   0  0  0  0  0  0  0  0  0  0  0  0
    6.2455   -5.4851    6.4727 H   0  0  0  0  0  0  0  0  0  0  0  0
    5.7150   -4.2636    5.3249 H   0  0  0  0  0  0  0  0  0  0  0  0
    4.3344   -6.7296    6.2672 H   0  0  0  0  0  0  0  0  0  0  0  0
    1.8888   -6.3684    7.3716 H   0  0  0  0  0  0  0  0  0  0  0  0
    0.6319   -4.0341    8.0415 H   0  0  0  0  0  0  0  0  0  0  0  0
    3.7192   -2.8270    5.6796 H   0  0  0  0  0  0  0  0  0  0  0  0
    3.7747   -8.4932    5.0275 H   0  0  0  0  0  0  0  0  0  0  0  0
    3.0432   -8.3833    3.4434 H   0  0  0  0  0  0  0  0  0  0  0  0
    2.2394   -7.6772    4.8410 H   0  0  0  0  0  0  0  0  0  0  0  0
  1  2  1  0
  1 34  1  0
  1 35  1  0
  1 36  1  0
  2  3  2  0
  2  4  1  0
  4  5  1  0
  5 31  1  0
  5  6  1  0
  5 37  1  1
  6 33  1  0
  6  7  1  0
  6 38  1  1
  7  8  2  0
  7 39  1  0
  8  9  1  0
  8 40  1  0
  9 10  1  0
  9 41  1  0
  9 42  1  0
 10 33  1  0
 10 11  1  0
 10 43  1  1
 11 12  1  0
 12 13  1  0
 12 14  1  0
 12 15  1  0
 13 44  1  0
 13 45  1  0
 13 46  1  0
 14 47  1  0
 14 48  1  0
 14 49  1  0
 15 16  1  0
 16 33  1  0
 16 17  1  0
 16 50  1  6
 17 18  1  6
 17 19  1  0
 33 17  1  1
 18 51  1  0
 18 52  1  0
 18 53  1  0
 19 20  1  0
 19 21  1  0
 19 54  1  6
 20 55  1  0
 21 23  1  0
 21 31  1  0
 21 22  1  1
 22 23  1  0
 23 24  1  0
 23 56  1  6
 24 25  1  0
 24 57  1  0
 24 58  1  0
 25 26  1  0
 25 31  1  0
 25 59  1  1
 26 30  2  0
 26 27  1  0
 27 28  2  0
 27 60  1  0
 28 29  1  0
 28 61  1  0
 29 30  1  0
 30 62  1  0
 31 32  1  1
 32 63  1  0
 32 64  1  0
 32 65  1  0
M  END
>  <i_m_ct_stereo_status>  (52) 
1

>  <s_m_source_file>  (52) 
/var/tmp/pbs.5076255.sched01/tmpu3exd1vk/0t_9me_9p.sdf

>  <i_m_source_file_index>  (52) 
22

>  <i_lp_mmshare_version>  (52) 
48012

>  <i_f3d_flags>  (52) 
1

>  <s_epik_input>  (52) 
W2NIXTFvW2NIXVtjSF1jMVtDQEhdKFtDSDJdW0NAQEhdKFtDQEBdMjM0KU8zKVtDQEBdNChbQ0gzXSlbQ0BIXShPQyg9TylbQ0gzXSlbQ0BIXTVbQ0BdNjdbQ0BIXShbQ0gyXVtDSF09W0NIXTUpT0MoW0NIM10pKFtDSDNdKU9bQ0BIXTZDNyhbQ0gzXSlbQ0BIXTJbT0hd

>  <s_epik_cmdline>  (52) 
J2VwaWtfcHl0aG9uJywgJy1waHQnLCAnMi4wJywgJy1waCcsICc3LjAnLCAnLXRuJywgJzgnLCAnLW1hJywgJzIwMCcsICctaW1hZScsICc8aW5maWxlLm1hZT4nLCAnLW9tYWUnLCAnPG91dGZpbGUubWFlPic=

>  <r_lp_tautomer_probability>  (52) 
1

>  <r_epik_Ionization_Penalty>  (52) 
4.2901e-08

>  <r_epik_Ionization_Penalty_Charging>  (52) 
0

>  <r_epik_Ionization_Penalty_Neutral>  (52) 
4.2901e-08

>  <r_epik_State_Penalty>  (52) 
-0

>  <r_epik_Charging_Adjusted_Penalty>  (52) 
0

>  <i_epik_Tot_Q>  (52) 
0

>  <i_epik_Tot_abs_Q>  (52) 
0

>  <s_epik_Chemistry_Notes>  (52) 
This compound has an ester and may undergo hydrolysis at high or low pH.

>  <s_lp_Force_Field>  (52) 
OPLS3e

>  <r_lp_Energy>  (52) 
53.4247

>  <b_lp_Chiralities_Consistent>  (52) 
1

>  <s_lp_Variant>  (52) 
15:0-2

>  <s_i_glide_gridfile>  (52) 
pfpi4k_grid

>  <i_i_glide_lignum>  (52) 
22

>  <i_i_glide_rotatable_bonds>  (52) 
4

>  <r_i_docking_score>  (52) 
-2.34945

>  <r_i_glide_ligand_efficiency>  (52) 
-0.0711954

>  <r_i_glide_ligand_efficiency_sa>  (52) 
-0.228362

>  <r_i_glide_ligand_efficiency_ln>  (52) 
-0.522505

>  <r_i_glide_gscore>  (52) 
-2.34945

>  <r_i_glide_lipo>  (52) 
-0.527147

>  <r_i_glide_hbond>  (52) 
-0.0820172

>  <r_i_glide_metal>  (52) 
-0

>  <r_i_glide_rewards>  (52) 
-0.367414

>  <r_i_glide_evdw>  (52) 
-27.6887

>  <r_i_glide_ecoul>  (52) 
-0.845032

>  <r_i_glide_erotb>  (52) 
0.19286

>  <r_i_glide_esite>  (52) 
-0.0545409

>  <r_i_glide_emodel>  (52) 
-33.9662

>  <r_i_glide_energy>  (52) 
-28.5337

>  <r_i_glide_einternal>  (52) 
0.584337

>  <r_i_glide_intrahb_reward>  (52) 
-0

>  <i_i_glide_confnum>  (52) 
3

>  <i_i_glide_posenum>  (52) 
10

>  <r_i_glide_eff_state_penalty>  (52) 
0

>  <ligand_id>  (52) 
15

>  <original_smiles>  (52) 
CC(=O)OC1C2C=CCC3OC(C)(C)OC4C(C)(C(O)C56OC5CC(c5ccoc5)C16C)C324

>  <smiles>  (52) 
[H]OC1([H])C23OC2([H])C([H])([H])C([H])(c2c([H])oc([H])c2[H])C3(C([H])([H])[H])C([H])(OC(=O)C([H])([H])[H])C2([H])C([H])=C([H])C([H])([H])C3([H])OC(C([H])([H])[H])(C([H])([H])[H])OC4([H])C1(C([H])([H])[H])C342

$$$$
16:0:0
     RDKit          3D

 76 83  0  0  1  0  0  0  0  0999 V2000
    5.8710   -0.5709    6.7310 C   0  0  0  0  0  0  0  0  0  0  0  0
    4.4812   -0.5446    7.3790 C   0  0  0  0  0  0  0  0  0  0  0  0
    4.3286    0.5289    8.3006 O   0  0  0  0  0  0  0  0  0  0  0  0
    4.1373    1.8639    7.8162 C   0  0  2  0  0  0  0  0  0  0  0  0
    4.7944    2.0537    6.5421 O   0  0  0  0  0  0  0  0  0  0  0  0
    5.8937    2.6429    7.1153 C   0  0  0  0  0  0  0  0  0  0  0  0
    6.9273    3.0277    6.5966 O   0  0  0  0  0  0  0  0  0  0  0  0
    5.3226    2.6015    8.5185 C   0  0  2  0  0  0  0  0  0  0  0  0
    6.2179    1.8427    9.3139 O   0  0  0  0  0  0  0  0  0  0  0  0
    5.1926    3.9399    9.2074 C   0  0  0  0  0  0  0  0  0  0  0  0
    4.2562    3.8375   10.4002 C   0  0  0  0  0  0  0  0  0  0  0  0
    2.7324    3.6736   10.1162 C   0  0  2  0  0  0  0  0  0  0  0  0
    2.3077    2.3421    9.5024 C   0  0  0  0  0  0  0  0  0  0  0  0
    2.5691    2.3126    7.9328 C   0  0  2  0  0  0  0  0  0  0  0  0
    1.7899    1.0497    7.4832 C   0  0  0  0  0  0  0  0  0  0  0  0
    2.0243    3.7062    7.0821 C   0  0  1  0  0  0  0  0  0  0  0  0
    2.2300    5.0268    7.9897 C   0  0  1  0  0  0  0  0  0  0  0  0
    1.2210    5.9825    7.7245 O   0  0  0  0  0  0  0  0  0  0  0  0
    0.0590    5.3104    7.3191 C   0  0  1  0  0  0  0  0  0  0  0  0
   -1.1323    5.5180    8.0333 O   0  0  0  0  0  0  0  0  0  0  0  0
   -0.0306    5.0361    5.8684 C   0  0  1  0  0  0  0  0  0  0  0  0
   -1.1087    4.3005    5.3156 O   0  0  0  0  0  0  0  0  0  0  0  0
   -0.9695    3.6782    4.0893 C   0  0  1  0  0  0  0  0  0  0  0  0
   -1.3837    4.5296    3.0384 O   0  0  0  0  0  0  0  0  0  0  0  0
    0.4232    2.9685    3.8289 C   0  0  1  0  0  0  0  0  0  0  0  0
    0.4026    1.5807    4.4922 C   0  0  0  0  0  0  0  0  0  0  0  0
    0.3961    2.5437    2.4719 O   0  0  0  0  0  0  0  0  0  0  0  0
    1.7799    3.8284    4.1342 C   0  0  1  0  0  0  0  0  0  0  0  0
    2.8214    3.3946    3.0458 C   0  0  0  0  0  0  0  0  0  0  0  0
    1.4785    5.2970    3.7863 C   0  0  0  0  0  0  0  0  0  0  0  0
    0.7556    5.9877    4.9315 C   0  0  1  0  0  0  0  0  0  0  0  0
   -0.0639    7.0515    4.4791 O   0  0  0  0  0  0  0  0  0  0  0  0
    2.6063    3.7045    5.5559 C   0  0  1  0  0  0  0  0  0  0  0  0
    3.8679    4.6174    5.5237 C   0  0  0  0  0  0  0  0  0  0  0  0
    0.5049    3.9582    6.8687 C   0  0  1  0  0  0  0  0  0  0  0  0
   -0.4218    3.0486    7.4374 O   0  0  0  0  0  0  0  0  0  0  0  0
    1.8619    4.6515    9.4066 C   0  0  2  0  0  0  0  0  0  0  0  0
    1.9078    5.3994   10.7165 C   0  0  0  0  0  0  0  0  0  0  0  0
    1.6931    6.5292   11.1469 O   0  0  0  0  0  0  0  0  0  0  0  0
    2.1619    4.2107   11.3655 O   0  0  0  0  0  0  0  0  0  0  0  0
    6.0030   -1.4885    6.1337 H   0  0  0  0  0  0  0  0  0  0  0  0
    6.6384   -0.5856    7.5116 H   0  0  0  0  0  0  0  0  0  0  0  0
    6.0024    0.3105    6.0982 H   0  0  0  0  0  0  0  0  0  0  0  0
    3.7194   -0.5541    6.6095 H   0  0  0  0  0  0  0  0  0  0  0  0
    4.3290   -1.4483    7.9574 H   0  0  0  0  0  0  0  0  0  0  0  0
    6.3553    1.0394    8.8307 H   0  0  0  0  0  0  0  0  0  0  0  0
    6.1740    4.2541    9.5636 H   0  0  0  0  0  0  0  0  0  0  0  0
    4.9187    4.7220    8.5263 H   0  0  0  0  0  0  0  0  0  0  0  0
    4.5668    3.0156   11.0415 H   0  0  0  0  0  0  0  0  0  0  0  0
    4.4442    4.7227   11.0052 H   0  0  0  0  0  0  0  0  0  0  0  0
    2.7987    1.5307   10.0324 H   0  0  0  0  0  0  0  0  0  0  0  0
    1.2440    2.1805    9.6962 H   0  0  0  0  0  0  0  0  0  0  0  0
    0.7146    1.0893    7.5793 H   0  0  0  0  0  0  0  0  0  0  0  0
    2.0335    0.1833    8.0971 H   0  0  0  0  0  0  0  0  0  0  0  0
    2.0374    0.7936    6.4577 H   0  0  0  0  0  0  0  0  0  0  0  0
    3.1800    5.5353    7.9403 H   0  0  0  0  0  0  0  0  0  0  0  0
   -1.0231    5.2569    8.9364 H   0  0  0  0  0  0  0  0  0  0  0  0
   -1.7535    2.9177    4.1372 H   0  0  0  0  0  0  0  0  0  0  0  0
   -0.7809    4.4487    2.2958 H   0  0  0  0  0  0  0  0  0  0  0  0
    0.2070    1.6381    5.5505 H   0  0  0  0  0  0  0  0  0  0  0  0
    1.3395    1.0419    4.3251 H   0  0  0  0  0  0  0  0  0  0  0  0
   -0.3973    0.9570    4.0924 H   0  0  0  0  0  0  0  0  0  0  0  0
    0.3082    3.2559    1.8392 H   0  0  0  0  0  0  0  0  0  0  0  0
    3.7171    4.0039    3.0273 H   0  0  0  0  0  0  0  0  0  0  0  0
    2.4538    3.5311    2.0331 H   0  0  0  0  0  0  0  0  0  0  0  0
    3.1192    2.3526    3.1559 H   0  0  0  0  0  0  0  0  0  0  0  0
    2.3876    5.8502    3.5570 H   0  0  0  0  0  0  0  0  0  0  0  0
    0.9128    5.3581    2.8574 H   0  0  0  0  0  0  0  0  0  0  0  0
    1.5409    6.4757    5.4970 H   0  0  0  0  0  0  0  0  0  0  0  0
    0.3305    7.4916    3.7258 H   0  0  0  0  0  0  0  0  0  0  0  0
    2.9197    2.6772    5.4268 H   0  0  0  0  0  0  0  0  0  0  0  0
    3.6565    5.6627    5.3087 H   0  0  0  0  0  0  0  0  0  0  0  0
    4.6244    4.2631    4.8345 H   0  0  0  0  0  0  0  0  0  0  0  0
    4.3806    4.6498    6.4672 H   0  0  0  0  0  0  0  0  0  0  0  0
   -0.3206    3.0515    8.3766 H   0  0  0  0  0  0  0  0  0  0  0  0
    0.8461    4.2507    9.4177 H   0  0  0  0  0  0  0  0  0  0  0  0
  1  2  1  0
  1 41  1  0
  1 42  1  0
  1 43  1  0
  2  3  1  0
  2 44  1  0
  2 45  1  0
  4  3  1  1
  4  8  1  0
  4 14  1  0
  4  5  1  0
  5  6  1  0
  6  7  2  0
  6  8  1  0
  8  9  1  1
  8 10  1  0
  9 46  1  0
 10 11  1  0
 10 47  1  0
 10 48  1  0
 11 12  1  0
 11 49  1  0
 11 50  1  0
 12 37  1  0
 12 40  1  1
 12 13  1  0
 13 14  1  0
 13 51  1  0
 13 52  1  0
 14 15  1  6
 16 14  1  1
 15 53  1  0
 15 54  1  0
 15 55  1  0
 16 33  1  0
 16 35  1  0
 16 17  1  0
 17 18  1  0
 17 37  1  0
 17 56  1  1
 18 19  1  0
 19 35  1  0
 19 20  1  1
 19 21  1  0
 20 57  1  0
 21 31  1  0
 21 22  1  6
 21 35  1  0
 22 23  1  0
 23 24  1  0
 23 25  1  0
 23 58  1  1
 24 59  1  0
 25 26  1  0
 25 27  1  6
 25 28  1  0
 26 60  1  0
 26 61  1  0
 26 62  1  0
 27 63  1  0
 28 29  1  6
 28 30  1  0
 28 33  1  0
 29 64  1  0
 29 65  1  0
 29 66  1  0
 30 31  1  0
 30 67  1  0
 30 68  1  0
 31 32  1  0
 31 69  1  1
 32 70  1  0
 33 34  1  0
 33 71  1  6
 34 72  1  0
 34 73  1  0
 34 74  1  0
 35 36  1  1
 36 75  1  0
 37 38  1  0
 37 76  1  6
 38 39  2  0
 38 40  1  0
M  END
>  <i_m_ct_stereo_status>  (53) 
1

>  <s_m_source_file>  (53) 
/var/tmp/pbs.5076255.sched01/tmpu3exd1vk/0t_9me_9p.sdf

>  <i_m_source_file_index>  (53) 
23

>  <i_lp_mmshare_version>  (53) 
48012

>  <i_f3d_flags>  (53) 
0

>  <s_epik_input>  (53) 
W0NIM11bQ0gyXU9bQ0BdMShbQ0BdKEMoTzEpPU8pKFtPSF0pW0NIMl1bQ0gyXTIpW0NAXShbQ0gyXTMpKFtDSDNdKVtDQF00KFtDQEBIXTVbQ0BASF0oW0NAXTIzNilDKD1PKU82KVtDQF03KFtPSF0pW0NAXTgoW0NAQF03KE81KVtPSF0pT1tDQEBIXShbT0hdKVtDQEBdKFtDSDNdKShbT0hdKVtDQF0oW0NIM10pKFtDQEhdNFtDSDNdKVtDSDJdW0NASF04W09IXQ==

>  <s_epik_cmdline>  (53) 
J2VwaWtfcHl0aG9uJywgJy1waHQnLCAnMi4wJywgJy1waCcsICc3LjAnLCAnLXRuJywgJzgnLCAnLW1hJywgJzIwMCcsICctaW1hZScsICc8aW5maWxlLm1hZT4nLCAnLW9tYWUnLCAnPG91dGZpbGUubWFlPic=

>  <r_lp_tautomer_probability>  (53) 
1

>  <r_epik_Ionization_Penalty>  (53) 
7.94595e-05

>  <r_epik_Ionization_Penalty_Charging>  (53) 
0

>  <r_epik_Ionization_Penalty_Neutral>  (53) 
7.94595e-05

>  <r_epik_State_Penalty>  (53) 
-0

>  <r_epik_Charging_Adjusted_Penalty>  (53) 
0

>  <i_epik_Tot_Q>  (53) 
0

>  <i_epik_Tot_abs_Q>  (53) 
0

>  <s_epik_Chemistry_Notes>  (53) 
This compound has an ester and may undergo hydrolysis at high or low pH. This compound contains an acetal/aminal-like group ( X-CH(R)-Y where X, Y are N, S, or O) that may be acid/base labile, releasing an aldehyde.

>  <s_lp_Force_Field>  (53) 
OPLS3e

>  <r_lp_Energy>  (53) 
191.965

>  <b_lp_Chiralities_Consistent>  (53) 
1

>  <s_lp_Variant>  (53) 
16:0-1

>  <s_i_glide_gridfile>  (53) 
pfpi4k_grid

>  <i_i_glide_lignum>  (53) 
23

>  <i_i_glide_rotatable_bonds>  (53) 
8

>  <r_i_docking_score>  (53) 
-3.37314

>  <r_i_glide_ligand_efficiency>  (53) 
-0.0843285

>  <r_i_glide_ligand_efficiency_sa>  (53) 
-0.288399

>  <r_i_glide_ligand_efficiency_ln>  (53) 
-0.719391

>  <r_i_glide_gscore>  (53) 
-3.37314

>  <r_i_glide_lipo>  (53) 
-0.0286669

>  <r_i_glide_hbond>  (53) 
0

>  <r_i_glide_metal>  (53) 
-0

>  <r_i_glide_rewards>  (53) 
-0.0117455

>  <r_i_glide_evdw>  (53) 
-9.1511

>  <r_i_glide_ecoul>  (53) 
-19.1921

>  <r_i_glide_erotb>  (53) 
0.0644525

>  <r_i_glide_esite>  (53) 
-0.0608099

>  <r_i_glide_emodel>  (53) 
-32.29

>  <r_i_glide_energy>  (53) 
-28.3432

>  <r_i_glide_einternal>  (53) 
6.05104

>  <r_i_glide_intrahb_reward>  (53) 
-0

>  <i_i_glide_confnum>  (53) 
1

>  <i_i_glide_posenum>  (53) 
37

>  <r_i_glide_eff_state_penalty>  (53) 
0

>  <ligand_id>  (53) 
16

>  <original_smiles>  (53) 
CCOC12OC(=O)C1(O)CCC13CC2(C)C24C(OC5(O)C6(OC(O)C(C)(O)C(C)(CC6O)C2C)C54O)C1C(=O)O3

>  <smiles>  (53) 
[H]OC1([H])OC23C([H])(O[H])C([H])([H])C(C([H])([H])[H])(C([H])(C([H])([H])[H])C45C([H])(OC2(O[H])C34O[H])C2([H])C(=O)OC23C([H])([H])C([H])([H])C2(O[H])C(=O)OC2(OC([H])([H])C([H])([H])[H])C5(C([H])([H])[H])C3([H])[H])C1(O[H])C([H])([H])[H]

$$$$
16:0:1
     RDKit          3D

 76 83  0  0  1  0  0  0  0  0999 V2000
    4.9883   -1.5587    7.6979 C   0  0  0  0  0  0  0  0  0  0  0  0
    4.1152   -0.6632    8.5822 C   0  0  0  0  0  0  0  0  0  0  0  0
    4.5131    0.7016    8.5333 O   0  0  0  0  0  0  0  0  0  0  0  0
    4.1808    1.4961    7.3886 C   0  0  2  0  0  0  0  0  0  0  0  0
    4.0963    0.6829    6.1952 O   0  0  0  0  0  0  0  0  0  0  0  0
    5.3601    1.0198    5.7952 C   0  0  0  0  0  0  0  0  0  0  0  0
    6.0013    0.6138    4.8276 O   0  0  0  0  0  0  0  0  0  0  0  0
    5.5982    1.9779    6.9337 C   0  0  2  0  0  0  0  0  0  0  0  0
    6.7299    1.5020    7.6504 O   0  0  0  0  0  0  0  0  0  0  0  0
    5.9251    3.4044    6.5519 C   0  0  0  0  0  0  0  0  0  0  0  0
    5.7448    4.3342    7.7362 C   0  0  0  0  0  0  0  0  0  0  0  0
    4.2893    4.6416    8.2007 C   0  0  2  0  0  0  0  0  0  0  0  0
    3.5255    3.4722    8.8284 C   0  0  0  0  0  0  0  0  0  0  0  0
    2.9330    2.4976    7.7230 C   0  0  2  0  0  0  0  0  0  0  0  0
    1.9631    1.6113    8.5400 C   0  0  0  0  0  0  0  0  0  0  0  0
    2.1063    3.2847    6.4274 C   0  0  1  0  0  0  0  0  0  0  0  0
    2.8350    4.6893    6.0774 C   0  0  1  0  0  0  0  0  0  0  0  0
    1.8896    5.6456    5.6326 O   0  0  0  0  0  0  0  0  0  0  0  0
    0.6485    5.3660    6.2265 C   0  0  1  0  0  0  0  0  0  0  0  0
   -0.0078    6.3640    6.9484 O   0  0  0  0  0  0  0  0  0  0  0  0
   -0.2010    4.3984    5.4918 C   0  0  1  0  0  0  0  0  0  0  0  0
   -1.4374    3.9698    6.0028 O   0  0  0  0  0  0  0  0  0  0  0  0
   -1.9866    2.7933    5.5466 C   0  0  1  0  0  0  0  0  0  0  0  0
   -2.8257    3.0107    4.4319 O   0  0  0  0  0  0  0  0  0  0  0  0
   -0.9780    1.5756    5.3621 C   0  0  1  0  0  0  0  0  0  0  0  0
   -0.7414    0.9097    6.7183 C   0  0  0  0  0  0  0  0  0  0  0  0
   -1.7410    0.5272    4.7673 O   0  0  0  0  0  0  0  0  0  0  0  0
    0.3780    1.8536    4.4962 C   0  0  1  0  0  0  0  0  0  0  0  0
    0.6765    0.5371    3.6905 C   0  0  0  0  0  0  0  0  0  0  0  0
    0.0255    2.8874    3.4037 C   0  0  0  0  0  0  0  0  0  0  0  0
    0.0328    4.2993    3.9731 C   0  0  1  0  0  0  0  0  0  0  0  0
   -0.8638    5.1292    3.2891 O   0  0  0  0  0  0  0  0  0  0  0  0
    1.8164    2.2258    5.2135 C   0  0  1  0  0  0  0  0  0  0  0  0
    2.9302    2.4020    4.1372 C   0  0  0  0  0  0  0  0  0  0  0  0
    0.7220    3.9432    6.6702 C   0  0  1  0  0  0  0  0  0  0  0  0
    0.1711    3.9208    7.9684 O   0  0  0  0  0  0  0  0  0  0  0  0
    3.2346    5.3179    7.3916 C   0  0  2  0  0  0  0  0  0  0  0  0
    3.9961    6.5794    7.7492 C   0  0  0  0  0  0  0  0  0  0  0  0
    4.1137    7.7319    7.3626 O   0  0  0  0  0  0  0  0  0  0  0  0
    4.4807    5.9411    8.8701 O   0  0  0  0  0  0  0  0  0  0  0  0
    4.7487   -2.6248    7.8607 H   0  0  0  0  0  0  0  0  0  0  0  0
    6.0437   -1.4361    7.9654 H   0  0  0  0  0  0  0  0  0  0  0  0
    4.8446   -1.2989    6.6444 H   0  0  0  0  0  0  0  0  0  0  0  0
    3.0749   -0.8044    8.3294 H   0  0  0  0  0  0  0  0  0  0  0  0
    4.2205   -0.9610    9.6176 H   0  0  0  0  0  0  0  0  0  0  0  0
    6.5581    0.5819    7.7946 H   0  0  0  0  0  0  0  0  0  0  0  0
    6.9627    3.4510    6.2304 H   0  0  0  0  0  0  0  0  0  0  0  0
    5.3820    3.7222    5.6860 H   0  0  0  0  0  0  0  0  0  0  0  0
    6.2912    3.9513    8.5971 H   0  0  0  0  0  0  0  0  0  0  0  0
    6.2650    5.2499    7.4800 H   0  0  0  0  0  0  0  0  0  0  0  0
    4.1706    2.9732    9.5417 H   0  0  0  0  0  0  0  0  0  0  0  0
    2.7097    3.8688    9.4416 H   0  0  0  0  0  0  0  0  0  0  0  0
    1.0956    2.1053    8.9611 H   0  0  0  0  0  0  0  0  0  0  0  0
    2.4339    1.2045    9.4339 H   0  0  0  0  0  0  0  0  0  0  0  0
    1.6242    0.7618    7.9507 H   0  0  0  0  0  0  0  0  0  0  0  0
    3.6465    4.6746    5.3682 H   0  0  0  0  0  0  0  0  0  0  0  0
    0.5404    6.6369    7.6719 H   0  0  0  0  0  0  0  0  0  0  0  0
   -2.6840    2.5523    6.3513 H   0  0  0  0  0  0  0  0  0  0  0  0
   -2.3114    3.0398    3.6469 H   0  0  0  0  0  0  0  0  0  0  0  0
   -0.3550    1.6075    7.4414 H   0  0  0  0  0  0  0  0  0  0  0  0
   -0.0664    0.0583    6.6336 H   0  0  0  0  0  0  0  0  0  0  0  0
   -1.6755    0.5492    7.1458 H   0  0  0  0  0  0  0  0  0  0  0  0
   -2.1090    0.8675    3.9625 H   0  0  0  0  0  0  0  0  0  0  0  0
    1.4740    0.6339    2.9612 H   0  0  0  0  0  0  0  0  0  0  0  0
   -0.1488    0.2226    3.0623 H   0  0  0  0  0  0  0  0  0  0  0  0
    0.9256   -0.2872    4.3560 H   0  0  0  0  0  0  0  0  0  0  0  0
    0.7184    2.8422    2.5663 H   0  0  0  0  0  0  0  0  0  0  0  0
   -0.9227    2.6384    2.9343 H   0  0  0  0  0  0  0  0  0  0  0  0
    1.0124    4.6991    3.7249 H   0  0  0  0  0  0  0  0  0  0  0  0
   -0.6016    5.0902    2.3655 H   0  0  0  0  0  0  0  0  0  0  0  0
    1.9566    1.2712    5.7065 H   0  0  0  0  0  0  0  0  0  0  0  0
    2.6967    3.1458    3.3841 H   0  0  0  0  0  0  0  0  0  0  0  0
    3.1993    1.4748    3.6448 H   0  0  0  0  0  0  0  0  0  0  0  0
    3.8555    2.7459    4.5601 H   0  0  0  0  0  0  0  0  0  0  0  0
    0.7638    4.3447    8.5619 H   0  0  0  0  0  0  0  0  0  0  0  0
    2.3484    5.4140    8.0216 H   0  0  0  0  0  0  0  0  0  0  0  0
  1  2  1  0
  1 41  1  0
  1 42  1  0
  1 43  1  0
  2  3  1  0
  2 44  1  0
  2 45  1  0
  4  3  1  1
  4  8  1  0
  4 14  1  0
  4  5  1  0
  5  6  1  0
  6  7  2  0
  6  8  1  0
  8  9  1  1
  8 10  1  0
  9 46  1  0
 10 11  1  0
 10 47  1  0
 10 48  1  0
 11 12  1  0
 11 49  1  0
 11 50  1  0
 12 37  1  0
 12 40  1  1
 12 13  1  0
 13 14  1  0
 13 51  1  0
 13 52  1  0
 14 15  1  1
 16 14  1  1
 15 53  1  0
 15 54  1  0
 15 55  1  0
 16 33  1  0
 16 35  1  0
 16 17  1  0
 17 18  1  0
 17 37  1  0
 17 56  1  6
 18 19  1  0
 19 35  1  0
 19 20  1  1
 19 21  1  0
 20 57  1  0
 21 31  1  0
 21 22  1  6
 21 35  1  0
 22 23  1  0
 23 24  1  0
 23 25  1  0
 23 58  1  1
 24 59  1  0
 25 26  1  0
 25 27  1  6
 25 28  1  0
 26 60  1  0
 26 61  1  0
 26 62  1  0
 27 63  1  0
 28 29  1  6
 28 30  1  0
 28 33  1  0
 29 64  1  0
 29 65  1  0
 29 66  1  0
 30 31  1  0
 30 67  1  0
 30 68  1  0
 31 32  1  0
 31 69  1  1
 32 70  1  0
 33 34  1  0
 33 71  1  1
 34 72  1  0
 34 73  1  0
 34 74  1  0
 35 36  1  1
 36 75  1  0
 37 38  1  0
 37 76  1  1
 38 39  2  0
 38 40  1  0
M  END
>  <i_m_ct_stereo_status>  (54) 
1

>  <s_m_source_file>  (54) 
/var/tmp/pbs.5076255.sched01/tmpu3exd1vk/0t_9me_9p.sdf

>  <i_m_source_file_index>  (54) 
23

>  <i_lp_mmshare_version>  (54) 
48012

>  <i_f3d_flags>  (54) 
0

>  <s_epik_input>  (54) 
W0NIM11bQ0gyXU9bQ0BdMShbQ0BdKEMoTzEpPU8pKFtPSF0pW0NIMl1bQ0gyXTIpW0NAXShbQ0gyXTMpKFtDSDNdKVtDQF00KFtDQEBIXTVbQ0BASF0oW0NAXTIzNilDKD1PKU82KVtDQF03KFtPSF0pW0NAXTgoW0NAQF03KE81KVtPSF0pT1tDQEBIXShbT0hdKVtDQEBdKFtDSDNdKShbT0hdKVtDQF0oW0NIM10pKFtDQEhdNFtDSDNdKVtDSDJdW0NASF04W09IXQ==

>  <s_epik_cmdline>  (54) 
J2VwaWtfcHl0aG9uJywgJy1waHQnLCAnMi4wJywgJy1waCcsICc3LjAnLCAnLXRuJywgJzgnLCAnLW1hJywgJzIwMCcsICctaW1hZScsICc8aW5maWxlLm1hZT4nLCAnLW9tYWUnLCAnPG91dGZpbGUubWFlPic=

>  <r_lp_tautomer_probability>  (54) 
1

>  <r_epik_Ionization_Penalty>  (54) 
7.94595e-05

>  <r_epik_Ionization_Penalty_Charging>  (54) 
0

>  <r_epik_Ionization_Penalty_Neutral>  (54) 
7.94595e-05

>  <r_epik_State_Penalty>  (54) 
-0

>  <r_epik_Charging_Adjusted_Penalty>  (54) 
0

>  <i_epik_Tot_Q>  (54) 
0

>  <i_epik_Tot_abs_Q>  (54) 
0

>  <s_epik_Chemistry_Notes>  (54) 
This compound has an ester and may undergo hydrolysis at high or low pH. This compound contains an acetal/aminal-like group ( X-CH(R)-Y where X, Y are N, S, or O) that may be acid/base labile, releasing an aldehyde.

>  <s_lp_Force_Field>  (54) 
OPLS3e

>  <r_lp_Energy>  (54) 
191.965

>  <b_lp_Chiralities_Consistent>  (54) 
1

>  <s_lp_Variant>  (54) 
16:0-1

>  <s_i_glide_gridfile>  (54) 
pfpi4k_grid

>  <i_i_glide_lignum>  (54) 
23

>  <i_i_glide_rotatable_bonds>  (54) 
8

>  <r_i_docking_score>  (54) 
-2.47071

>  <r_i_glide_ligand_efficiency>  (54) 
-0.0617677

>  <r_i_glide_ligand_efficiency_sa>  (54) 
-0.211243

>  <r_i_glide_ligand_efficiency_ln>  (54) 
-0.52693

>  <r_i_glide_gscore>  (54) 
-2.47071

>  <r_i_glide_lipo>  (54) 
-0.041403

>  <r_i_glide_hbond>  (54) 
0

>  <r_i_glide_metal>  (54) 
-0

>  <r_i_glide_rewards>  (54) 
-0.103369

>  <r_i_glide_evdw>  (54) 
-19.2637

>  <r_i_glide_ecoul>  (54) 
-9.47897

>  <r_i_glide_erotb>  (54) 
0.0644525

>  <r_i_glide_esite>  (54) 
-0.00535897

>  <r_i_glide_emodel>  (54) 
-31.0042

>  <r_i_glide_energy>  (54) 
-28.7427

>  <r_i_glide_einternal>  (54) 
3.66986

>  <r_i_glide_intrahb_reward>  (54) 
-0

>  <i_i_glide_confnum>  (54) 
3

>  <i_i_glide_posenum>  (54) 
8

>  <r_i_glide_eff_state_penalty>  (54) 
0

>  <ligand_id>  (54) 
16

>  <original_smiles>  (54) 
CCOC12OC(=O)C1(O)CCC13CC2(C)C24C(OC5(O)C6(OC(O)C(C)(O)C(C)(CC6O)C2C)C54O)C1C(=O)O3

>  <smiles>  (54) 
[H]OC1([H])OC23C([H])(O[H])C([H])([H])C(C([H])([H])[H])(C([H])(C([H])([H])[H])C45C([H])(OC2(O[H])C34O[H])C2([H])C(=O)OC23C([H])([H])C([H])([H])C2(O[H])C(=O)OC2(OC([H])([H])C([H])([H])[H])C5(C([H])([H])[H])C3([H])[H])C1(O[H])C([H])([H])[H]

$$$$
16:0:2
     RDKit          3D

 76 83  0  0  1  0  0  0  0  0999 V2000
   -1.0325   -3.1723    6.5583 C   0  0  0  0  0  0  0  0  0  0  0  0
    0.2191   -4.0128    6.8760 C   0  0  0  0  0  0  0  0  0  0  0  0
    1.4221   -3.2507    6.9886 O   0  0  0  0  0  0  0  0  0  0  0  0
    1.9388   -2.4972    5.8739 C   0  0  2  0  0  0  0  0  0  0  0  0
    1.1350   -2.6823    4.6708 O   0  0  0  0  0  0  0  0  0  0  0  0
    2.0053   -3.5983    4.1420 C   0  0  0  0  0  0  0  0  0  0  0  0
    1.9034   -4.2732    3.1361 O   0  0  0  0  0  0  0  0  0  0  0  0
    3.0128   -3.4387    5.2910 C   0  0  2  0  0  0  0  0  0  0  0  0
    3.2077   -4.7243    5.8589 O   0  0  0  0  0  0  0  0  0  0  0  0
    4.3777   -2.9542    4.8607 C   0  0  0  0  0  0  0  0  0  0  0  0
    5.1490   -2.4400    6.0780 C   0  0  0  0  0  0  0  0  0  0  0  0
    4.7120   -1.0836    6.7129 C   0  0  2  0  0  0  0  0  0  0  0  0
    3.3681   -1.0981    7.4151 C   0  0  0  0  0  0  0  0  0  0  0  0
    2.1727   -0.9667    6.3759 C   0  0  2  0  0  0  0  0  0  0  0  0
    0.9540   -0.6639    7.2914 C   0  0  0  0  0  0  0  0  0  0  0  0
    2.3440    0.2715    5.2146 C   0  0  1  0  0  0  0  0  0  0  0  0
    3.8959    0.4094    4.7863 C   0  0  1  0  0  0  0  0  0  0  0  0
    4.2220    1.7464    4.4748 O   0  0  0  0  0  0  0  0  0  0  0  0
    3.3881    2.6076    5.2021 C   0  0  1  0  0  0  0  0  0  0  0  0
    3.9702    3.6037    6.0336 O   0  0  0  0  0  0  0  0  0  0  0  0
    2.0952    2.9224    4.5619 C   0  0  1  0  0  0  0  0  0  0  0  0
    1.1276    3.7246    5.2102 O   0  0  0  0  0  0  0  0  0  0  0  0
   -0.2014    3.6383    4.8244 C   0  0  1  0  0  0  0  0  0  0  0  0
   -0.5380    4.6016    3.8359 O   0  0  0  0  0  0  0  0  0  0  0  0
   -0.7428    2.1765    4.5055 C   0  0  1  0  0  0  0  0  0  0  0  0
   -1.1325    1.4906    5.8166 C   0  0  0  0  0  0  0  0  0  0  0  0
   -2.0520    2.3819    3.9792 O   0  0  0  0  0  0  0  0  0  0  0  0
    0.1540    1.2580    3.5005 C   0  0  1  0  0  0  0  0  0  0  0  0
   -0.8783    0.4515    2.6587 C   0  0  0  0  0  0  0  0  0  0  0  0
    0.8010    2.1742    2.4705 C   0  0  0  0  0  0  0  0  0  0  0  0
    2.0426    2.8420    3.0302 C   0  0  1  0  0  0  0  0  0  0  0  0
    2.2097    4.1236    2.4716 O   0  0  0  0  0  0  0  0  0  0  0  0
    1.2230    0.1265    4.0394 C   0  0  1  0  0  0  0  0  0  0  0  0
    1.8712   -0.6253    2.8331 C   0  0  0  0  0  0  0  0  0  0  0  0
    2.2045    1.7594    5.6124 C   0  0  1  0  0  0  0  0  0  0  0  0
    1.9974    2.0925    6.9808 O   0  0  0  0  0  0  0  0  0  0  0  0
    4.7151    0.2368    6.0465 C   0  0  2  0  0  0  0  0  0  0  0  0
    6.2056    0.1861    6.3116 C   0  0  0  0  0  0  0  0  0  0  0  0
    7.2315    0.7252    5.9098 O   0  0  0  0  0  0  0  0  0  0  0  0
    5.9633   -0.6708    7.3660 O   0  0  0  0  0  0  0  0  0  0  0  0
   -1.9351   -3.7865    6.5470 H   0  0  0  0  0  0  0  0  0  0  0  0
   -0.9791   -2.6412    5.6080 H   0  0  0  0  0  0  0  0  0  0  0  0
   -1.1487   -2.4251    7.3289 H   0  0  0  0  0  0  0  0  0  0  0  0
    0.0753   -4.4619    7.8602 H   0  0  0  0  0  0  0  0  0  0  0  0
    0.3361   -4.8451    6.1867 H   0  0  0  0  0  0  0  0  0  0  0  0
    2.3476   -5.1027    5.9537 H   0  0  0  0  0  0  0  0  0  0  0  0
    4.9387   -3.7759    4.4131 H   0  0  0  0  0  0  0  0  0  0  0  0
    4.3223   -2.2273    4.0685 H   0  0  0  0  0  0  0  0  0  0  0  0
    5.1375   -3.2010    6.8585 H   0  0  0  0  0  0  0  0  0  0  0  0
    6.1912   -2.4032    5.7646 H   0  0  0  0  0  0  0  0  0  0  0  0
    3.2837   -1.9822    8.0481 H   0  0  0  0  0  0  0  0  0  0  0  0
    3.3113   -0.2658    8.1196 H   0  0  0  0  0  0  0  0  0  0  0  0
    0.9969    0.2637    7.8445 H   0  0  0  0  0  0  0  0  0  0  0  0
    0.8469   -1.3806    8.1075 H   0  0  0  0  0  0  0  0  0  0  0  0
    0.0393   -0.6939    6.7190 H   0  0  0  0  0  0  0  0  0  0  0  0
    4.2616   -0.2167    3.9789 H   0  0  0  0  0  0  0  0  0  0  0  0
    4.4430    3.1731    6.7258 H   0  0  0  0  0  0  0  0  0  0  0  0
   -0.7066    4.0095    5.7093 H   0  0  0  0  0  0  0  0  0  0  0  0
   -0.1797    4.3307    2.9993 H   0  0  0  0  0  0  0  0  0  0  0  0
   -0.2994    1.4421    6.4961 H   0  0  0  0  0  0  0  0  0  0  0  0
   -1.5228    0.4861    5.6413 H   0  0  0  0  0  0  0  0  0  0  0  0
   -1.9002    2.0519    6.3488 H   0  0  0  0  0  0  0  0  0  0  0  0
   -2.3664    1.5573    3.6358 H   0  0  0  0  0  0  0  0  0  0  0  0
   -0.4100   -0.0914    1.8449 H   0  0  0  0  0  0  0  0  0  0  0  0
   -1.5956    1.0622    2.1042 H   0  0  0  0  0  0  0  0  0  0  0  0
   -1.4344   -0.2443    3.2886 H   0  0  0  0  0  0  0  0  0  0  0  0
    1.0511    1.6596    1.5383 H   0  0  0  0  0  0  0  0  0  0  0  0
    0.0468    2.8875    2.1596 H   0  0  0  0  0  0  0  0  0  0  0  0
    2.8793    2.2392    2.6667 H   0  0  0  0  0  0  0  0  0  0  0  0
    1.6144    4.2155    1.7280 H   0  0  0  0  0  0  0  0  0  0  0  0
    0.4974   -0.5385    4.4880 H   0  0  0  0  0  0  0  0  0  0  0  0
    2.3609    0.0328    2.1170 H   0  0  0  0  0  0  0  0  0  0  0  0
    1.1797   -1.2695    2.2923 H   0  0  0  0  0  0  0  0  0  0  0  0
    2.6531   -1.2986    3.1396 H   0  0  0  0  0  0  0  0  0  0  0  0
    2.7552    1.8439    7.4787 H   0  0  0  0  0  0  0  0  0  0  0  0
    4.3902    0.9743    6.7762 H   0  0  0  0  0  0  0  0  0  0  0  0
  1  2  1  0
  1 41  1  0
  1 42  1  0
  1 43  1  0
  2  3  1  0
  2 44  1  0
  2 45  1  0
  4  3  1  1
  4  8  1  0
  4 14  1  0
  4  5  1  0
  5  6  1  0
  6  7  2  0
  6  8  1  0
  8  9  1  1
  8 10  1  0
  9 46  1  0
 10 11  1  0
 10 47  1  0
 10 48  1  0
 11 12  1  0
 11 49  1  0
 11 50  1  0
 12 37  1  0
 12 40  1  1
 12 13  1  0
 13 14  1  0
 13 51  1  0
 13 52  1  0
 14 15  1  1
 16 14  1  1
 15 53  1  0
 15 54  1  0
 15 55  1  0
 16 33  1  0
 16 35  1  0
 16 17  1  0
 17 18  1  0
 17 37  1  0
 17 56  1  6
 18 19  1  0
 19 35  1  0
 19 20  1  1
 19 21  1  0
 20 57  1  0
 21 31  1  0
 21 22  1  1
 21 35  1  0
 22 23  1  0
 23 24  1  0
 23 25  1  0
 23 58  1  1
 24 59  1  0
 25 26  1  0
 25 27  1  6
 25 28  1  0
 26 60  1  0
 26 61  1  0
 26 62  1  0
 27 63  1  0
 28 29  1  6
 28 30  1  0
 28 33  1  0
 29 64  1  0
 29 65  1  0
 29 66  1  0
 30 31  1  0
 30 67  1  0
 30 68  1  0
 31 32  1  0
 31 69  1  6
 32 70  1  0
 33 34  1  0
 33 71  1  1
 34 72  1  0
 34 73  1  0
 34 74  1  0
 35 36  1  1
 36 75  1  0
 37 38  1  0
 37 76  1  1
 38 39  2  0
 38 40  1  0
M  END
>  <i_m_ct_stereo_status>  (55) 
1

>  <s_m_source_file>  (55) 
/var/tmp/pbs.5076255.sched01/tmpu3exd1vk/0t_9me_9p.sdf

>  <i_m_source_file_index>  (55) 
23

>  <i_lp_mmshare_version>  (55) 
48012

>  <i_f3d_flags>  (55) 
0

>  <s_epik_input>  (55) 
W0NIM11bQ0gyXU9bQ0BdMShbQ0BdKEMoTzEpPU8pKFtPSF0pW0NIMl1bQ0gyXTIpW0NAXShbQ0gyXTMpKFtDSDNdKVtDQF00KFtDQEBIXTVbQ0BASF0oW0NAXTIzNilDKD1PKU82KVtDQF03KFtPSF0pW0NAXTgoW0NAQF03KE81KVtPSF0pT1tDQEBIXShbT0hdKVtDQEBdKFtDSDNdKShbT0hdKVtDQF0oW0NIM10pKFtDQEhdNFtDSDNdKVtDSDJdW0NASF04W09IXQ==

>  <s_epik_cmdline>  (55) 
J2VwaWtfcHl0aG9uJywgJy1waHQnLCAnMi4wJywgJy1waCcsICc3LjAnLCAnLXRuJywgJzgnLCAnLW1hJywgJzIwMCcsICctaW1hZScsICc8aW5maWxlLm1hZT4nLCAnLW9tYWUnLCAnPG91dGZpbGUubWFlPic=

>  <r_lp_tautomer_probability>  (55) 
1

>  <r_epik_Ionization_Penalty>  (55) 
7.94595e-05

>  <r_epik_Ionization_Penalty_Charging>  (55) 
0

>  <r_epik_Ionization_Penalty_Neutral>  (55) 
7.94595e-05

>  <r_epik_State_Penalty>  (55) 
-0

>  <r_epik_Charging_Adjusted_Penalty>  (55) 
0

>  <i_epik_Tot_Q>  (55) 
0

>  <i_epik_Tot_abs_Q>  (55) 
0

>  <s_epik_Chemistry_Notes>  (55) 
This compound has an ester and may undergo hydrolysis at high or low pH. This compound contains an acetal/aminal-like group ( X-CH(R)-Y where X, Y are N, S, or O) that may be acid/base labile, releasing an aldehyde.

>  <s_lp_Force_Field>  (55) 
OPLS3e

>  <r_lp_Energy>  (55) 
191.965

>  <b_lp_Chiralities_Consistent>  (55) 
1

>  <s_lp_Variant>  (55) 
16:0-1

>  <s_i_glide_gridfile>  (55) 
pfpi4k_grid

>  <i_i_glide_lignum>  (55) 
23

>  <i_i_glide_rotatable_bonds>  (55) 
8

>  <r_i_docking_score>  (55) 
-2.20712

>  <r_i_glide_ligand_efficiency>  (55) 
-0.055178

>  <r_i_glide_ligand_efficiency_sa>  (55) 
-0.188706

>  <r_i_glide_ligand_efficiency_ln>  (55) 
-0.470713

>  <r_i_glide_gscore>  (55) 
-2.20712

>  <r_i_glide_lipo>  (55) 
-0.0301943

>  <r_i_glide_hbond>  (55) 
0

>  <r_i_glide_metal>  (55) 
-0

>  <r_i_glide_rewards>  (55) 
-0.100173

>  <r_i_glide_evdw>  (55) 
-21.3858

>  <r_i_glide_ecoul>  (55) 
-6.96607

>  <r_i_glide_erotb>  (55) 
0.0644525

>  <r_i_glide_esite>  (55) 
-0.027004

>  <r_i_glide_emodel>  (55) 
-29.5525

>  <r_i_glide_energy>  (55) 
-28.3519

>  <r_i_glide_einternal>  (55) 
5.68275

>  <r_i_glide_intrahb_reward>  (55) 
-0

>  <i_i_glide_confnum>  (55) 
3

>  <i_i_glide_posenum>  (55) 
1

>  <r_i_glide_eff_state_penalty>  (55) 
0

>  <ligand_id>  (55) 
16

>  <original_smiles>  (55) 
CCOC12OC(=O)C1(O)CCC13CC2(C)C24C(OC5(O)C6(OC(O)C(C)(O)C(C)(CC6O)C2C)C54O)C1C(=O)O3

>  <smiles>  (55) 
[H]OC1([H])OC23C([H])(O[H])C([H])([H])C(C([H])([H])[H])(C([H])(C([H])([H])[H])C45C([H])(OC2(O[H])C34O[H])C2([H])C(=O)OC23C([H])([H])C([H])([H])C2(O[H])C(=O)OC2(OC([H])([H])C([H])([H])[H])C5(C([H])([H])[H])C3([H])[H])C1(O[H])C([H])([H])[H]

$$$$
17:0:0
     RDKit          3D

 49 55  0  0  1  0  0  0  0  0999 V2000
    5.4470   -3.9273    3.8842 C   0  0  0  0  0  0  0  0  0  0  0  0
    5.8170   -2.5986    3.5192 O   0  0  0  0  0  0  0  0  0  0  0  0
    5.7646   -2.2974    2.1216 C   0  0  1  0  0  0  0  0  0  0  0  0
    6.8310   -1.4910    1.6374 O   0  0  0  0  0  0  0  0  0  0  0  0
    6.8971   -2.8744    1.2924 C   0  0  2  0  0  0  0  0  0  0  0  0
    6.9251   -3.1424   -0.1843 C   0  0  0  0  0  0  0  0  0  0  0  0
    5.6151   -2.7341   -0.8332 C   0  0  2  0  0  0  0  0  0  0  0  0
    4.3875   -3.4776   -0.2097 C   0  0  1  0  0  0  0  0  0  0  0  0
    3.6613   -2.8934    1.0088 C   0  0  2  0  0  0  0  0  0  0  0  0
    2.4057   -2.2698    0.8898 O   0  0  0  0  0  0  0  0  0  0  0  0
    2.3324   -1.3928    1.9762 C   0  0  0  0  0  0  0  0  0  0  0  0
    2.0455    0.0090    1.4268 C   0  0  0  0  0  0  0  0  0  0  0  0
    1.2998   -1.8988    2.9883 C   0  0  0  0  0  0  0  0  0  0  0  0
    3.5522   -1.3562    2.6278 O   0  0  0  0  0  0  0  0  0  0  0  0
    4.4533   -1.7908    1.6542 C   0  0  1  0  0  0  0  0  0  0  0  0
    3.5043   -3.7736   -1.3822 C   0  0  1  0  0  0  0  0  0  0  0  0
    3.0892   -2.4836   -2.1247 C   0  0  2  0  0  0  0  0  0  0  0  0
    2.0059   -2.8068   -3.1476 C   0  0  0  0  0  0  0  0  0  0  0  0
    2.6652   -3.7655   -4.1379 C   0  0  0  0  0  0  0  0  0  0  0  0
    4.1486   -3.6710   -3.7903 C   0  0  1  0  0  0  0  0  0  0  0  0
    4.3351   -2.4039   -2.9842 C   0  0  2  0  0  0  0  0  0  0  0  0
    5.5166   -3.0755   -2.3017 C   0  0  2  0  0  0  0  0  0  0  0  0
    4.5350   -4.2098   -2.4222 C   0  0  1  0  0  0  0  0  0  0  0  0
    5.2977   -4.0139    4.9664 H   0  0  0  0  0  0  0  0  0  0  0  0
    6.2327   -4.6135    3.5971 H   0  0  0  0  0  0  0  0  0  0  0  0
    4.5339   -4.2715    3.4279 H   0  0  0  0  0  0  0  0  0  0  0  0
    7.6299   -3.4811    1.7968 H   0  0  0  0  0  0  0  0  0  0  0  0
    7.7770   -2.6073   -0.6064 H   0  0  0  0  0  0  0  0  0  0  0  0
    7.1174   -4.2086   -0.2749 H   0  0  0  0  0  0  0  0  0  0  0  0
    5.4968   -1.6590   -0.7515 H   0  0  0  0  0  0  0  0  0  0  0  0
    4.7507   -4.4585    0.1074 H   0  0  0  0  0  0  0  0  0  0  0  0
    3.4847   -3.7261    1.6798 H   0  0  0  0  0  0  0  0  0  0  0  0
    2.7955    0.2556    0.6737 H   0  0  0  0  0  0  0  0  0  0  0  0
    2.0530    0.7401    2.2304 H   0  0  0  0  0  0  0  0  0  0  0  0
    1.0670    0.0474    0.9621 H   0  0  0  0  0  0  0  0  0  0  0  0
    1.5775   -2.8798    3.3859 H   0  0  0  0  0  0  0  0  0  0  0  0
    0.3392   -1.9736    2.4955 H   0  0  0  0  0  0  0  0  0  0  0  0
    1.2161   -1.1895    3.8121 H   0  0  0  0  0  0  0  0  0  0  0  0
    4.6131   -0.9313    0.9848 H   0  0  0  0  0  0  0  0  0  0  0  0
    2.6791   -4.4453   -1.1362 H   0  0  0  0  0  0  0  0  0  0  0  0
    2.8898   -1.6022   -1.5068 H   0  0  0  0  0  0  0  0  0  0  0  0
    1.0786   -3.1775   -2.7044 H   0  0  0  0  0  0  0  0  0  0  0  0
    1.8413   -1.9032   -3.7291 H   0  0  0  0  0  0  0  0  0  0  0  0
    2.2296   -4.7511   -4.0868 H   0  0  0  0  0  0  0  0  0  0  0  0
    2.4486   -3.4324   -5.1256 H   0  0  0  0  0  0  0  0  0  0  0  0
    4.8858   -3.8559   -4.5690 H   0  0  0  0  0  0  0  0  0  0  0  0
    4.5469   -1.5063   -3.5595 H   0  0  0  0  0  0  0  0  0  0  0  0
    6.4231   -3.1999   -2.8942 H   0  0  0  0  0  0  0  0  0  0  0  0
    5.0269   -5.1698   -2.3695 H   0  0  0  0  0  0  0  0  0  0  0  0
  1  2  1  0
  1 24  1  0
  1 25  1  0
  1 26  1  0
  3  2  1  1
  3  5  1  0
  3 15  1  0
  3  4  1  0
  4  5  1  0
  5  6  1  0
  5 27  1  1
  6  7  1  0
  6 28  1  0
  6 29  1  0
  7 22  1  0
  7  8  1  0
  7 30  1  6
  8  9  1  0
  8 16  1  0
  8 31  1  1
  9 15  1  0
  9 10  1  0
  9 32  1  1
 10 11  1  0
 11 12  1  0
 11 13  1  0
 11 14  1  0
 12 33  1  0
 12 34  1  0
 12 35  1  0
 13 36  1  0
 13 37  1  0
 13 38  1  0
 14 15  1  0
 15 39  1  6
 16 23  1  0
 16 17  1  0
 16 40  1  1
 17 21  1  0
 17 18  1  0
 17 41  1  1
 18 19  1  0
 18 42  1  0
 18 43  1  0
 19 20  1  0
 19 44  1  0
 19 45  1  0
 20 23  1  0
 20 21  1  0
 20 46  1  6
 21 22  1  0
 21 47  1  6
 22 23  1  0
 22 48  1  6
 23 49  1  6
M  END
>  <i_m_ct_stereo_status>  (56) 
1

>  <s_m_source_file>  (56) 
/var/tmp/pbs.5076255.sched01/tmpu3exd1vk/0t_9me_9p.sdf

>  <i_m_source_file_index>  (56) 
24

>  <i_lp_mmshare_version>  (56) 
48012

>  <i_f3d_flags>  (56) 
0

>  <s_epik_input>  (56) 
W0NIM11PW0NAXTEyW0NASF0oTzEpW0NIMl1bQ0BASF0zW0NAQEhdKFtDQEhdNFtDQEhdMk9DKE80KShbQ0gzXSlbQ0gzXSlbQ0BIXTVbQ0BIXTZbQ0BASF03W0NASF0oW0NIMl1bQ0gyXTYpW0NASF01W0NASF0zNw==

>  <s_epik_cmdline>  (56) 
J2VwaWtfcHl0aG9uJywgJy1waHQnLCAnMi4wJywgJy1waCcsICc3LjAnLCAnLXRuJywgJzgnLCAnLW1hJywgJzIwMCcsICctaW1hZScsICc8aW5maWxlLm1hZT4nLCAnLW9tYWUnLCAnPG91dGZpbGUubWFlPic=

>  <r_lp_tautomer_probability>  (56) 
1

>  <r_epik_Ionization_Penalty>  (56) 
4.66637e-13

>  <r_epik_Ionization_Penalty_Charging>  (56) 
0

>  <r_epik_Ionization_Penalty_Neutral>  (56) 
4.66637e-13

>  <r_epik_State_Penalty>  (56) 
-0

>  <r_epik_Charging_Adjusted_Penalty>  (56) 
0

>  <i_epik_Tot_Q>  (56) 
0

>  <i_epik_Tot_abs_Q>  (56) 
0

>  <s_lp_Force_Field>  (56) 
OPLS3e

>  <r_lp_Energy>  (56) 
77.2175

>  <b_lp_Chiralities_Consistent>  (56) 
1

>  <s_lp_Variant>  (56) 
17:0-1

>  <s_i_glide_gridfile>  (56) 
pfpi4k_grid

>  <i_i_glide_lignum>  (56) 
24

>  <i_i_glide_rotatable_bonds>  (56) 
1

>  <r_i_docking_score>  (56) 
-2.26348

>  <r_i_glide_ligand_efficiency>  (56) 
-0.098412

>  <r_i_glide_ligand_efficiency_sa>  (56) 
-0.279871

>  <r_i_glide_ligand_efficiency_ln>  (56) 
-0.547329

>  <r_i_glide_gscore>  (56) 
-2.26348

>  <r_i_glide_lipo>  (56) 
-0.65075

>  <r_i_glide_hbond>  (56) 
0

>  <r_i_glide_metal>  (56) 
-0

>  <r_i_glide_rewards>  (56) 
-1.30274

>  <r_i_glide_evdw>  (56) 
-4.02786

>  <r_i_glide_ecoul>  (56) 
-0.420797

>  <r_i_glide_erotb>  (56) 
0

>  <r_i_glide_esite>  (56) 
-0.0454719

>  <r_i_glide_emodel>  (56) 
-4.84428

>  <r_i_glide_energy>  (56) 
-4.44866

>  <r_i_glide_einternal>  (56) 
1.2272

>  <r_i_glide_intrahb_reward>  (56) 
-0

>  <i_i_glide_confnum>  (56) 
2

>  <i_i_glide_posenum>  (56) 
2

>  <r_i_glide_eff_state_penalty>  (56) 
0

>  <ligand_id>  (56) 
17

>  <original_smiles>  (56) 
COC12OC1CC1C(C3OC(C)(C)OC32)C2C3CCC4C3C1C42

>  <smiles>  (56) 
[H]C([H])([H])OC12OC1([H])C([H])([H])C1([H])C([H])(C3([H])OC(C([H])([H])[H])(C([H])([H])[H])OC32[H])C2([H])C3([H])C([H])([H])C([H])([H])C4([H])C3([H])C1([H])C42[H]

$$$$
17:0:1
     RDKit          3D

 49 55  0  0  1  0  0  0  0  0999 V2000
    7.8412   -6.5051    2.9898 C   0  0  0  0  0  0  0  0  0  0  0  0
    7.1571   -6.4651    1.7096 O   0  0  0  0  0  0  0  0  0  0  0  0
    6.6677   -5.2141    1.3102 C   0  0  1  0  0  0  0  0  0  0  0  0
    7.2298   -4.0525    1.8161 O   0  0  0  0  0  0  0  0  0  0  0  0
    7.6922   -4.3762    0.5608 C   0  0  2  0  0  0  0  0  0  0  0  0
    7.4890   -3.2912   -0.4675 C   0  0  0  0  0  0  0  0  0  0  0  0
    5.9969   -2.9268   -0.7045 C   0  0  2  0  0  0  0  0  0  0  0  0
    5.2014   -4.1801   -1.2100 C   0  0  1  0  0  0  0  0  0  0  0  0
    4.6671   -5.2213   -0.1780 C   0  0  2  0  0  0  0  0  0  0  0  0
    3.2776   -5.2723    0.0759 O   0  0  0  0  0  0  0  0  0  0  0  0
    3.1335   -5.7430    1.3677 C   0  0  0  0  0  0  0  0  0  0  0  0
    2.2906   -4.7114    2.1041 C   0  0  0  0  0  0  0  0  0  0  0  0
    2.5167   -7.1364    1.3152 C   0  0  0  0  0  0  0  0  0  0  0  0
    4.3663   -5.8557    1.9901 O   0  0  0  0  0  0  0  0  0  0  0  0
    5.1399   -4.9978    1.2062 C   0  0  1  0  0  0  0  0  0  0  0  0
    4.2825   -3.6628   -2.2949 C   0  0  1  0  0  0  0  0  0  0  0  0
    3.3268   -2.6393   -1.7618 C   0  0  2  0  0  0  0  0  0  0  0  0
    2.2703   -2.4438   -2.8237 C   0  0  0  0  0  0  0  0  0  0  0  0
    2.9994   -1.7384   -3.9914 C   0  0  0  0  0  0  0  0  0  0  0  0
    4.3763   -1.4634   -3.4280 C   0  0  1  0  0  0  0  0  0  0  0  0
    4.2896   -1.4561   -1.9175 C   0  0  2  0  0  0  0  0  0  0  0  0
    5.7343   -1.9637   -1.8482 C   0  0  2  0  0  0  0  0  0  0  0  0
    5.1663   -2.7069   -3.0381 C   0  0  1  0  0  0  0  0  0  0  0  0
    8.1818   -7.5239    3.1463 H   0  0  0  0  0  0  0  0  0  0  0  0
    7.2144   -6.2546    3.8333 H   0  0  0  0  0  0  0  0  0  0  0  0
    8.7261   -5.8820    3.0233 H   0  0  0  0  0  0  0  0  0  0  0  0
    8.7476   -4.7363    0.6550 H   0  0  0  0  0  0  0  0  0  0  0  0
    8.0120   -2.4116   -0.0995 H   0  0  0  0  0  0  0  0  0  0  0  0
    8.0068   -3.5723   -1.3814 H   0  0  0  0  0  0  0  0  0  0  0  0
    5.5898   -2.4671    0.2027 H   0  0  0  0  0  0  0  0  0  0  0  0
    5.8733   -4.6707   -1.8788 H   0  0  0  0  0  0  0  0  0  0  0  0
    5.0187   -6.1946   -0.4816 H   0  0  0  0  0  0  0  0  0  0  0  0
    2.7319   -3.7146    2.0182 H   0  0  0  0  0  0  0  0  0  0  0  0
    2.1597   -5.0074    3.1483 H   0  0  0  0  0  0  0  0  0  0  0  0
    1.3470   -4.7085    1.5809 H   0  0  0  0  0  0  0  0  0  0  0  0
    3.2093   -7.8225    0.8290 H   0  0  0  0  0  0  0  0  0  0  0  0
    1.5749   -7.0893    0.7590 H   0  0  0  0  0  0  0  0  0  0  0  0
    2.3343   -7.4925    2.3213 H   0  0  0  0  0  0  0  0  0  0  0  0
    4.9174   -3.9989    1.5311 H   0  0  0  0  0  0  0  0  0  0  0  0
    3.8579   -4.3169   -3.0477 H   0  0  0  0  0  0  0  0  0  0  0  0
    2.9560   -2.8010   -0.7324 H   0  0  0  0  0  0  0  0  0  0  0  0
    1.6836   -3.3458   -3.0860 H   0  0  0  0  0  0  0  0  0  0  0  0
    1.6804   -1.7406   -2.3291 H   0  0  0  0  0  0  0  0  0  0  0  0
    3.0448   -2.4337   -4.8253 H   0  0  0  0  0  0  0  0  0  0  0  0
    2.4712   -0.8377   -4.2870 H   0  0  0  0  0  0  0  0  0  0  0  0
    4.9823   -0.6623   -3.8798 H   0  0  0  0  0  0  0  0  0  0  0  0
    4.0772   -0.5068   -1.4390 H   0  0  0  0  0  0  0  0  0  0  0  0
    6.5066   -1.2380   -2.1302 H   0  0  0  0  0  0  0  0  0  0  0  0
    5.8486   -3.1471   -3.7524 H   0  0  0  0  0  0  0  0  0  0  0  0
  1  2  1  0
  1 24  1  0
  1 25  1  0
  1 26  1  0
  3  2  1  1
  3  5  1  0
  3 15  1  0
  3  4  1  0
  4  5  1  0
  5  6  1  0
  5 27  1  1
  6  7  1  0
  6 28  1  0
  6 29  1  0
  7 22  1  0
  7  8  1  0
  7 30  1  1
  8  9  1  0
  8 16  1  0
  8 31  1  6
  9 15  1  0
  9 10  1  0
  9 32  1  6
 10 11  1  0
 11 12  1  0
 11 13  1  0
 11 14  1  0
 12 33  1  0
 12 34  1  0
 12 35  1  0
 13 36  1  0
 13 37  1  0
 13 38  1  0
 14 15  1  0
 15 39  1  1
 16 23  1  0
 16 17  1  0
 16 40  1  6
 17 21  1  0
 17 18  1  0
 17 41  1  1
 18 19  1  0
 18 42  1  0
 18 43  1  0
 19 20  1  0
 19 44  1  0
 19 45  1  0
 20 23  1  0
 20 21  1  0
 20 46  1  6
 21 22  1  0
 21 47  1  1
 22 23  1  0
 22 48  1  6
 23 49  1  6
M  END
>  <i_m_ct_stereo_status>  (57) 
1

>  <s_m_source_file>  (57) 
/var/tmp/pbs.5076255.sched01/tmpu3exd1vk/0t_9me_9p.sdf

>  <i_m_source_file_index>  (57) 
24

>  <i_lp_mmshare_version>  (57) 
48012

>  <i_f3d_flags>  (57) 
0

>  <s_epik_input>  (57) 
W0NIM11PW0NAXTEyW0NASF0oTzEpW0NIMl1bQ0BASF0zW0NAQEhdKFtDQEhdNFtDQEhdMk9DKE80KShbQ0gzXSlbQ0gzXSlbQ0BIXTVbQ0BIXTZbQ0BASF03W0NASF0oW0NIMl1bQ0gyXTYpW0NASF01W0NASF0zNw==

>  <s_epik_cmdline>  (57) 
J2VwaWtfcHl0aG9uJywgJy1waHQnLCAnMi4wJywgJy1waCcsICc3LjAnLCAnLXRuJywgJzgnLCAnLW1hJywgJzIwMCcsICctaW1hZScsICc8aW5maWxlLm1hZT4nLCAnLW9tYWUnLCAnPG91dGZpbGUubWFlPic=

>  <r_lp_tautomer_probability>  (57) 
1

>  <r_epik_Ionization_Penalty>  (57) 
4.66637e-13

>  <r_epik_Ionization_Penalty_Charging>  (57) 
0

>  <r_epik_Ionization_Penalty_Neutral>  (57) 
4.66637e-13

>  <r_epik_State_Penalty>  (57) 
-0

>  <r_epik_Charging_Adjusted_Penalty>  (57) 
0

>  <i_epik_Tot_Q>  (57) 
0

>  <i_epik_Tot_abs_Q>  (57) 
0

>  <s_lp_Force_Field>  (57) 
OPLS3e

>  <r_lp_Energy>  (57) 
77.2175

>  <b_lp_Chiralities_Consistent>  (57) 
1

>  <s_lp_Variant>  (57) 
17:0-1

>  <s_i_glide_gridfile>  (57) 
pfpi4k_grid

>  <i_i_glide_lignum>  (57) 
24

>  <i_i_glide_rotatable_bonds>  (57) 
1

>  <r_i_docking_score>  (57) 
-2.11984

>  <r_i_glide_ligand_efficiency>  (57) 
-0.0921671

>  <r_i_glide_ligand_efficiency_sa>  (57) 
-0.262111

>  <r_i_glide_ligand_efficiency_ln>  (57) 
-0.512597

>  <r_i_glide_gscore>  (57) 
-2.11984

>  <r_i_glide_lipo>  (57) 
-0.71484

>  <r_i_glide_hbond>  (57) 
0

>  <r_i_glide_metal>  (57) 
-0

>  <r_i_glide_rewards>  (57) 
-1.39697

>  <r_i_glide_evdw>  (57) 
-4.23693

>  <r_i_glide_ecoul>  (57) 
-0.0619002

>  <r_i_glide_erotb>  (57) 
0

>  <r_i_glide_esite>  (57) 
0

>  <r_i_glide_emodel>  (57) 
-0.728067

>  <r_i_glide_energy>  (57) 
-4.29883

>  <r_i_glide_einternal>  (57) 
2.24779

>  <r_i_glide_intrahb_reward>  (57) 
-0

>  <i_i_glide_confnum>  (57) 
1

>  <i_i_glide_posenum>  (57) 
1

>  <r_i_glide_eff_state_penalty>  (57) 
0

>  <ligand_id>  (57) 
17

>  <original_smiles>  (57) 
COC12OC1CC1C(C3OC(C)(C)OC32)C2C3CCC4C3C1C42

>  <smiles>  (57) 
[H]C([H])([H])OC12OC1([H])C([H])([H])C1([H])C([H])(C3([H])OC(C([H])([H])[H])(C([H])([H])[H])OC32[H])C2([H])C3([H])C([H])([H])C([H])([H])C4([H])C3([H])C1([H])C42[H]

$$$$
20:0:0
     RDKit          3D

 52 58  0  0  1  0  0  0  0  0999 V2000
    0.4298    1.8293    5.1745 C   0  0  0  0  0  0  0  0  0  0  0  0
    0.4864    0.2905    5.0600 C   0  0  1  0  0  0  0  0  0  0  0  0
   -0.1585   -0.1646    3.7323 C   0  0  0  0  0  0  0  0  0  0  0  0
    0.6221    0.4395    2.5360 C   0  0  1  0  0  0  0  0  0  0  0  0
    0.5401    1.9807    2.6574 C   0  0  0  0  0  0  0  0  0  0  0  0
    1.1906    2.4391    3.9783 C   0  0  2  0  0  0  0  0  0  0  0  0
    2.6615    1.9729    4.0021 C   0  0  0  0  0  0  0  0  0  0  0  0
    2.7318    0.4292    3.8933 C   0  0  1  0  0  0  0  0  0  0  0  0
    1.9575   -0.1759    5.0918 C   0  0  0  0  0  0  0  0  0  0  0  0
    2.0972   -0.0546    2.5507 C   0  0  0  0  0  0  0  0  0  0  0  0
    2.7763    0.4634    1.4132 O   0  0  0  0  0  0  0  0  0  0  0  0
    4.2032   -0.0436    1.4186 O   0  0  0  0  0  0  0  0  0  0  0  0
    4.2091   -1.4713    1.3739 C   0  0  0  0  0  0  0  0  0  0  0  0
    3.5009   -1.9828    2.4994 O   0  0  0  0  0  0  0  0  0  0  0  0
    2.0834   -1.4752    2.4658 O   0  0  0  0  0  0  0  0  0  0  0  0
    3.6361   -2.0242    0.0296 C   0  0  2  0  0  0  0  0  0  0  0  0
    3.7003   -3.5753   -0.0015 C   0  0  0  0  0  0  0  0  0  0  0  0
    5.1646   -4.0341    0.1104 C   0  0  1  0  0  0  0  0  0  0  0  0
    5.9657   -3.4823   -1.0855 C   0  0  0  0  0  0  0  0  0  0  0  0
    5.9052   -1.9472   -1.0590 C   0  0  1  0  0  0  0  0  0  0  0  0
    4.4447   -1.4805   -1.1746 C   0  0  0  0  0  0  0  0  0  0  0  0
    6.5091   -1.4290    0.2653 C   0  0  0  0  0  0  0  0  0  0  0  0
    5.6884   -1.9545    1.4722 C   0  0  2  0  0  0  0  0  0  0  0  0
    5.7524   -3.5069    1.4383 C   0  0  0  0  0  0  0  0  0  0  0  0
    0.8825    2.1534    6.1140 H   0  0  0  0  0  0  0  0  0  0  0  0
   -0.6010    2.1818    5.1934 H   0  0  0  0  0  0  0  0  0  0  0  0
   -0.0607   -0.1440    5.8998 H   0  0  0  0  0  0  0  0  0  0  0  0
   -0.1531   -1.2537    3.6814 H   0  0  0  0  0  0  0  0  0  0  0  0
   -1.2054    0.1425    3.7019 H   0  0  0  0  0  0  0  0  0  0  0  0
    0.1462    0.1382    1.6026 H   0  0  0  0  0  0  0  0  0  0  0  0
    1.0376    2.4626    1.8151 H   0  0  0  0  0  0  0  0  0  0  0  0
   -0.5001    2.3106    2.6252 H   0  0  0  0  0  0  0  0  0  0  0  0
    1.1400    3.5276    4.0465 H   0  0  0  0  0  0  0  0  0  0  0  0
    3.2052    2.4413    3.1810 H   0  0  0  0  0  0  0  0  0  0  0  0
    3.1410    2.3120    4.9227 H   0  0  0  0  0  0  0  0  0  0  0  0
    3.7711    0.1241    3.9665 H   0  0  0  0  0  0  0  0  0  0  0  0
    2.4164    0.1251    6.0354 H   0  0  0  0  0  0  0  0  0  0  0  0
    1.9940   -1.2654    5.0667 H   0  0  0  0  0  0  0  0  0  0  0  0
    2.6114   -1.7180   -0.0908 H   0  0  0  0  0  0  0  0  0  0  0  0
    3.1182   -3.9995    0.8151 H   0  0  0  0  0  0  0  0  0  0  0  0
    3.2617   -3.9640   -0.9199 H   0  0  0  0  0  0  0  0  0  0  0  0
    5.2150   -5.1233    0.0938 H   0  0  0  0  0  0  0  0  0  0  0  0
    7.0011   -3.8221   -1.0454 H   0  0  0  0  0  0  0  0  0  0  0  0
    5.5565   -3.8639   -2.0235 H   0  0  0  0  0  0  0  0  0  0  0  0
    6.4753   -1.5731   -1.9071 H   0  0  0  0  0  0  0  0  0  0  0  0
    4.0098   -1.8263   -2.1120 H   0  0  0  0  0  0  0  0  0  0  0  0
    4.3988   -0.3928   -1.2052 H   0  0  0  0  0  0  0  0  0  0  0  0
    7.5514   -1.7508    0.3518 H   0  0  0  0  0  0  0  0  0  0  0  0
    6.5210   -0.3384    0.2658 H   0  0  0  0  0  0  0  0  0  0  0  0
    6.1367   -1.5821    2.3974 H   0  0  0  0  0  0  0  0  0  0  0  0
    5.1992   -3.9331    2.2769 H   0  0  0  0  0  0  0  0  0  0  0  0
    6.7855   -3.8480    1.5433 H   0  0  0  0  0  0  0  0  0  0  0  0
  1  6  1  0
  1  2  1  0
  1 25  1  0
  1 26  1  0
  2  9  1  0
  2  3  1  0
  2 27  1  1
  3  4  1  0
  3 28  1  0
  3 29  1  0
  4 10  1  0
  4  5  1  0
  4 30  1  6
  5  6  1  0
  5 31  1  0
  5 32  1  0
  6  7  1  0
  6 33  1  1
  7  8  1  0
  7 34  1  0
  7 35  1  0
  8  9  1  0
  8 10  1  0
  8 36  1  6
  9 37  1  0
  9 38  1  0
 10 15  1  0
 10 11  1  0
 11 12  1  0
 12 13  1  0
 13 23  1  0
 13 14  1  0
 13 16  1  0
 14 15  1  0
 16 21  1  0
 16 17  1  0
 16 39  1  6
 17 18  1  0
 17 40  1  0
 17 41  1  0
 18 24  1  0
 18 19  1  0
 18 42  1  1
 19 20  1  0
 19 43  1  0
 19 44  1  0
 20 21  1  0
 20 22  1  0
 20 45  1  6
 21 46  1  0
 21 47  1  0
 22 23  1  0
 22 48  1  0
 22 49  1  0
 23 24  1  0
 23 50  1  1
 24 51  1  0
 24 52  1  0
M  END
>  <i_m_ct_stereo_status>  (58) 
1

>  <s_m_source_file>  (58) 
/var/tmp/pbs.5076255.sched01/tmpu3exd1vk/0t_9me_9p.sdf

>  <i_m_source_file_index>  (58) 
27

>  <i_lp_mmshare_version>  (58) 
48012

>  <i_f3d_flags>  (58) 
0

>  <s_epik_input>  (58) 
W0NIMl0xW0NASF0yW0NIMl1bQ0BIXShbQ0gyXTMpW0NIMl1bQ0BASF0xW0NIMl1bQ0BIXTNDMjRPT0M1KE9PNClbQ0BIXTZbQ0gyXVtDQEBIXTdbQ0gyXVtDQEhdKFtDSDJdNilbQ0gyXVtDQEhdNVtDSDJdNw==

>  <s_epik_cmdline>  (58) 
J2VwaWtfcHl0aG9uJywgJy1waHQnLCAnMi4wJywgJy1waCcsICc3LjAnLCAnLXRuJywgJzgnLCAnLW1hJywgJzIwMCcsICctaW1hZScsICc8aW5maWxlLm1hZT4nLCAnLW9tYWUnLCAnPG91dGZpbGUubWFlPic=

>  <r_lp_tautomer_probability>  (58) 
1

>  <r_epik_Ionization_Penalty>  (58) 
0

>  <r_epik_Ionization_Penalty_Charging>  (58) 
0

>  <r_epik_Ionization_Penalty_Neutral>  (58) 
0

>  <r_epik_State_Penalty>  (58) 
-0

>  <r_epik_Charging_Adjusted_Penalty>  (58) 
0

>  <i_epik_Tot_Q>  (58) 
0

>  <i_epik_Tot_abs_Q>  (58) 
0

>  <s_lp_Force_Field>  (58) 
OPLS3e

>  <r_lp_Energy>  (58) 
-4.94424

>  <b_lp_Chiralities_Consistent>  (58) 
1

>  <s_lp_Variant>  (58) 
20:0-1

>  <s_i_glide_gridfile>  (58) 
pfpi4k_grid

>  <i_i_glide_lignum>  (58) 
27

>  <i_i_glide_rotatable_bonds>  (58) 
0

>  <r_i_docking_score>  (58) 
-2.83465

>  <r_i_glide_ligand_efficiency>  (58) 
-0.118111

>  <r_i_glide_ligand_efficiency_sa>  (58) 
-0.34069

>  <r_i_glide_ligand_efficiency_ln>  (58) 
-0.678462

>  <r_i_glide_gscore>  (58) 
-2.83465

>  <r_i_glide_lipo>  (58) 
-0.347589

>  <r_i_glide_hbond>  (58) 
0

>  <r_i_glide_metal>  (58) 
-0

>  <r_i_glide_rewards>  (58) 
-1.1425

>  <r_i_glide_evdw>  (58) 
-25.7552

>  <r_i_glide_ecoul>  (58) 
-0.22743

>  <r_i_glide_erotb>  (58) 
0

>  <r_i_glide_esite>  (58) 
-0.022692

>  <r_i_glide_emodel>  (58) 
-30.62

>  <r_i_glide_energy>  (58) 
-25.9827

>  <r_i_glide_einternal>  (58) 
0

>  <r_i_glide_intrahb_reward>  (58) 
-0

>  <i_i_glide_confnum>  (58) 
2

>  <i_i_glide_posenum>  (58) 
11

>  <r_i_glide_eff_state_penalty>  (58) 
0

>  <ligand_id>  (58) 
20

>  <original_smiles>  (58) 
C1C2CC3CC1CC(C2)C31OOC2(OO1)C1CC3CC(C1)CC2C3

>  <smiles>  (58) 
[H]C1([H])C2([H])C([H])([H])C3([H])C([H])([H])C1([H])C([H])([H])C([H])(C2([H])[H])C31OOC2(OO1)C1([H])C([H])([H])C3([H])C([H])([H])C([H])(C1([H])[H])C([H])([H])C2([H])C3([H])[H]

$$$$
20:0:1
     RDKit          3D

 52 58  0  0  1  0  0  0  0  0999 V2000
    5.0713   -2.3648   -0.6906 C   0  0  0  0  0  0  0  0  0  0  0  0
    5.7454   -3.5715    0.0006 C   0  0  1  0  0  0  0  0  0  0  0  0
    5.6971   -3.3986    1.5323 C   0  0  0  0  0  0  0  0  0  0  0  0
    4.2236   -3.3243    2.0064 C   0  0  1  0  0  0  0  0  0  0  0  0
    3.5652   -2.0994    1.3187 C   0  0  0  0  0  0  0  0  0  0  0  0
    3.6071   -2.2745   -0.2113 C   0  0  2  0  0  0  0  0  0  0  0  0
    2.8578   -3.5677   -0.5930 C   0  0  0  0  0  0  0  0  0  0  0  0
    3.5270   -4.7850    0.0898 C   0  0  1  0  0  0  0  0  0  0  0  0
    4.9964   -4.8648   -0.3840 C   0  0  0  0  0  0  0  0  0  0  0  0
    3.4797   -4.6436    1.6385 C   0  0  0  0  0  0  0  0  0  0  0  0
    2.1457   -4.5757    2.1414 O   0  0  0  0  0  0  0  0  0  0  0  0
    1.4288   -5.8706    1.8150 O   0  0  0  0  0  0  0  0  0  0  0  0
    2.1195   -6.9671    2.4279 C   0  0  0  0  0  0  0  0  0  0  0  0
    3.4598   -7.0160    1.9365 O   0  0  0  0  0  0  0  0  0  0  0  0
    4.1547   -5.7230    2.2852 O   0  0  0  0  0  0  0  0  0  0  0  0
    2.0653   -6.9103    3.9873 C   0  0  2  0  0  0  0  0  0  0  0  0
    2.7807   -8.1411    4.5977 C   0  0  0  0  0  0  0  0  0  0  0  0
    2.0772   -9.4342    4.1439 C   0  0  1  0  0  0  0  0  0  0  0  0
    0.6147   -9.4258    4.6324 C   0  0  0  0  0  0  0  0  0  0  0  0
   -0.1051   -8.2068    4.0209 C   0  0  1  0  0  0  0  0  0  0  0  0
    0.5957   -6.9085    4.4736 C   0  0  0  0  0  0  0  0  0  0  0  0
   -0.0639   -8.2985    2.4801 C   0  0  0  0  0  0  0  0  0  0  0  0
    1.4078   -8.2822    1.9939 C   0  0  2  0  0  0  0  0  0  0  0  0
    2.1238   -9.5154    2.6032 C   0  0  0  0  0  0  0  0  0  0  0  0
    5.1059   -2.4831   -1.7762 H   0  0  0  0  0  0  0  0  0  0  0  0
    5.6034   -1.4381   -0.4658 H   0  0  0  0  0  0  0  0  0  0  0  0
    6.7837   -3.6321   -0.3307 H   0  0  0  0  0  0  0  0  0  0  0  0
    6.2115   -4.2333    2.0085 H   0  0  0  0  0  0  0  0  0  0  0  0
    6.2379   -2.4962    1.8245 H   0  0  0  0  0  0  0  0  0  0  0  0
    4.2002   -3.1803    3.0871 H   0  0  0  0  0  0  0  0  0  0  0  0
    2.5332   -1.9715    1.6473 H   0  0  0  0  0  0  0  0  0  0  0  0
    4.0932   -1.1838    1.5964 H   0  0  0  0  0  0  0  0  0  0  0  0
    3.1308   -1.4169   -0.6904 H   0  0  0  0  0  0  0  0  0  0  0  0
    1.8183   -3.4834   -0.2999 H   0  0  0  0  0  0  0  0  0  0  0  0
    2.8602   -3.6941   -1.6766 H   0  0  0  0  0  0  0  0  0  0  0  0
    3.0138   -5.6893   -0.2327 H   0  0  0  0  0  0  0  0  0  0  0  0
    5.0282   -5.0085   -1.4643 H   0  0  0  0  0  0  0  0  0  0  0  0
    5.5017   -5.7258    0.0544 H   0  0  0  0  0  0  0  0  0  0  0  0
    2.5534   -6.0078    4.3498 H   0  0  0  0  0  0  0  0  0  0  0  0
    3.8256   -8.1725    4.2975 H   0  0  0  0  0  0  0  0  0  0  0  0
    2.7787   -8.0894    5.6857 H   0  0  0  0  0  0  0  0  0  0  0  0
    2.5784  -10.3028    4.5697 H   0  0  0  0  0  0  0  0  0  0  0  0
    0.1070  -10.3535    4.3524 H   0  0  0  0  0  0  0  0  0  0  0  0
    0.5768   -9.3882    5.7232 H   0  0  0  0  0  0  0  0  0  0  0  0
   -1.1408   -8.2154    4.3591 H   0  0  0  0  0  0  0  0  0  0  0  0
    0.5546   -6.8272    5.5595 H   0  0  0  0  0  0  0  0  0  0  0  0
    0.0610   -6.0435    4.0870 H   0  0  0  0  0  0  0  0  0  0  0  0
   -0.5596   -9.2184    2.1530 H   0  0  0  0  0  0  0  0  0  0  0  0
   -0.6284   -7.4762    2.0399 H   0  0  0  0  0  0  0  0  0  0  0  0
    1.4156   -8.3610    0.9037 H   0  0  0  0  0  0  0  0  0  0  0  0
    3.1615   -9.5723    2.2698 H   0  0  0  0  0  0  0  0  0  0  0  0
    1.6461  -10.4412    2.2718 H   0  0  0  0  0  0  0  0  0  0  0  0
  1  6  1  0
  1  2  1  0
  1 25  1  0
  1 26  1  0
  2  9  1  0
  2  3  1  0
  2 27  1  6
  3  4  1  0
  3 28  1  0
  3 29  1  0
  4 10  1  0
  4  5  1  0
  4 30  1  1
  5  6  1  0
  5 31  1  0
  5 32  1  0
  6  7  1  0
  6 33  1  6
  7  8  1  0
  7 34  1  0
  7 35  1  0
  8  9  1  0
  8 10  1  0
  8 36  1  1
  9 37  1  0
  9 38  1  0
 10 15  1  0
 10 11  1  0
 11 12  1  0
 12 13  1  0
 13 23  1  0
 13 14  1  0
 13 16  1  0
 14 15  1  0
 16 21  1  0
 16 17  1  0
 16 39  1  1
 17 18  1  0
 17 40  1  0
 17 41  1  0
 18 24  1  0
 18 19  1  0
 18 42  1  1
 19 20  1  0
 19 43  1  0
 19 44  1  0
 20 21  1  0
 20 22  1  0
 20 45  1  1
 21 46  1  0
 21 47  1  0
 22 23  1  0
 22 48  1  0
 22 49  1  0
 23 24  1  0
 23 50  1  6
 24 51  1  0
 24 52  1  0
M  END
>  <i_m_ct_stereo_status>  (59) 
1

>  <s_m_source_file>  (59) 
/var/tmp/pbs.5076255.sched01/tmpu3exd1vk/0t_9me_9p.sdf

>  <i_m_source_file_index>  (59) 
27

>  <i_lp_mmshare_version>  (59) 
48012

>  <i_f3d_flags>  (59) 
0

>  <s_epik_input>  (59) 
W0NIMl0xW0NASF0yW0NIMl1bQ0BIXShbQ0gyXTMpW0NIMl1bQ0BASF0xW0NIMl1bQ0BIXTNDMjRPT0M1KE9PNClbQ0BIXTZbQ0gyXVtDQEBIXTdbQ0gyXVtDQEhdKFtDSDJdNilbQ0gyXVtDQEhdNVtDSDJdNw==

>  <s_epik_cmdline>  (59) 
J2VwaWtfcHl0aG9uJywgJy1waHQnLCAnMi4wJywgJy1waCcsICc3LjAnLCAnLXRuJywgJzgnLCAnLW1hJywgJzIwMCcsICctaW1hZScsICc8aW5maWxlLm1hZT4nLCAnLW9tYWUnLCAnPG91dGZpbGUubWFlPic=

>  <r_lp_tautomer_probability>  (59) 
1

>  <r_epik_Ionization_Penalty>  (59) 
0

>  <r_epik_Ionization_Penalty_Charging>  (59) 
0

>  <r_epik_Ionization_Penalty_Neutral>  (59) 
0

>  <r_epik_State_Penalty>  (59) 
-0

>  <r_epik_Charging_Adjusted_Penalty>  (59) 
0

>  <i_epik_Tot_Q>  (59) 
0

>  <i_epik_Tot_abs_Q>  (59) 
0

>  <s_lp_Force_Field>  (59) 
OPLS3e

>  <r_lp_Energy>  (59) 
-4.94424

>  <b_lp_Chiralities_Consistent>  (59) 
1

>  <s_lp_Variant>  (59) 
20:0-1

>  <s_i_glide_gridfile>  (59) 
pfpi4k_grid

>  <i_i_glide_lignum>  (59) 
27

>  <i_i_glide_rotatable_bonds>  (59) 
0

>  <r_i_docking_score>  (59) 
-2.78362

>  <r_i_glide_ligand_efficiency>  (59) 
-0.115984

>  <r_i_glide_ligand_efficiency_sa>  (59) 
-0.334556

>  <r_i_glide_ligand_efficiency_ln>  (59) 
-0.666247

>  <r_i_glide_gscore>  (59) 
-2.78362

>  <r_i_glide_lipo>  (59) 
-0.184754

>  <r_i_glide_hbond>  (59) 
-0.0642748

>  <r_i_glide_metal>  (59) 
-0

>  <r_i_glide_rewards>  (59) 
-1.15047

>  <r_i_glide_evdw>  (59) 
-24.6754

>  <r_i_glide_ecoul>  (59) 
-0.930624

>  <r_i_glide_erotb>  (59) 
0

>  <r_i_glide_esite>  (59) 
-0.0107537

>  <r_i_glide_emodel>  (59) 
-30.1658

>  <r_i_glide_energy>  (59) 
-25.606

>  <r_i_glide_einternal>  (59) 
0

>  <r_i_glide_intrahb_reward>  (59) 
-0

>  <i_i_glide_confnum>  (59) 
2

>  <i_i_glide_posenum>  (59) 
4

>  <r_i_glide_eff_state_penalty>  (59) 
0

>  <ligand_id>  (59) 
20

>  <original_smiles>  (59) 
C1C2CC3CC1CC(C2)C31OOC2(OO1)C1CC3CC(C1)CC2C3

>  <smiles>  (59) 
[H]C1([H])C2([H])C([H])([H])C3([H])C([H])([H])C1([H])C([H])([H])C([H])(C2([H])[H])C31OOC2(OO1)C1([H])C([H])([H])C3([H])C([H])([H])C([H])(C1([H])[H])C([H])([H])C2([H])C3([H])[H]

$$$$
20:0:2
     RDKit          3D

 52 58  0  0  1  0  0  0  0  0999 V2000
    0.5127    2.5032    4.6279 C   0  0  0  0  0  0  0  0  0  0  0  0
    1.9608    2.6926    4.1233 C   0  0  1  0  0  0  0  0  0  0  0  0
    2.9112    1.7289    4.8591 C   0  0  0  0  0  0  0  0  0  0  0  0
    2.4886    0.2561    4.5656 C   0  0  1  0  0  0  0  0  0  0  0  0
    1.0390    0.0835    5.1094 C   0  0  0  0  0  0  0  0  0  0  0  0
    0.0869    1.0428    4.3678 C   0  0  2  0  0  0  0  0  0  0  0  0
    0.1480    0.7511    2.8542 C   0  0  0  0  0  0  0  0  0  0  0  0
    1.5975    0.9324    2.3312 C   0  0  1  0  0  0  0  0  0  0  0  0
    2.0204    2.3990    2.6141 C   0  0  0  0  0  0  0  0  0  0  0  0
    2.5719   -0.0339    3.0551 C   0  0  0  0  0  0  0  0  0  0  0  0
    2.2546   -1.4026    2.8352 O   0  0  0  0  0  0  0  0  0  0  0  0
    2.3740   -1.7078    1.3727 O   0  0  0  0  0  0  0  0  0  0  0  0
    3.6942   -1.4662    0.9177 C   0  0  0  0  0  0  0  0  0  0  0  0
    4.0125   -0.1087    1.1685 O   0  0  0  0  0  0  0  0  0  0  0  0
    3.9148    0.1634    2.6459 O   0  0  0  0  0  0  0  0  0  0  0  0
    4.7225   -2.4328    1.5617 C   0  0  2  0  0  0  0  0  0  0  0  0
    6.1491   -2.1604    1.0188 C   0  0  0  0  0  0  0  0  0  0  0  0
    6.1808   -2.3807   -0.5042 C   0  0  1  0  0  0  0  0  0  0  0  0
    5.7963   -3.8387   -0.8229 C   0  0  0  0  0  0  0  0  0  0  0  0
    4.3806   -4.1160   -0.2957 C   0  0  1  0  0  0  0  0  0  0  0  0
    4.3468   -3.9017    1.2305 C   0  0  0  0  0  0  0  0  0  0  0  0
    3.3817   -3.1526   -0.9729 C   0  0  0  0  0  0  0  0  0  0  0  0
    3.7478   -1.6844   -0.6192 C   0  0  2  0  0  0  0  0  0  0  0  0
    5.1761   -1.4145   -1.1704 C   0  0  0  0  0  0  0  0  0  0  0  0
   -0.1587    3.1901    4.1079 H   0  0  0  0  0  0  0  0  0  0  0  0
    0.4373    2.7460    5.6899 H   0  0  0  0  0  0  0  0  0  0  0  0
    2.2679    3.7256    4.3121 H   0  0  0  0  0  0  0  0  0  0  0  0
    3.9322    1.9011    4.5219 H   0  0  0  0  0  0  0  0  0  0  0  0
    2.8985    1.9349    5.9316 H   0  0  0  0  0  0  0  0  0  0  0  0
    3.1501   -0.4093    5.1233 H   0  0  0  0  0  0  0  0  0  0  0  0
    0.7033   -0.9464    4.9816 H   0  0  0  0  0  0  0  0  0  0  0  0
    1.0067    0.2888    6.1824 H   0  0  0  0  0  0  0  0  0  0  0  0
   -0.9306    0.9070    4.7348 H   0  0  0  0  0  0  0  0  0  0  0  0
   -0.1854   -0.2665    2.6643 H   0  0  0  0  0  0  0  0  0  0  0  0
   -0.5362    1.4100    2.3170 H   0  0  0  0  0  0  0  0  0  0  0  0
    1.5950    0.7782    1.2583 H   0  0  0  0  0  0  0  0  0  0  0  0
    1.3805    3.0979    2.0810 H   0  0  0  0  0  0  0  0  0  0  0  0
    3.0217    2.5851    2.2442 H   0  0  0  0  0  0  0  0  0  0  0  0
    4.7352   -2.3202    2.6434 H   0  0  0  0  0  0  0  0  0  0  0  0
    6.4639   -1.1451    1.2501 H   0  0  0  0  0  0  0  0  0  0  0  0
    6.8746   -2.8198    1.4930 H   0  0  0  0  0  0  0  0  0  0  0  0
    7.1801   -2.1979   -0.8900 H   0  0  0  0  0  0  0  0  0  0  0  0
    5.8380   -4.0230   -1.8996 H   0  0  0  0  0  0  0  0  0  0  0  0
    6.5111   -4.5219   -0.3589 H   0  0  0  0  0  0  0  0  0  0  0  0
    4.1145   -5.1422   -0.5425 H   0  0  0  0  0  0  0  0  0  0  0  0
    5.0364   -4.5932    1.7141 H   0  0  0  0  0  0  0  0  0  0  0  0
    3.3586   -4.1448    1.6128 H   0  0  0  0  0  0  0  0  0  0  0  0
    3.3969   -3.3066   -2.0598 H   0  0  0  0  0  0  0  0  0  0  0  0
    2.3671   -3.3798   -0.6506 H   0  0  0  0  0  0  0  0  0  0  0  0
    3.0259   -1.0312   -1.1278 H   0  0  0  0  0  0  0  0  0  0  0  0
    5.4648   -0.3842   -0.9701 H   0  0  0  0  0  0  0  0  0  0  0  0
    5.2018   -1.5397   -2.2586 H   0  0  0  0  0  0  0  0  0  0  0  0
  1  6  1  0
  1  2  1  0
  1 25  1  0
  1 26  1  0
  2  9  1  0
  2  3  1  0
  2 27  1  6
  3  4  1  0
  3 28  1  0
  3 29  1  0
  4 10  1  0
  4  5  1  0
  4 30  1  1
  5  6  1  0
  5 31  1  0
  5 32  1  0
  6  7  1  0
  6 33  1  1
  7  8  1  0
  7 34  1  0
  7 35  1  0
  8  9  1  0
  8 10  1  0
  8 36  1  6
  9 37  1  0
  9 38  1  0
 10 15  1  0
 10 11  1  0
 11 12  1  0
 12 13  1  0
 13 23  1  0
 13 14  1  0
 13 16  1  0
 14 15  1  0
 16 21  1  0
 16 17  1  0
 16 39  1  1
 17 18  1  0
 17 40  1  0
 17 41  1  0
 18 24  1  0
 18 19  1  0
 18 42  1  6
 19 20  1  0
 19 43  1  0
 19 44  1  0
 20 21  1  0
 20 22  1  0
 20 45  1  1
 21 46  1  0
 21 47  1  0
 22 23  1  0
 22 48  1  0
 22 49  1  0
 23 24  1  0
 23 50  1  6
 24 51  1  0
 24 52  1  0
M  END
>  <i_m_ct_stereo_status>  (60) 
1

>  <s_m_source_file>  (60) 
/var/tmp/pbs.5076255.sched01/tmpu3exd1vk/0t_9me_9p.sdf

>  <i_m_source_file_index>  (60) 
27

>  <i_lp_mmshare_version>  (60) 
48012

>  <i_f3d_flags>  (60) 
0

>  <s_epik_input>  (60) 
W0NIMl0xW0NASF0yW0NIMl1bQ0BIXShbQ0gyXTMpW0NIMl1bQ0BASF0xW0NIMl1bQ0BIXTNDMjRPT0M1KE9PNClbQ0BIXTZbQ0gyXVtDQEBIXTdbQ0gyXVtDQEhdKFtDSDJdNilbQ0gyXVtDQEhdNVtDSDJdNw==

>  <s_epik_cmdline>  (60) 
J2VwaWtfcHl0aG9uJywgJy1waHQnLCAnMi4wJywgJy1waCcsICc3LjAnLCAnLXRuJywgJzgnLCAnLW1hJywgJzIwMCcsICctaW1hZScsICc8aW5maWxlLm1hZT4nLCAnLW9tYWUnLCAnPG91dGZpbGUubWFlPic=

>  <r_lp_tautomer_probability>  (60) 
1

>  <r_epik_Ionization_Penalty>  (60) 
0

>  <r_epik_Ionization_Penalty_Charging>  (60) 
0

>  <r_epik_Ionization_Penalty_Neutral>  (60) 
0

>  <r_epik_State_Penalty>  (60) 
-0

>  <r_epik_Charging_Adjusted_Penalty>  (60) 
0

>  <i_epik_Tot_Q>  (60) 
0

>  <i_epik_Tot_abs_Q>  (60) 
0

>  <s_lp_Force_Field>  (60) 
OPLS3e

>  <r_lp_Energy>  (60) 
-4.94424

>  <b_lp_Chiralities_Consistent>  (60) 
1

>  <s_lp_Variant>  (60) 
20:0-1

>  <s_i_glide_gridfile>  (60) 
pfpi4k_grid

>  <i_i_glide_lignum>  (60) 
27

>  <i_i_glide_rotatable_bonds>  (60) 
0

>  <r_i_docking_score>  (60) 
-2.67691

>  <r_i_glide_ligand_efficiency>  (60) 
-0.111538

>  <r_i_glide_ligand_efficiency_sa>  (60) 
-0.321731

>  <r_i_glide_ligand_efficiency_ln>  (60) 
-0.640707

>  <r_i_glide_gscore>  (60) 
-2.67691

>  <r_i_glide_lipo>  (60) 
-0.230696

>  <r_i_glide_hbond>  (60) 
0

>  <r_i_glide_metal>  (60) 
-0

>  <r_i_glide_rewards>  (60) 
-1.1425

>  <r_i_glide_evdw>  (60) 
-25.5451

>  <r_i_glide_ecoul>  (60) 
0.0774784

>  <r_i_glide_erotb>  (60) 
0

>  <r_i_glide_esite>  (60) 
-0.0380873

>  <r_i_glide_emodel>  (60) 
-29.7905

>  <r_i_glide_energy>  (60) 
-25.4676

>  <r_i_glide_einternal>  (60) 
0

>  <r_i_glide_intrahb_reward>  (60) 
-0

>  <i_i_glide_confnum>  (60) 
4

>  <i_i_glide_posenum>  (60) 
10

>  <r_i_glide_eff_state_penalty>  (60) 
0

>  <ligand_id>  (60) 
20

>  <original_smiles>  (60) 
C1C2CC3CC1CC(C2)C31OOC2(OO1)C1CC3CC(C1)CC2C3

>  <smiles>  (60) 
[H]C1([H])C2([H])C([H])([H])C3([H])C([H])([H])C1([H])C([H])([H])C([H])(C2([H])[H])C31OOC2(OO1)C1([H])C([H])([H])C3([H])C([H])([H])C([H])(C1([H])[H])C([H])([H])C2([H])C3([H])[H]

$$$$
21:0:0
     RDKit          3D

 88 95  0  0  1  0  0  0  0  0999 V2000
   -1.6723   -9.1638    2.7509 C   0  0  0  0  0  0  0  0  0  0  0  0
   -0.5468   -8.1952    3.0201 C   0  0  0  0  0  0  0  0  0  0  0  0
   -0.7182   -7.0645    3.7208 C   0  0  0  0  0  0  0  0  0  0  0  0
    0.3792   -6.0454    3.9886 C   0  0  1  0  0  0  0  0  0  0  0  0
    0.5894   -5.9547    5.5050 C   0  0  0  0  0  0  0  0  0  0  0  0
    1.8966   -5.2531    5.8850 C   0  0  0  0  0  0  0  0  0  0  0  0
    3.1456   -5.8082    5.1260 C   0  0  1  0  0  0  0  0  0  0  0  0
    4.4225   -5.1401    5.7885 C   0  0  1  0  0  0  0  0  0  0  0  0
    4.3734   -3.7310    5.9162 O   0  0  0  0  0  0  0  0  0  0  0  0
    4.7629   -5.7293    7.1619 C   0  0  0  0  0  0  0  0  0  0  0  0
    4.7713   -5.0727    8.1998 O   0  0  0  0  0  0  0  0  0  0  0  0
    5.0930   -7.2095    7.1609 C   0  0  0  0  0  0  0  0  0  0  0  0
    4.6277   -7.9224    5.8719 C   0  0  1  0  0  0  0  0  0  0  0  0
    4.7080   -9.4407    6.1596 C   0  0  0  0  0  0  0  0  0  0  0  0
    3.2251   -7.3946    5.3875 C   0  0  2  0  0  0  0  0  0  0  0  0
    2.5122   -8.3596    4.3601 C   0  0  1  0  0  0  0  0  0  0  0  0
    1.4962   -9.0477    5.0753 O   0  0  0  0  0  0  0  0  0  0  0  0
    2.0216   -7.7916    2.9753 C   0  0  2  0  0  0  0  0  0  0  0  0
    3.1530   -8.0051    1.9049 C   0  0  0  0  0  0  0  0  0  0  0  0
    3.9700   -6.7584    1.5426 C   0  0  0  0  0  0  0  0  0  0  0  0
    4.2643   -5.8884    2.7787 C   0  0  1  0  0  0  0  0  0  0  0  0
    5.2625   -4.7084    2.5040 C   0  0  1  0  0  0  0  0  0  0  0  0
    6.5632   -5.1313    1.8081 C   0  0  0  0  0  0  0  0  0  0  0  0
    6.4813   -4.5986    0.3792 C   0  0  0  0  0  0  0  0  0  0  0  0
    5.1485   -3.8438    0.2139 C   0  0  2  0  0  0  0  0  0  0  0  0
    5.1759   -2.6511   -0.8054 C   0  0  0  0  0  0  0  0  0  0  0  0
    5.8218   -3.0780   -2.1426 C   0  0  0  0  0  0  0  0  0  0  0  0
    3.7438   -2.1731   -1.1561 C   0  0  0  0  0  0  0  0  0  0  0  0
    5.9732   -1.4742   -0.2143 C   0  0  0  0  0  0  0  0  0  0  0  0
    5.4569   -1.0457    1.1584 C   0  0  0  0  0  0  0  0  0  0  0  0
    5.4602   -2.2156    2.1482 C   0  0  0  0  0  0  0  0  0  0  0  0
    4.7256   -3.5126    1.6779 C   0  0  2  0  0  0  0  0  0  0  0  0
    3.1915   -3.4127    1.8815 C   0  0  0  0  0  0  0  0  0  0  0  0
    2.7079   -3.9301    3.2590 C   0  0  0  0  0  0  0  0  0  0  0  0
    2.9596   -5.4632    3.5694 C   0  0  2  0  0  0  0  0  0  0  0  0
    1.6686   -6.2834    3.1166 C   0  0  2  0  0  0  0  0  0  0  0  0
    1.2188   -5.8577    1.8316 O   0  0  0  0  0  0  0  0  0  0  0  0
    0.7923   -8.5895    2.4309 C   0  0  0  0  0  0  0  0  0  0  0  0
   -1.8074   -9.3482    1.6828 H   0  0  0  0  0  0  0  0  0  0  0  0
   -2.6002   -8.7852    3.1680 H   0  0  0  0  0  0  0  0  0  0  0  0
   -1.4480  -10.1150    3.2351 H   0  0  0  0  0  0  0  0  0  0  0  0
   -1.6907   -6.8330    4.1309 H   0  0  0  0  0  0  0  0  0  0  0  0
   -0.0453   -5.0881    3.6970 H   0  0  0  0  0  0  0  0  0  0  0  0
   -0.2502   -5.4102    5.9431 H   0  0  0  0  0  0  0  0  0  0  0  0
    0.5507   -6.9451    5.9673 H   0  0  0  0  0  0  0  0  0  0  0  0
    1.7734   -4.1852    5.7005 H   0  0  0  0  0  0  0  0  0  0  0  0
    2.0232   -5.3311    6.9674 H   0  0  0  0  0  0  0  0  0  0  0  0
    5.2976   -5.3755    5.1914 H   0  0  0  0  0  0  0  0  0  0  0  0
    4.2596   -3.3495    5.0607 H   0  0  0  0  0  0  0  0  0  0  0  0
    6.1673   -7.3267    7.2914 H   0  0  0  0  0  0  0  0  0  0  0  0
    4.6181   -7.6542    8.0332 H   0  0  0  0  0  0  0  0  0  0  0  0
    5.3687   -7.7229    5.1021 H   0  0  0  0  0  0  0  0  0  0  0  0
    3.8765   -9.7760    6.7850 H   0  0  0  0  0  0  0  0  0  0  0  0
    5.6354   -9.6831    6.6847 H   0  0  0  0  0  0  0  0  0  0  0  0
    4.7208  -10.0414    5.2484 H   0  0  0  0  0  0  0  0  0  0  0  0
    2.6634   -7.5338    6.3144 H   0  0  0  0  0  0  0  0  0  0  0  0
    3.1803   -9.1800    4.1267 H   0  0  0  0  0  0  0  0  0  0  0  0
    1.2600   -9.8343    4.6060 H   0  0  0  0  0  0  0  0  0  0  0  0
    3.8458   -8.7877    2.2152 H   0  0  0  0  0  0  0  0  0  0  0  0
    2.7474   -8.3975    0.9697 H   0  0  0  0  0  0  0  0  0  0  0  0
    4.8912   -7.0920    1.0680 H   0  0  0  0  0  0  0  0  0  0  0  0
    3.4465   -6.1874    0.7793 H   0  0  0  0  0  0  0  0  0  0  0  0
    4.8299   -6.5612    3.4161 H   0  0  0  0  0  0  0  0  0  0  0  0
    5.5539   -4.3141    3.4713 H   0  0  0  0  0  0  0  0  0  0  0  0
    7.4129   -4.6563    2.2968 H   0  0  0  0  0  0  0  0  0  0  0  0
    6.7535   -6.2058    1.8600 H   0  0  0  0  0  0  0  0  0  0  0  0
    7.3485   -3.9685    0.1867 H   0  0  0  0  0  0  0  0  0  0  0  0
    6.5188   -5.4367   -0.3121 H   0  0  0  0  0  0  0  0  0  0  0  0
    4.4444   -4.5705   -0.1879 H   0  0  0  0  0  0  0  0  0  0  0  0
    5.7770   -2.2644   -2.8665 H   0  0  0  0  0  0  0  0  0  0  0  0
    5.3044   -3.9357   -2.5747 H   0  0  0  0  0  0  0  0  0  0  0  0
    6.8720   -3.3443   -2.0271 H   0  0  0  0  0  0  0  0  0  0  0  0
    3.7676   -1.3805   -1.9089 H   0  0  0  0  0  0  0  0  0  0  0  0
    3.2052   -1.7602   -0.3021 H   0  0  0  0  0  0  0  0  0  0  0  0
    3.1340   -2.9871   -1.5549 H   0  0  0  0  0  0  0  0  0  0  0  0
    7.0216   -1.7497   -0.1229 H   0  0  0  0  0  0  0  0  0  0  0  0
    5.9367   -0.6289   -0.8963 H   0  0  0  0  0  0  0  0  0  0  0  0
    6.1086   -0.2621    1.5412 H   0  0  0  0  0  0  0  0  0  0  0  0
    4.4668   -0.6043    1.0871 H   0  0  0  0  0  0  0  0  0  0  0  0
    6.5069   -2.4512    2.3214 H   0  0  0  0  0  0  0  0  0  0  0  0
    5.0815   -1.8774    3.1120 H   0  0  0  0  0  0  0  0  0  0  0  0
    2.8764   -2.3749    1.7980 H   0  0  0  0  0  0  0  0  0  0  0  0
    2.6594   -3.9213    1.0825 H   0  0  0  0  0  0  0  0  0  0  0  0
    3.1699   -3.2634    3.9689 H   0  0  0  0  0  0  0  0  0  0  0  0
    1.6544   -3.6825    3.3616 H   0  0  0  0  0  0  0  0  0  0  0  0
    1.9138   -6.0496    1.2202 H   0  0  0  0  0  0  0  0  0  0  0  0
    0.9519   -9.6644    2.5327 H   0  0  0  0  0  0  0  0  0  0  0  0
    0.6648   -8.3989    1.3653 H   0  0  0  0  0  0  0  0  0  0  0  0
  1  2  1  0
  1 39  1  0
  1 40  1  0
  1 41  1  0
  2 38  1  0
  2  3  2  0
  3  4  1  0
  3 42  1  0
  4 36  1  0
  4  5  1  0
  4 43  1  6
  5  6  1  0
  5 44  1  0
  5 45  1  0
  7  6  1  1
  6 46  1  0
  6 47  1  0
  7 15  1  0
  7 35  1  0
  7  8  1  0
  8  9  1  0
  8 10  1  0
  8 48  1  6
  9 49  1  0
 10 11  2  0
 10 12  1  0
 12 13  1  0
 12 50  1  0
 12 51  1  0
 13 14  1  0
 13 15  1  0
 13 52  1  6
 14 53  1  0
 14 54  1  0
 14 55  1  0
 15 16  1  0
 15 56  1  1
 16 17  1  0
 16 18  1  0
 16 57  1  6
 17 58  1  0
 18 36  1  0
 18 19  1  6
 18 38  1  0
 19 20  1  0
 19 59  1  0
 19 60  1  0
 20 21  1  0
 20 61  1  0
 20 62  1  0
 21 35  1  0
 21 22  1  0
 21 63  1  1
 22 32  1  0
 22 23  1  0
 22 64  1  1
 23 24  1  0
 23 65  1  0
 23 66  1  0
 24 25  1  0
 24 67  1  0
 24 68  1  0
 25 32  1  0
 25 26  1  0
 25 69  1  6
 26 27  1  0
 26 28  1  0
 26 29  1  0
 27 70  1  0
 27 71  1  0
 27 72  1  0
 28 73  1  0
 28 74  1  0
 28 75  1  0
 29 30  1  0
 29 76  1  0
 29 77  1  0
 30 31  1  0
 30 78  1  0
 30 79  1  0
 32 31  1  1
 31 80  1  0
 31 81  1  0
 32 33  1  0
 33 34  1  0
 33 82  1  0
 33 83  1  0
 35 34  1  1
 34 84  1  0
 34 85  1  0
 35 36  1  0
 36 37  1  6
 37 86  1  0
 38 87  1  0
 38 88  1  0
M  END
>  <i_m_ct_stereo_status>  (61) 
1

>  <s_m_source_file>  (61) 
/var/tmp/pbs.5076255.sched01/tmpu3exd1vk/0t_9me_9p.sdf

>  <i_m_source_file_index>  (61) 
28

>  <i_lp_mmshare_version>  (61) 
48012

>  <i_f3d_flags>  (61) 
0

>  <s_epik_input>  (61) 
W09IXVtDQEhdMUMoPU8pW0NIMl1bQ0BASF0oW0NIM10pW0NAQEhdMltDQEBIXShbT0hdKVtDQEBdMyhbQ0BAXTQoW09IXSlbQ0BIXShbQ0gyXVtDSDJdNSlbQ0hdPUMoW0NIM10pW0NIMl0zKVtDSDJdW0NIMl1bQ0BIXShbQ0BdNDZbQ0BdMTI1KVtDQEBIXTdbQ0BdOChbQ0gyXVtDSDJdNilbQ0BIXShbQ0gyXVtDSDJdNylDKFtDSDNdKShbQ0gzXSlbQ0gyXVtDSDJdW0NIMl04

>  <s_epik_cmdline>  (61) 
J2VwaWtfcHl0aG9uJywgJy1waHQnLCAnMi4wJywgJy1waCcsICc3LjAnLCAnLXRuJywgJzgnLCAnLW1hJywgJzIwMCcsICctaW1hZScsICc8aW5maWxlLm1hZT4nLCAnLW9tYWUnLCAnPG91dGZpbGUubWFlPic=

>  <r_lp_tautomer_probability>  (61) 
1

>  <r_epik_Ionization_Penalty>  (61) 
2.02937e-06

>  <r_epik_Ionization_Penalty_Charging>  (61) 
0

>  <r_epik_Ionization_Penalty_Neutral>  (61) 
2.02937e-06

>  <r_epik_State_Penalty>  (61) 
-0

>  <r_epik_Charging_Adjusted_Penalty>  (61) 
0

>  <i_epik_Tot_Q>  (61) 
0

>  <i_epik_Tot_abs_Q>  (61) 
0

>  <s_lp_Force_Field>  (61) 
OPLS3e

>  <r_lp_Energy>  (61) 
134.683

>  <b_lp_Chiralities_Consistent>  (61) 
1

>  <s_lp_Variant>  (61) 
21:0-1

>  <s_i_glide_gridfile>  (61) 
pfpi4k_grid

>  <i_i_glide_lignum>  (61) 
28

>  <i_i_glide_rotatable_bonds>  (61) 
3

>  <r_i_docking_score>  (61) 
-2.84734

>  <r_i_glide_ligand_efficiency>  (61) 
-0.0749301

>  <r_i_glide_ligand_efficiency_sa>  (61) 
-0.251913

>  <r_i_glide_ligand_efficiency_ln>  (61) 
-0.613971

>  <r_i_glide_gscore>  (61) 
-2.84734

>  <r_i_glide_lipo>  (61) 
-0.714435

>  <r_i_glide_hbond>  (61) 
-0.10652

>  <r_i_glide_metal>  (61) 
-0

>  <r_i_glide_rewards>  (61) 
0

>  <r_i_glide_evdw>  (61) 
-32.2731

>  <r_i_glide_ecoul>  (61) 
-2.75154

>  <r_i_glide_erotb>  (61) 
0

>  <r_i_glide_esite>  (61) 
0

>  <r_i_glide_emodel>  (61) 
-40.9575

>  <r_i_glide_energy>  (61) 
-35.0246

>  <r_i_glide_einternal>  (61) 
0.419775

>  <r_i_glide_intrahb_reward>  (61) 
-0

>  <i_i_glide_confnum>  (61) 
2

>  <i_i_glide_posenum>  (61) 
14

>  <r_i_glide_eff_state_penalty>  (61) 
0

>  <ligand_id>  (61) 
21

>  <original_smiles>  (61) 
CC1=CC2CCC34C(O)C(=O)CC(C)C3C(O)C3(CCC5C6CCC7C(C)(C)CCCC67CCC54C23O)C1

>  <smiles>  (61) 
[H]OC1([H])C(=O)C([H])([H])C([H])(C([H])([H])[H])C2([H])C([H])(O[H])C34C([H])([H])C(C([H])([H])[H])=C([H])C5([H])C([H])([H])C([H])([H])C12C1(C([H])([H])C([H])([H])C26C([H])([H])C([H])([H])C([H])([H])C(C([H])([H])[H])(C([H])([H])[H])C2([H])C([H])([H])C([H])([H])C6([H])C1([H])C([H])([H])C3([H])[H])C54O[H]

$$$$
21:0:1
     RDKit          3D

 88 95  0  0  1  0  0  0  0  0999 V2000
   -0.9034   -9.7397    2.8313 C   0  0  0  0  0  0  0  0  0  0  0  0
    0.0204   -8.5540    3.0007 C   0  0  0  0  0  0  0  0  0  0  0  0
   -0.3823   -7.4040    3.5684 C   0  0  0  0  0  0  0  0  0  0  0  0
    0.5010   -6.1789    3.7452 C   0  0  1  0  0  0  0  0  0  0  0  0
    0.6338   -5.8834    5.2443 C   0  0  0  0  0  0  0  0  0  0  0  0
    1.7717   -4.9102    5.5631 C   0  0  0  0  0  0  0  0  0  0  0  0
    3.1283   -5.2969    4.8925 C   0  0  1  0  0  0  0  0  0  0  0  0
    4.2359   -4.3335    5.4976 C   0  0  1  0  0  0  0  0  0  0  0  0
    3.9260   -2.9504    5.4669 O   0  0  0  0  0  0  0  0  0  0  0  0
    4.6296   -4.7009    6.9308 C   0  0  0  0  0  0  0  0  0  0  0  0
    4.4774   -3.9493    7.8943 O   0  0  0  0  0  0  0  0  0  0  0  0
    5.2306   -6.0859    7.0994 C   0  0  0  0  0  0  0  0  0  0  0  0
    4.9514   -7.0045    5.8888 C   0  0  1  0  0  0  0  0  0  0  0  0
    5.3019   -8.4414    6.3414 C   0  0  0  0  0  0  0  0  0  0  0  0
    3.4945   -6.8025    5.3289 C   0  0  2  0  0  0  0  0  0  0  0  0
    3.0072   -7.9880    4.4033 C   0  0  1  0  0  0  0  0  0  0  0  0
    2.1092   -8.7865    5.1609 O   0  0  0  0  0  0  0  0  0  0  0  0
    2.4719   -7.6740    2.9513 C   0  0  2  0  0  0  0  0  0  0  0  0
    3.6607   -7.7788    1.9305 C   0  0  0  0  0  0  0  0  0  0  0  0
    4.2457   -6.4450    1.4493 C   0  0  0  0  0  0  0  0  0  0  0  0
    4.3281   -5.4094    2.5858 C   0  0  1  0  0  0  0  0  0  0  0  0
    5.0978   -4.0980    2.2003 C   0  0  1  0  0  0  0  0  0  0  0  0
    6.4751   -4.3358    1.5745 C   0  0  0  0  0  0  0  0  0  0  0  0
    6.3543   -3.9830    0.0929 C   0  0  0  0  0  0  0  0  0  0  0  0
    4.9125   -3.5126   -0.1713 C   0  0  2  0  0  0  0  0  0  0  0  0
    4.7538   -2.4581   -1.3202 C   0  0  0  0  0  0  0  0  0  0  0  0
    5.5187   -2.8980   -2.5876 C   0  0  0  0  0  0  0  0  0  0  0  0
    3.2795   -2.3031   -1.7508 C   0  0  0  0  0  0  0  0  0  0  0  0
    5.2976   -1.0921   -0.8468 C   0  0  0  0  0  0  0  0  0  0  0  0
    4.6630   -0.6293    0.4660 C   0  0  0  0  0  0  0  0  0  0  0  0
    4.8572   -1.6619    1.5814 C   0  0  0  0  0  0  0  0  0  0  0  0
    4.3815   -3.1158    1.2397 C   0  0  2  0  0  0  0  0  0  0  0  0
    2.8496   -3.2824    1.4087 C   0  0  0  0  0  0  0  0  0  0  0  0
    2.4201   -3.7366    2.8256 C   0  0  0  0  0  0  0  0  0  0  0  0
    2.9379   -5.1557    3.3046 C   0  0  2  0  0  0  0  0  0  0  0  0
    1.8384   -6.2508    2.9198 C   0  0  2  0  0  0  0  0  0  0  0  0
    1.3633   -6.0274    1.5915 O   0  0  0  0  0  0  0  0  0  0  0  0
    1.4310   -8.7436    2.4763 C   0  0  0  0  0  0  0  0  0  0  0  0
   -0.9641  -10.0587    1.7891 H   0  0  0  0  0  0  0  0  0  0  0  0
   -1.9113   -9.5121    3.1788 H   0  0  0  0  0  0  0  0  0  0  0  0
   -0.5348  -10.5805    3.4220 H   0  0  0  0  0  0  0  0  0  0  0  0
   -1.3940   -7.3220    3.9327 H   0  0  0  0  0  0  0  0  0  0  0  0
   -0.0866   -5.3629    3.3419 H   0  0  0  0  0  0  0  0  0  0  0  0
   -0.3077   -5.4647    5.6034 H   0  0  0  0  0  0  0  0  0  0  0  0
    0.7614   -6.8051    5.8137 H   0  0  0  0  0  0  0  0  0  0  0  0
    1.4607   -3.9091    5.2613 H   0  0  0  0  0  0  0  0  0  0  0  0
    1.8706   -4.8483    6.6489 H   0  0  0  0  0  0  0  0  0  0  0  0
    5.1627   -4.4616    4.9436 H   0  0  0  0  0  0  0  0  0  0  0  0
    3.7841   -2.6904    4.5718 H   0  0  0  0  0  0  0  0  0  0  0  0
    6.3023   -5.9814    7.2595 H   0  0  0  0  0  0  0  0  0  0  0  0
    4.8140   -6.5161    8.0095 H   0  0  0  0  0  0  0  0  0  0  0  0
    5.6706   -6.7510    5.1133 H   0  0  0  0  0  0  0  0  0  0  0  0
    4.5317   -8.8601    6.9913 H   0  0  0  0  0  0  0  0  0  0  0  0
    6.2393   -8.4497    6.9005 H   0  0  0  0  0  0  0  0  0  0  0  0
    5.4560   -9.1199    5.5033 H   0  0  0  0  0  0  0  0  0  0  0  0
    2.9372   -6.9400    6.2570 H   0  0  0  0  0  0  0  0  0  0  0  0
    3.8209   -8.6915    4.2656 H   0  0  0  0  0  0  0  0  0  0  0  0
    2.5909   -9.2454    5.8344 H   0  0  0  0  0  0  0  0  0  0  0  0
    4.4717   -8.3830    2.3308 H   0  0  0  0  0  0  0  0  0  0  0  0
    3.3676   -8.3257    1.0330 H   0  0  0  0  0  0  0  0  0  0  0  0
    5.2301   -6.6470    1.0274 H   0  0  0  0  0  0  0  0  0  0  0  0
    3.6545   -6.0657    0.6186 H   0  0  0  0  0  0  0  0  0  0  0  0
    4.9846   -5.8938    3.2996 H   0  0  0  0  0  0  0  0  0  0  0  0
    5.2766   -3.5600    3.1247 H   0  0  0  0  0  0  0  0  0  0  0  0
    7.1921   -3.6523    2.0227 H   0  0  0  0  0  0  0  0  0  0  0  0
    6.8645   -5.3407    1.7460 H   0  0  0  0  0  0  0  0  0  0  0  0
    7.0986   -3.2245   -0.1542 H   0  0  0  0  0  0  0  0  0  0  0  0
    6.5653   -4.8650   -0.4927 H   0  0  0  0  0  0  0  0  0  0  0  0
    4.3711   -4.3971   -0.5035 H   0  0  0  0  0  0  0  0  0  0  0  0
    5.3465   -2.1908   -3.3987 H   0  0  0  0  0  0  0  0  0  0  0  0
    5.1854   -3.8765   -2.9367 H   0  0  0  0  0  0  0  0  0  0  0  0
    6.5956   -2.9432   -2.4299 H   0  0  0  0  0  0  0  0  0  0  0  0
    3.1771   -1.5964   -2.5786 H   0  0  0  0  0  0  0  0  0  0  0  0
    2.6550   -1.9193   -0.9474 H   0  0  0  0  0  0  0  0  0  0  0  0
    2.8433   -3.2532   -2.0674 H   0  0  0  0  0  0  0  0  0  0  0  0
    6.3726   -1.1632   -0.7004 H   0  0  0  0  0  0  0  0  0  0  0  0
    5.1510   -0.3388   -1.6217 H   0  0  0  0  0  0  0  0  0  0  0  0
    5.1299    0.3084    0.7629 H   0  0  0  0  0  0  0  0  0  0  0  0
    3.6103   -0.4026    0.3341 H   0  0  0  0  0  0  0  0  0  0  0  0
    5.9227   -1.6732    1.8100 H   0  0  0  0  0  0  0  0  0  0  0  0
    4.3800   -1.3049    2.4919 H   0  0  0  0  0  0  0  0  0  0  0  0
    2.3509   -2.3395    1.1985 H   0  0  0  0  0  0  0  0  0  0  0  0
    2.4589   -3.9678    0.6604 H   0  0  0  0  0  0  0  0  0  0  0  0
    2.7285   -2.9276    3.4663 H   0  0  0  0  0  0  0  0  0  0  0  0
    1.3365   -3.6838    2.8843 H   0  0  0  0  0  0  0  0  0  0  0  0
    2.0916   -6.1907    1.0109 H   0  0  0  0  0  0  0  0  0  0  0  0
    1.7844   -9.7495    2.7067 H   0  0  0  0  0  0  0  0  0  0  0  0
    1.3136   -8.7055    1.3930 H   0  0  0  0  0  0  0  0  0  0  0  0
  1  2  1  0
  1 39  1  0
  1 40  1  0
  1 41  1  0
  2 38  1  0
  2  3  2  0
  3  4  1  0
  3 42  1  0
  4 36  1  0
  4  5  1  0
  4 43  1  6
  5  6  1  0
  5 44  1  0
  5 45  1  0
  7  6  1  1
  6 46  1  0
  6 47  1  0
  7 15  1  0
  7 35  1  0
  7  8  1  0
  8  9  1  0
  8 10  1  0
  8 48  1  6
  9 49  1  0
 10 11  2  0
 10 12  1  0
 12 13  1  0
 12 50  1  0
 12 51  1  0
 13 14  1  0
 13 15  1  0
 13 52  1  6
 14 53  1  0
 14 54  1  0
 14 55  1  0
 15 16  1  0
 15 56  1  1
 16 17  1  0
 16 18  1  0
 16 57  1  6
 17 58  1  0
 18 36  1  0
 18 19  1  6
 18 38  1  0
 19 20  1  0
 19 59  1  0
 19 60  1  0
 20 21  1  0
 20 61  1  0
 20 62  1  0
 21 35  1  0
 21 22  1  0
 21 63  1  1
 22 32  1  0
 22 23  1  0
 22 64  1  1
 23 24  1  0
 23 65  1  0
 23 66  1  0
 24 25  1  0
 24 67  1  0
 24 68  1  0
 25 32  1  0
 25 26  1  0
 25 69  1  6
 26 27  1  0
 26 28  1  0
 26 29  1  0
 27 70  1  0
 27 71  1  0
 27 72  1  0
 28 73  1  0
 28 74  1  0
 28 75  1  0
 29 30  1  0
 29 76  1  0
 29 77  1  0
 30 31  1  0
 30 78  1  0
 30 79  1  0
 32 31  1  1
 31 80  1  0
 31 81  1  0
 32 33  1  0
 33 34  1  0
 33 82  1  0
 33 83  1  0
 35 34  1  1
 34 84  1  0
 34 85  1  0
 35 36  1  0
 36 37  1  6
 37 86  1  0
 38 87  1  0
 38 88  1  0
M  END
>  <i_m_ct_stereo_status>  (62) 
1

>  <s_m_source_file>  (62) 
/var/tmp/pbs.5076255.sched01/tmpu3exd1vk/0t_9me_9p.sdf

>  <i_m_source_file_index>  (62) 
28

>  <i_lp_mmshare_version>  (62) 
48012

>  <i_f3d_flags>  (62) 
0

>  <s_epik_input>  (62) 
W09IXVtDQEhdMUMoPU8pW0NIMl1bQ0BASF0oW0NIM10pW0NAQEhdMltDQEBIXShbT0hdKVtDQEBdMyhbQ0BAXTQoW09IXSlbQ0BIXShbQ0gyXVtDSDJdNSlbQ0hdPUMoW0NIM10pW0NIMl0zKVtDSDJdW0NIMl1bQ0BIXShbQ0BdNDZbQ0BdMTI1KVtDQEBIXTdbQ0BdOChbQ0gyXVtDSDJdNilbQ0BIXShbQ0gyXVtDSDJdNylDKFtDSDNdKShbQ0gzXSlbQ0gyXVtDSDJdW0NIMl04

>  <s_epik_cmdline>  (62) 
J2VwaWtfcHl0aG9uJywgJy1waHQnLCAnMi4wJywgJy1waCcsICc3LjAnLCAnLXRuJywgJzgnLCAnLW1hJywgJzIwMCcsICctaW1hZScsICc8aW5maWxlLm1hZT4nLCAnLW9tYWUnLCAnPG91dGZpbGUubWFlPic=

>  <r_lp_tautomer_probability>  (62) 
1

>  <r_epik_Ionization_Penalty>  (62) 
2.02937e-06

>  <r_epik_Ionization_Penalty_Charging>  (62) 
0

>  <r_epik_Ionization_Penalty_Neutral>  (62) 
2.02937e-06

>  <r_epik_State_Penalty>  (62) 
-0

>  <r_epik_Charging_Adjusted_Penalty>  (62) 
0

>  <i_epik_Tot_Q>  (62) 
0

>  <i_epik_Tot_abs_Q>  (62) 
0

>  <s_lp_Force_Field>  (62) 
OPLS3e

>  <r_lp_Energy>  (62) 
134.683

>  <b_lp_Chiralities_Consistent>  (62) 
1

>  <s_lp_Variant>  (62) 
21:0-1

>  <s_i_glide_gridfile>  (62) 
pfpi4k_grid

>  <i_i_glide_lignum>  (62) 
28

>  <i_i_glide_rotatable_bonds>  (62) 
3

>  <r_i_docking_score>  (62) 
-2.68659

>  <r_i_glide_ligand_efficiency>  (62) 
-0.0706997

>  <r_i_glide_ligand_efficiency_sa>  (62) 
-0.237691

>  <r_i_glide_ligand_efficiency_ln>  (62) 
-0.579308

>  <r_i_glide_gscore>  (62) 
-2.68659

>  <r_i_glide_lipo>  (62) 
-0.668773

>  <r_i_glide_hbond>  (62) 
-0.0927754

>  <r_i_glide_metal>  (62) 
-0

>  <r_i_glide_rewards>  (62) 
0

>  <r_i_glide_evdw>  (62) 
-30.9687

>  <r_i_glide_ecoul>  (62) 
-2.5107

>  <r_i_glide_erotb>  (62) 
0

>  <r_i_glide_esite>  (62) 
0

>  <r_i_glide_emodel>  (62) 
-38.982

>  <r_i_glide_energy>  (62) 
-33.4794

>  <r_i_glide_einternal>  (62) 
0.465454

>  <r_i_glide_intrahb_reward>  (62) 
-0

>  <i_i_glide_confnum>  (62) 
1

>  <i_i_glide_posenum>  (62) 
26

>  <r_i_glide_eff_state_penalty>  (62) 
0

>  <ligand_id>  (62) 
21

>  <original_smiles>  (62) 
CC1=CC2CCC34C(O)C(=O)CC(C)C3C(O)C3(CCC5C6CCC7C(C)(C)CCCC67CCC54C23O)C1

>  <smiles>  (62) 
[H]OC1([H])C(=O)C([H])([H])C([H])(C([H])([H])[H])C2([H])C([H])(O[H])C34C([H])([H])C(C([H])([H])[H])=C([H])C5([H])C([H])([H])C([H])([H])C12C1(C([H])([H])C([H])([H])C26C([H])([H])C([H])([H])C([H])([H])C(C([H])([H])[H])(C([H])([H])[H])C2([H])C([H])([H])C([H])([H])C6([H])C1([H])C([H])([H])C3([H])[H])C54O[H]

$$$$
21:0:2
     RDKit          3D

 88 95  0  0  1  0  0  0  0  0999 V2000
   -0.1683  -10.2479    2.8911 C   0  0  0  0  0  0  0  0  0  0  0  0
    0.5830   -8.9337    2.9750 C   0  0  0  0  0  0  0  0  0  0  0  0
    0.0141   -7.8078    3.4418 C   0  0  0  0  0  0  0  0  0  0  0  0
    0.7125   -6.4565    3.5290 C   0  0  1  0  0  0  0  0  0  0  0  0
    0.7707   -6.0364    5.0054 C   0  0  0  0  0  0  0  0  0  0  0  0
    1.7618   -4.8999    5.2692 C   0  0  0  0  0  0  0  0  0  0  0  0
    3.1760   -5.1485    4.6513 C   0  0  1  0  0  0  0  0  0  0  0  0
    4.1275   -4.0007    5.1941 C   0  0  1  0  0  0  0  0  0  0  0  0
    3.6366   -2.6792    5.0511 O   0  0  0  0  0  0  0  0  0  0  0  0
    4.5310   -4.2012    6.6572 C   0  0  0  0  0  0  0  0  0  0  0  0
    4.2564   -3.4055    7.5544 O   0  0  0  0  0  0  0  0  0  0  0  0
    5.3077   -5.4740    6.9409 C   0  0  0  0  0  0  0  0  0  0  0  0
    5.1853   -6.5116    5.8024 C   0  0  1  0  0  0  0  0  0  0  0  0
    5.7163   -7.8470    6.3723 C   0  0  0  0  0  0  0  0  0  0  0  0
    3.7280   -6.5548    5.2061 C   0  0  2  0  0  0  0  0  0  0  0  0
    3.4291   -7.8595    4.3650 C   0  0  1  0  0  0  0  0  0  0  0  0
    2.6339   -8.7055    5.1824 O   0  0  0  0  0  0  0  0  0  0  0  0
    2.8882   -7.7308    2.8867 C   0  0  2  0  0  0  0  0  0  0  0  0
    4.1070   -7.7519    1.8966 C   0  0  0  0  0  0  0  0  0  0  0  0
    4.5224   -6.3917    1.3229 C   0  0  0  0  0  0  0  0  0  0  0  0
    4.4393   -5.2721    2.3773 C   0  0  1  0  0  0  0  0  0  0  0  0
    5.0373   -3.9020    1.8986 C   0  0  1  0  0  0  0  0  0  0  0  0
    6.4469   -3.9897    1.3085 C   0  0  0  0  0  0  0  0  0  0  0  0
    6.3089   -3.7738   -0.1961 C   0  0  0  0  0  0  0  0  0  0  0  0
    4.8236   -3.5287   -0.5145 C   0  0  2  0  0  0  0  0  0  0  0  0
    4.5512   -2.5938   -1.7425 C   0  0  0  0  0  0  0  0  0  0  0  0
    5.3961   -3.0239   -2.9583 C   0  0  0  0  0  0  0  0  0  0  0  0
    3.0761   -2.6722   -2.2066 C   0  0  0  0  0  0  0  0  0  0  0  0
    4.9043   -1.1382   -1.3726 C   0  0  0  0  0  0  0  0  0  0  0  0
    4.1884   -0.6769   -0.1017 C   0  0  0  0  0  0  0  0  0  0  0  0
    4.4910   -1.5814    1.0925 C   0  0  0  0  0  0  0  0  0  0  0  0
    4.2183   -3.1029    0.8560 C   0  0  2  0  0  0  0  0  0  0  0  0
    2.7205   -3.4637    1.0186 C   0  0  0  0  0  0  0  0  0  0  0  0
    2.3239   -3.8583    2.4634 C   0  0  0  0  0  0  0  0  0  0  0  0
    3.0098   -5.1559    3.0550 C   0  0  2  0  0  0  0  0  0  0  0  0
    2.0728   -6.4098    2.7382 C   0  0  2  0  0  0  0  0  0  0  0  0
    1.6025   -6.3464    1.3927 O   0  0  0  0  0  0  0  0  0  0  0  0
    2.0138   -8.9677    2.4814 C   0  0  0  0  0  0  0  0  0  0  0  0
   -0.1470  -10.6501    1.8754 H   0  0  0  0  0  0  0  0  0  0  0  0
   -1.2074  -10.1104    3.1881 H   0  0  0  0  0  0  0  0  0  0  0  0
    0.2819  -10.9847    3.5627 H   0  0  0  0  0  0  0  0  0  0  0  0
   -1.0069   -7.8334    3.7865 H   0  0  0  0  0  0  0  0  0  0  0  0
    0.0247   -5.7636    3.0506 H   0  0  0  0  0  0  0  0  0  0  0  0
   -0.2264   -5.7256    5.3249 H   0  0  0  0  0  0  0  0  0  0  0  0
    1.0102   -6.8888    5.6444 H   0  0  0  0  0  0  0  0  0  0  0  0
    1.3273   -3.9751    4.8865 H   0  0  0  0  0  0  0  0  0  0  0  0
    1.8245   -4.7442    6.3495 H   0  0  0  0  0  0  0  0  0  0  0  0
    5.0754   -4.0434    4.6654 H   0  0  0  0  0  0  0  0  0  0  0  0
    3.5014   -2.5013    4.1343 H   0  0  0  0  0  0  0  0  0  0  0  0
    6.3513   -5.2124    7.1075 H   0  0  0  0  0  0  0  0  0  0  0  0
    4.9319   -5.8862    7.8761 H   0  0  0  0  0  0  0  0  0  0  0  0
    5.8820   -6.2210    5.0198 H   0  0  0  0  0  0  0  0  0  0  0  0
    4.9903   -8.3166    7.0382 H   0  0  0  0  0  0  0  0  0  0  0  0
    6.6310   -7.6842    6.9455 H   0  0  0  0  0  0  0  0  0  0  0  0
    5.9821   -8.5596    5.5927 H   0  0  0  0  0  0  0  0  0  0  0  0
    3.1710   -6.7026    6.1341 H   0  0  0  0  0  0  0  0  0  0  0  0
    4.3351   -8.4519    4.3014 H   0  0  0  0  0  0  0  0  0  0  0  0
    2.5989   -9.5703    4.7997 H   0  0  0  0  0  0  0  0  0  0  0  0
    4.9827   -8.2057    2.3572 H   0  0  0  0  0  0  0  0  0  0  0  0
    3.9141   -8.4017    1.0399 H   0  0  0  0  0  0  0  0  0  0  0  0
    5.5360   -6.4882    0.9322 H   0  0  0  0  0  0  0  0  0  0  0  0
    3.9043   -6.1597    0.4578 H   0  0  0  0  0  0  0  0  0  0  0  0
    5.1370   -5.6067    3.1365 H   0  0  0  0  0  0  0  0  0  0  0  0
    5.1162   -3.2760    2.7805 H   0  0  0  0  0  0  0  0  0  0  0  0
    7.0518   -3.1749    1.7013 H   0  0  0  0  0  0  0  0  0  0  0  0
    6.9661   -4.9131    1.5667 H   0  0  0  0  0  0  0  0  0  0  0  0
    6.9482   -2.9403   -0.4926 H   0  0  0  0  0  0  0  0  0  0  0  0
    6.6432   -4.6557   -0.7151 H   0  0  0  0  0  0  0  0  0  0  0  0
    4.4153   -4.5015   -0.7824 H   0  0  0  0  0  0  0  0  0  0  0  0
    5.1420   -2.4022   -3.8167 H   0  0  0  0  0  0  0  0  0  0  0  0
    5.2065   -4.0616   -3.2373 H   0  0  0  0  0  0  0  0  0  0  0  0
    6.4655   -2.9098   -2.7826 H   0  0  0  0  0  0  0  0  0  0  0  0
    2.9026   -2.0535   -3.0917 H   0  0  0  0  0  0  0  0  0  0  0  0
    2.3836   -2.3189   -1.4479 H   0  0  0  0  0  0  0  0  0  0  0  0
    2.7806   -3.6952   -2.4530 H   0  0  0  0  0  0  0  0  0  0  0  0
    5.9754   -1.0474   -1.2160 H   0  0  0  0  0  0  0  0  0  0  0  0
    4.6705   -0.4664   -2.1999 H   0  0  0  0  0  0  0  0  0  0  0  0
    4.4951    0.3407    0.1341 H   0  0  0  0  0  0  0  0  0  0  0  0
    3.1152   -0.6506   -0.2599 H   0  0  0  0  0  0  0  0  0  0  0  0
    5.5400   -1.4263    1.3410 H   0  0  0  0  0  0  0  0  0  0  0  0
    3.9382   -1.2209    1.9586 H   0  0  0  0  0  0  0  0  0  0  0  0
    2.1085   -2.6136    0.7311 H   0  0  0  0  0  0  0  0  0  0  0  0
    2.4380   -4.2476    0.3191 H   0  0  0  0  0  0  0  0  0  0  0  0
    2.5006   -2.9668    3.0412 H   0  0  0  0  0  0  0  0  0  0  0  0
    1.2444   -3.9524    2.5097 H   0  0  0  0  0  0  0  0  0  0  0  0
    2.3512   -6.4780    0.8312 H   0  0  0  0  0  0  0  0  0  0  0  0
    2.4979   -9.8949    2.7913 H   0  0  0  0  0  0  0  0  0  0  0  0
    1.9163   -9.0328    1.3964 H   0  0  0  0  0  0  0  0  0  0  0  0
  1  2  1  0
  1 39  1  0
  1 40  1  0
  1 41  1  0
  2 38  1  0
  2  3  2  0
  3  4  1  0
  3 42  1  0
  4 36  1  0
  4  5  1  0
  4 43  1  6
  5  6  1  0
  5 44  1  0
  5 45  1  0
  7  6  1  1
  6 46  1  0
  6 47  1  0
  7 15  1  0
  7 35  1  0
  7  8  1  0
  8  9  1  0
  8 10  1  0
  8 48  1  6
  9 49  1  0
 10 11  2  0
 10 12  1  0
 12 13  1  0
 12 50  1  0
 12 51  1  0
 13 14  1  0
 13 15  1  0
 13 52  1  6
 14 53  1  0
 14 54  1  0
 14 55  1  0
 15 16  1  0
 15 56  1  1
 16 17  1  0
 16 18  1  0
 16 57  1  6
 17 58  1  0
 18 36  1  0
 18 19  1  6
 18 38  1  0
 19 20  1  0
 19 59  1  0
 19 60  1  0
 20 21  1  0
 20 61  1  0
 20 62  1  0
 21 35  1  0
 21 22  1  0
 21 63  1  1
 22 32  1  0
 22 23  1  0
 22 64  1  1
 23 24  1  0
 23 65  1  0
 23 66  1  0
 24 25  1  0
 24 67  1  0
 24 68  1  0
 25 32  1  0
 25 26  1  0
 25 69  1  6
 26 27  1  0
 26 28  1  0
 26 29  1  0
 27 70  1  0
 27 71  1  0
 27 72  1  0
 28 73  1  0
 28 74  1  0
 28 75  1  0
 29 30  1  0
 29 76  1  0
 29 77  1  0
 30 31  1  0
 30 78  1  0
 30 79  1  0
 32 31  1  1
 31 80  1  0
 31 81  1  0
 32 33  1  0
 33 34  1  0
 33 82  1  0
 33 83  1  0
 35 34  1  6
 34 84  1  0
 34 85  1  0
 35 36  1  0
 36 37  1  6
 37 86  1  0
 38 87  1  0
 38 88  1  0
M  END
>  <i_m_ct_stereo_status>  (63) 
1

>  <s_m_source_file>  (63) 
/var/tmp/pbs.5076255.sched01/tmpu3exd1vk/0t_9me_9p.sdf

>  <i_m_source_file_index>  (63) 
28

>  <i_lp_mmshare_version>  (63) 
48012

>  <i_f3d_flags>  (63) 
0

>  <s_epik_input>  (63) 
W09IXVtDQEhdMUMoPU8pW0NIMl1bQ0BASF0oW0NIM10pW0NAQEhdMltDQEBIXShbT0hdKVtDQEBdMyhbQ0BAXTQoW09IXSlbQ0BIXShbQ0gyXVtDSDJdNSlbQ0hdPUMoW0NIM10pW0NIMl0zKVtDSDJdW0NIMl1bQ0BIXShbQ0BdNDZbQ0BdMTI1KVtDQEBIXTdbQ0BdOChbQ0gyXVtDSDJdNilbQ0BIXShbQ0gyXVtDSDJdNylDKFtDSDNdKShbQ0gzXSlbQ0gyXVtDSDJdW0NIMl04

>  <s_epik_cmdline>  (63) 
J2VwaWtfcHl0aG9uJywgJy1waHQnLCAnMi4wJywgJy1waCcsICc3LjAnLCAnLXRuJywgJzgnLCAnLW1hJywgJzIwMCcsICctaW1hZScsICc8aW5maWxlLm1hZT4nLCAnLW9tYWUnLCAnPG91dGZpbGUubWFlPic=

>  <r_lp_tautomer_probability>  (63) 
1

>  <r_epik_Ionization_Penalty>  (63) 
2.02937e-06

>  <r_epik_Ionization_Penalty_Charging>  (63) 
0

>  <r_epik_Ionization_Penalty_Neutral>  (63) 
2.02937e-06

>  <r_epik_State_Penalty>  (63) 
-0

>  <r_epik_Charging_Adjusted_Penalty>  (63) 
0

>  <i_epik_Tot_Q>  (63) 
0

>  <i_epik_Tot_abs_Q>  (63) 
0

>  <s_lp_Force_Field>  (63) 
OPLS3e

>  <r_lp_Energy>  (63) 
134.683

>  <b_lp_Chiralities_Consistent>  (63) 
1

>  <s_lp_Variant>  (63) 
21:0-1

>  <s_i_glide_gridfile>  (63) 
pfpi4k_grid

>  <i_i_glide_lignum>  (63) 
28

>  <i_i_glide_rotatable_bonds>  (63) 
3

>  <r_i_docking_score>  (63) 
-2.52158

>  <r_i_glide_ligand_efficiency>  (63) 
-0.0663573

>  <r_i_glide_ligand_efficiency_sa>  (63) 
-0.223092

>  <r_i_glide_ligand_efficiency_ln>  (63) 
-0.543726

>  <r_i_glide_gscore>  (63) 
-2.52158

>  <r_i_glide_lipo>  (63) 
-0.535123

>  <r_i_glide_hbond>  (63) 
0

>  <r_i_glide_metal>  (63) 
-0

>  <r_i_glide_rewards>  (63) 
0

>  <r_i_glide_evdw>  (63) 
-33.2905

>  <r_i_glide_ecoul>  (63) 
-2.14619

>  <r_i_glide_erotb>  (63) 
0

>  <r_i_glide_esite>  (63) 
0

>  <r_i_glide_emodel>  (63) 
-40.657

>  <r_i_glide_energy>  (63) 
-35.4367

>  <r_i_glide_einternal>  (63) 
0.374636

>  <r_i_glide_intrahb_reward>  (63) 
-0

>  <i_i_glide_confnum>  (63) 
1

>  <i_i_glide_posenum>  (63) 
1

>  <r_i_glide_eff_state_penalty>  (63) 
0

>  <ligand_id>  (63) 
21

>  <original_smiles>  (63) 
CC1=CC2CCC34C(O)C(=O)CC(C)C3C(O)C3(CCC5C6CCC7C(C)(C)CCCC67CCC54C23O)C1

>  <smiles>  (63) 
[H]OC1([H])C(=O)C([H])([H])C([H])(C([H])([H])[H])C2([H])C([H])(O[H])C34C([H])([H])C(C([H])([H])[H])=C([H])C5([H])C([H])([H])C([H])([H])C12C1(C([H])([H])C([H])([H])C26C([H])([H])C([H])([H])C([H])([H])C(C([H])([H])[H])(C([H])([H])[H])C2([H])C([H])([H])C([H])([H])C6([H])C1([H])C([H])([H])C3([H])[H])C54O[H]

$$$$
23:0:0
     RDKit          3D

131142  0  0  1  0  0  0  0  0999 V2000
   -1.3035   -6.9188    2.7241 C   0  0  0  0  0  0  0  0  0  0  0  0
    0.0834   -7.4639    2.9583 C   0  0  0  0  0  0  0  0  0  0  0  0
    0.2910   -8.6293    3.3127 O   0  0  0  0  0  0  0  0  0  0  0  0
    0.9814   -6.4917    2.7629 O   0  0  0  0  0  0  0  0  0  0  0  0
    2.3617   -6.6332    3.0060 C   0  0  0  0  0  0  0  0  0  0  0  0
    3.2189   -5.3318    2.8512 C   0  0  2  0  0  0  0  0  0  0  0  0
    3.2038   -4.3188    4.0766 C   0  0  1  0  0  0  0  0  0  0  0  0
    3.0058   -5.0990    5.2364 O   0  0  0  0  0  0  0  0  0  0  0  0
    4.4477   -3.7090    4.1849 O   0  0  0  0  0  0  0  0  0  0  0  0
    5.6310   -3.9667    3.3796 C   0  0  0  0  0  0  0  0  0  0  0  0
    5.6693   -3.6888    1.8314 C   0  0  2  0  0  0  0  0  0  0  0  0
    6.5707   -4.8209    1.1983 C   0  0  0  0  0  0  0  0  0  0  0  0
    7.9317   -4.7435    1.6247 O   0  0  0  0  0  0  0  0  0  0  0  0
    6.3204   -2.2722    1.4268 C   0  0  2  0  0  0  0  0  0  0  0  0
    5.8901   -0.9607    2.1728 C   0  0  0  0  0  0  0  0  0  0  0  0
    4.7096   -0.2073    1.7606 O   0  0  0  0  0  0  0  0  0  0  0  0
    3.4230   -0.0369    2.3948 C   0  0  1  0  0  0  0  0  0  0  0  0
    3.0989    1.3177    2.1723 O   0  0  0  0  0  0  0  0  0  0  0  0
    2.3230   -0.6840    1.5659 C   0  0  0  0  0  0  0  0  0  0  0  0
    1.8635   -1.9498    1.5330 C   0  0  0  0  0  0  0  0  0  0  0  0
    2.5900   -3.0258    2.2878 C   0  0  2  0  0  0  0  0  0  0  0  0
    3.8914   -2.5780    2.0064 O   0  0  0  0  0  0  0  0  0  0  0  0
    4.2550   -3.6768    1.1858 C   0  0  1  0  0  0  0  0  0  0  0  0
    4.3103   -3.3110   -0.3298 C   0  0  0  0  0  0  0  0  0  0  0  0
    5.1116   -2.0591   -0.7272 C   0  0  0  0  0  0  0  0  0  0  0  0
    6.4206   -1.9740   -0.0193 N   0  0  2  0  0  0  0  0  0  0  0  0
    7.5714   -2.5381   -0.7919 C   0  0  0  0  0  0  0  0  0  0  0  0
    3.0002   -4.4033    1.6703 C   0  0  1  0  0  0  0  0  0  0  0  0
    2.2281   -5.0258    0.6605 O   0  0  0  0  0  0  0  0  0  0  0  0
    2.1825   -3.0392    3.7772 C   0  0  1  0  0  0  0  0  0  0  0  0
    0.7700   -3.6809    3.8212 C   0  0  0  0  0  0  0  0  0  0  0  0
    2.1631   -1.4471    4.5107 C   0  0  1  0  0  0  0  0  0  0  0  0
    0.6075   -1.2946    4.3443 O   0  0  0  0  0  0  0  0  0  0  0  0
   -0.4345   -0.4897    5.1683 C   0  0  2  0  0  0  0  0  0  0  0  0
   -0.8075   -0.4865    6.7122 C   0  0  0  0  0  0  0  0  0  0  0  0
   -0.0786    0.6796    7.5577 C   0  0  1  0  0  0  0  0  0  0  0  0
   -1.1097    1.0483    8.6652 C   0  0  0  0  0  0  0  0  0  0  0  0
    1.1874    0.0989    8.2786 C   0  0  2  0  0  0  0  0  0  0  0  0
    0.7523   -1.0716    8.9586 O   0  0  0  0  0  0  0  0  0  0  0  0
    1.6749    0.9655    9.4984 C   0  0  0  0  0  0  0  0  0  0  0  0
    3.1441    0.8088    9.9602 C   0  0  0  0  0  0  0  0  0  0  0  0
    4.1379    0.4145    8.8498 C   0  0  1  0  0  0  0  0  0  0  0  0
    5.5628    0.2053    9.3878 C   0  0  0  0  0  0  0  0  0  0  0  0
    3.5791   -0.7831    8.0318 C   0  0  1  0  0  0  0  0  0  0  0  0
    3.3863   -1.7776    9.0414 O   0  0  0  0  0  0  0  0  0  0  0  0
    2.2981   -0.2953    7.2315 C   0  0  1  0  0  0  0  0  0  0  0  0
    1.6599   -0.8550    5.8254 C   0  0  2  0  0  0  0  0  0  0  0  0
    1.1124   -2.1335    6.3805 O   0  0  0  0  0  0  0  0  0  0  0  0
    1.7164   -3.1776    6.9579 C   0  0  0  0  0  0  0  0  0  0  0  0
    0.7324   -4.2550    7.4106 C   0  0  0  0  0  0  0  0  0  0  0  0
    2.9246   -3.3430    7.0524 O   0  0  0  0  0  0  0  0  0  0  0  0
    0.7149    0.3363    4.9256 C   0  0  1  0  0  0  0  0  0  0  0  0
    0.9421    0.7392    3.5461 O   0  0  0  0  0  0  0  0  0  0  0  0
   -0.1940    1.5835    5.2215 C   0  0  1  0  0  0  0  0  0  0  0  0
   -0.3999    2.8767    4.3448 C   0  0  0  0  0  0  0  0  0  0  0  0
   -1.2987    0.6279    4.6623 C   0  0  0  0  0  0  0  0  0  0  0  0
    0.2411    1.9556    6.6183 C   0  0  1  0  0  0  0  0  0  0  0  0
   -0.5758    3.0427    7.0525 O   0  0  0  0  0  0  0  0  0  0  0  0
    1.7218    2.6251    6.3919 C   0  0  1  0  0  0  0  0  0  0  0  0
    2.4582    2.9750    7.5389 O   0  0  0  0  0  0  0  0  0  0  0  0
    2.7369    2.3420    5.1577 C   0  0  0  0  0  0  0  0  0  0  0  0
    3.7247    1.1002    4.8130 C   0  0  1  0  0  0  0  0  0  0  0  0
    5.0355    1.1301    5.6517 C   0  0  0  0  0  0  0  0  0  0  0  0
    3.3286   -0.3304    4.0248 C   0  0  2  0  0  0  0  0  0  0  0  0
    4.3736   -1.1295    4.4956 O   0  0  0  0  0  0  0  0  0  0  0  0
   -1.4798   -6.1775    3.5035 H   0  0  0  0  0  0  0  0  0  0  0  0
   -2.0891   -7.6560    2.8315 H   0  0  0  0  0  0  0  0  0  0  0  0
   -1.3325   -6.4813    1.7193 H   0  0  0  0  0  0  0  0  0  0  0  0
    2.5286   -7.0814    3.9862 H   0  0  0  0  0  0  0  0  0  0  0  0
    2.7539   -7.3607    2.3034 H   0  0  0  0  0  0  0  0  0  0  0  0
    4.1880   -5.8173    2.7543 H   0  0  0  0  0  0  0  0  0  0  0  0
    3.1124   -4.5225    5.9884 H   0  0  0  0  0  0  0  0  0  0  0  0
    6.1577   -3.1987    3.9053 H   0  0  0  0  0  0  0  0  0  0  0  0
    6.0511   -4.9219    3.6375 H   0  0  0  0  0  0  0  0  0  0  0  0
    6.1728   -5.8133    1.4051 H   0  0  0  0  0  0  0  0  0  0  0  0
    6.6278   -4.7921    0.1120 H   0  0  0  0  0  0  0  0  0  0  0  0
    8.0152   -4.9491    2.5412 H   0  0  0  0  0  0  0  0  0  0  0  0
    7.3363   -2.3597    1.7001 H   0  0  0  0  0  0  0  0  0  0  0  0
    6.2035   -0.8975    3.1874 H   0  0  0  0  0  0  0  0  0  0  0  0
    6.6080   -0.3093    1.7453 H   0  0  0  0  0  0  0  0  0  0  0  0
    3.8864    1.8214    2.3705 H   0  0  0  0  0  0  0  0  0  0  0  0
    1.7632    0.0124    0.9369 H   0  0  0  0  0  0  0  0  0  0  0  0
    1.0245   -2.2184    0.9348 H   0  0  0  0  0  0  0  0  0  0  0  0
    4.7094   -4.1746   -0.8661 H   0  0  0  0  0  0  0  0  0  0  0  0
    3.2941   -3.1544   -0.7282 H   0  0  0  0  0  0  0  0  0  0  0  0
    5.2745   -2.0622   -1.7988 H   0  0  0  0  0  0  0  0  0  0  0  0
    4.5217   -1.1752   -0.5089 H   0  0  0  0  0  0  0  0  0  0  0  0
    7.3334   -3.4665   -1.3149 H   0  0  0  0  0  0  0  0  0  0  0  0
    8.4774   -2.6697   -0.1804 H   0  0  0  0  0  0  0  0  0  0  0  0
    7.8928   -1.9089   -1.6325 H   0  0  0  0  0  0  0  0  0  0  0  0
    2.3353   -4.4877   -0.1024 H   0  0  0  0  0  0  0  0  0  0  0  0
   -0.0874   -3.0708    3.5859 H   0  0  0  0  0  0  0  0  0  0  0  0
    0.5572   -4.2488    4.7339 H   0  0  0  0  0  0  0  0  0  0  0  0
    0.6915   -4.2879    2.9426 H   0  0  0  0  0  0  0  0  0  0  0  0
   -1.8612   -0.2531    6.7710 H   0  0  0  0  0  0  0  0  0  0  0  0
   -0.8493   -1.4684    7.1779 H   0  0  0  0  0  0  0  0  0  0  0  0
   -0.8247    1.8762    9.3138 H   0  0  0  0  0  0  0  0  0  0  0  0
   -1.3061    0.1910    9.2915 H   0  0  0  0  0  0  0  0  0  0  0  0
   -2.0854    1.3019    8.2605 H   0  0  0  0  0  0  0  0  0  0  0  0
    1.5041   -1.6322    9.0861 H   0  0  0  0  0  0  0  0  0  0  0  0
    1.4300    2.0148    9.3753 H   0  0  0  0  0  0  0  0  0  0  0  0
    1.0658    0.7447   10.3756 H   0  0  0  0  0  0  0  0  0  0  0  0
    3.4613    1.7489   10.4068 H   0  0  0  0  0  0  0  0  0  0  0  0
    3.1988    0.0892   10.7788 H   0  0  0  0  0  0  0  0  0  0  0  0
    4.2489    1.2799    8.2067 H   0  0  0  0  0  0  0  0  0  0  0  0
    5.6126   -0.5881   10.1310 H   0  0  0  0  0  0  0  0  0  0  0  0
    5.9378    1.1178    9.8536 H   0  0  0  0  0  0  0  0  0  0  0  0
    6.2558   -0.0407    8.5835 H   0  0  0  0  0  0  0  0  0  0  0  0
    4.3139   -1.1879    7.3426 H   0  0  0  0  0  0  0  0  0  0  0  0
    3.0784   -1.3928    9.8391 H   0  0  0  0  0  0  0  0  0  0  0  0
    2.7141    0.6105    6.9061 H   0  0  0  0  0  0  0  0  0  0  0  0
   -0.2366   -4.1395    6.9279 H   0  0  0  0  0  0  0  0  0  0  0  0
    0.5906   -4.2268    8.4876 H   0  0  0  0  0  0  0  0  0  0  0  0
    1.1000   -5.2455    7.1470 H   0  0  0  0  0  0  0  0  0  0  0  0
    1.8668    0.8295    3.4228 H   0  0  0  0  0  0  0  0  0  0  0  0
   -1.3096    3.4026    4.6387 H   0  0  0  0  0  0  0  0  0  0  0  0
   -0.5731    2.6423    3.2962 H   0  0  0  0  0  0  0  0  0  0  0  0
    0.3947    3.6122    4.3531 H   0  0  0  0  0  0  0  0  0  0  0  0
   -1.4352    0.6103    3.5773 H   0  0  0  0  0  0  0  0  0  0  0  0
   -2.2704    0.7865    5.1195 H   0  0  0  0  0  0  0  0  0  0  0  0
   -0.2411    3.3400    7.8847 H   0  0  0  0  0  0  0  0  0  0  0  0
    1.4540    3.6504    6.1484 H   0  0  0  0  0  0  0  0  0  0  0  0
    2.8424    2.1997    7.9108 H   0  0  0  0  0  0  0  0  0  0  0  0
    2.2672    2.6572    4.2305 H   0  0  0  0  0  0  0  0  0  0  0  0
    3.4406    3.1646    5.2812 H   0  0  0  0  0  0  0  0  0  0  0  0
    4.2740    1.6356    4.0426 H   0  0  0  0  0  0  0  0  0  0  0  0
    5.1733    0.3218    6.3441 H   0  0  0  0  0  0  0  0  0  0  0  0
    5.1352    2.0582    6.2038 H   0  0  0  0  0  0  0  0  0  0  0  0
    5.9092    1.0632    5.0008 H   0  0  0  0  0  0  0  0  0  0  0  0
    4.2454   -1.2666    5.4197 H   0  0  0  0  0  0  0  0  0  0  0  0
    6.5828   -0.9625    0.0054 H   0  0  0  0  0  0  0  0  0  0  0  0
  1  2  1  0
  1 66  1  0
  1 67  1  0
  1 68  1  0
  2  3  2  0
  2  4  1  0
  4  5  1  0
  5  6  1  0
  5 69  1  0
  5 70  1  0
  6 28  1  0
  6  7  1  0
  6 71  1  6
  7 30  1  0
  7  8  1  1
  7  9  1  0
  8 72  1  0
  9 10  1  0
 10 11  1  0
 10 73  1  0
 10 74  1  0
 11 23  1  0
 11 12  1  6
 11 14  1  0
 12 13  1  0
 12 75  1  0
 12 76  1  0
 13 77  1  0
 14 26  1  0
 14 15  1  0
 14 78  1  1
 15 16  1  0
 15 79  1  0
 15 80  1  0
 16 17  1  0
 17 64  1  0
 17 18  1  1
 17 19  1  0
 18 81  1  0
 19 20  2  0
 19 82  1  0
 20 21  1  0
 20 83  1  0
 21 28  1  0
 21 22  1  1
 21 30  1  0
 22 23  1  0
 23 24  1  6
 23 28  1  0
 24 25  1  0
 24 84  1  0
 24 85  1  0
 25 26  1  0
 25 86  1  0
 25 87  1  0
 26 27  1  0
 26131  1  1
 27 88  1  0
 27 89  1  0
 27 90  1  0
 28 29  1  6
 29 91  1  0
 30 31  1  6
 30 32  1  0
 31 92  1  0
 31 93  1  0
 31 94  1  0
 32 47  1  0
 32 64  1  0
 32 33  1  6
 34 33  1  6
 34 52  1  0
 34 56  1  0
 34 35  1  0
 35 36  1  0
 35 95  1  0
 35 96  1  0
 36 57  1  0
 36 37  1  1
 36 38  1  0
 37 97  1  0
 37 98  1  0
 37 99  1  0
 38 46  1  0
 38 39  1  1
 38 40  1  0
 39100  1  0
 40 41  1  0
 40101  1  0
 40102  1  0
 41 42  1  0
 41103  1  0
 41104  1  0
 42 43  1  0
 42 44  1  0
 42105  1  6
 43106  1  0
 43107  1  0
 43108  1  0
 44 45  1  0
 44 46  1  0
 44109  1  6
 45110  1  0
 46 47  1  0
 46111  1  6
 47 48  1  1
 47 52  1  0
 48 49  1  0
 49 50  1  0
 49 51  2  0
 50112  1  0
 50113  1  0
 50114  1  0
 52 53  1  6
 52 54  1  0
 53115  1  0
 54 55  1  6
 54 56  1  0
 54 57  1  0
 55116  1  0
 55117  1  0
 55118  1  0
 56119  1  0
 56120  1  0
 57 58  1  1
 57 59  1  0
 58121  1  0
 59 60  1  0
 59 61  1  0
 59122  1  6
 60123  1  0
 61 62  1  0
 61124  1  0
 61125  1  0
 62 63  1  0
 62 64  1  0
 62126  1  6
 63127  1  0
 63128  1  0
 63129  1  0
 64 65  1  1
 65130  1  0
M  CHG  1  26   1
M  END
>  <i_m_ct_stereo_status>  (64) 
1

>  <s_m_source_file>  (64) 
/var/tmp/pbs.5076255.sched01/tmpu3exd1vk/0t_9me_9p.sdf

>  <i_m_source_file_index>  (64) 
30

>  <i_lp_mmshare_version>  (64) 
48012

>  <i_f3d_flags>  (64) 
2

>  <s_epik_input>  (64) 
TzFbQ0BAXShbQ0gyXTIpKFtDSDJdMylbQ0BAXTQoW09IXSlbQ0BdMyhbQ0gzXSlbQ0BdKFtPSF0pKFtDQEBIXShbT0hdKVtDSDJdW0NASF01W0NIM10pW0NAQF0yKFtDSDNdKVtDQF0oW09IXSkoW0NIMl1bQ0gyXVtDQEBIXShbQ0gzXSlbQ0BIXTZbT0hdKVtDQEBIXTZbQ0BdNChPQyg9TylbQ0gzXSlbQ0BdMShbQ0BdNyhbQ0gzXSlbQ0BdKFtPSF0pKE9bQ0gyXTgpW0NASF05W0NIMl1PQyg9TylbQ0gzXSlbQ0BAXTUoW09IXSlbQ0BdKFtPSF0pKFtDSF09W0NIXTEpT1tDSDJdW0NIXShOKFtDSDNdKVtDSDJdW0NIMl0yKVtDQF04KFtDSDJdW09IXSlbQ0BdMihPMilbQ0BAXTkoW0NAXTEyNylbT0hd

>  <s_epik_cmdline>  (64) 
J2VwaWtfcHl0aG9uJywgJy1waHQnLCAnMi4wJywgJy1waCcsICc3LjAnLCAnLXRuJywgJzgnLCAnLW1hJywgJzIwMCcsICctaW1hZScsICc8aW5maWxlLm1hZT4nLCAnLW9tYWUnLCAnPG91dGZpbGUubWFlPic=

>  <r_epik_Ionization_Penalty>  (64) 
0.329036

>  <r_epik_Ionization_Penalty_Charging>  (64) 
0.328951

>  <r_epik_Ionization_Penalty_Neutral>  (64) 
8.55282e-05

>  <r_epik_State_Penalty>  (64) 
0.323934

>  <r_epik_Charging_Adjusted_Penalty>  (64) 
0.652885

>  <i_epik_Tot_Q>  (64) 
1

>  <i_epik_Tot_abs_Q>  (64) 
1

>  <s_epik_Chemistry_Notes>  (64) 
This compound has an ester and may undergo hydrolysis at high or low pH.

>  <s_lp_Force_Field>  (64) 
OPLS3e

>  <r_lp_Energy>  (64) 
671.557

>  <b_lp_Chiralities_Consistent>  (64) 
0

>  <s_lp_Variant>  (64) 
23:0-1

>  <s_i_glide_gridfile>  (64) 
pfpi4k_grid

>  <i_i_glide_lignum>  (64) 
30

>  <i_i_glide_rotatable_bonds>  (64) 
16

>  <r_i_docking_score>  (64) 
-2.55429

>  <r_i_glide_ligand_efficiency>  (64) 
-0.0392968

>  <r_i_glide_ligand_efficiency_sa>  (64) 
-0.158002

>  <r_i_glide_ligand_efficiency_ln>  (64) 
-0.493641

>  <r_i_glide_gscore>  (64) 
-2.55429

>  <r_i_glide_lipo>  (64) 
-0.441742

>  <r_i_glide_hbond>  (64) 
-0.041208

>  <r_i_glide_metal>  (64) 
-0

>  <r_i_glide_rewards>  (64) 
-0.525951

>  <r_i_glide_evdw>  (64) 
-19.1866

>  <r_i_glide_ecoul>  (64) 
-4.3173

>  <r_i_glide_erotb>  (64) 
0.104215

>  <r_i_glide_esite>  (64) 
-0.0610961

>  <r_i_glide_emodel>  (64) 
-35.3764

>  <r_i_glide_energy>  (64) 
-23.5039

>  <r_i_glide_einternal>  (64) 
5.64697

>  <r_i_glide_intrahb_reward>  (64) 
-0.5

>  <i_i_glide_confnum>  (64) 
4

>  <i_i_glide_posenum>  (64) 
15

>  <r_i_glide_eff_state_penalty>  (64) 
0

>  <ligand_id>  (64) 
23

>  <original_smiles>  (64) 
CC(=O)OCC1C2(O)OCC3(CO)C4COC5(O)C=CC6(OC3(CCN4C)C16O)C2(C)C12OC34CC6(C)C7(O)CCC(C)C(O)C7C1(OC(C)=O)C3(O)C(C)(C4)C6(O)C(O)CC(C)C52O

>  <smiles>  (64) 
[H]OC([H])([H])C12C([H])([H])OC3(O[H])C([H])(C([H])([H])OC(=O)C([H])([H])[H])C4(O[H])C56OC41C([H])([H])C([H])([H])[N+]([H])(C([H])([H])[H])C2([H])C([H])([H])OC(O[H])(C([H])=C5[H])C1(O[H])C([H])(C([H])([H])[H])C([H])([H])C([H])(O[H])C2(O[H])C4(C([H])([H])[H])C([H])([H])C57OC1(C(OC(=O)C([H])([H])[H])(C1([H])C([H])(O[H])C([H])(C([H])([H])[H])C([H])([H])C([H])([H])C14O[H])C5(O[H])C2(C([H])([H])[H])C7([H])[H])C36C([H])([H])[H]

$$$$
23:1:0
     RDKit          3D

130141  0  0  1  0  0  0  0  0999 V2000
   -1.5871   -4.6969    7.6361 C   0  0  0  0  0  0  0  0  0  0  0  0
   -0.2700   -5.1575    8.2765 C   0  0  0  0  0  0  0  0  0  0  0  0
   -0.2452   -5.6193    9.4070 O   0  0  0  0  0  0  0  0  0  0  0  0
    0.8382   -5.0248    7.5082 O   0  0  0  0  0  0  0  0  0  0  0  0
    0.8109   -4.3793    6.2401 C   0  0  0  0  0  0  0  0  0  0  0  0
    2.2066   -4.3399    5.5721 C   0  0  2  0  0  0  0  0  0  0  0  0
    3.0636   -3.2239    6.1812 C   0  0  1  0  0  0  0  0  0  0  0  0
    3.0268   -3.2965    7.5767 O   0  0  0  0  0  0  0  0  0  0  0  0
    4.3418   -3.7881    5.8526 O   0  0  0  0  0  0  0  0  0  0  0  0
    5.2612   -3.5409    4.7527 C   0  0  0  0  0  0  0  0  0  0  0  0
    4.8406   -3.7760    3.2717 C   0  0  2  0  0  0  0  0  0  0  0  0
    5.4733   -5.1792    2.9580 C   0  0  0  0  0  0  0  0  0  0  0  0
    4.9945   -6.2058    3.8124 O   0  0  0  0  0  0  0  0  0  0  0  0
    5.4460   -2.6044    2.2718 C   0  0  2  0  0  0  0  0  0  0  0  0
    5.0696   -1.0160    2.4359 C   0  0  0  0  0  0  0  0  0  0  0  0
    3.7502   -0.4694    2.0283 O   0  0  0  0  0  0  0  0  0  0  0  0
    2.5361    0.1281    2.6452 C   0  0  1  0  0  0  0  0  0  0  0  0
    2.1868    1.1091    1.7096 O   0  0  0  0  0  0  0  0  0  0  0  0
    1.3583   -0.7998    2.5214 C   0  0  0  0  0  0  0  0  0  0  0  0
    1.1456   -1.8328    3.3440 C   0  0  0  0  0  0  0  0  0  0  0  0
    2.2544   -2.4366    4.1635 C   0  0  2  0  0  0  0  0  0  0  0  0
    3.3238   -2.4441    3.3527 O   0  0  0  0  0  0  0  0  0  0  0  0
    3.3121   -3.8093    3.0760 C   0  0  1  0  0  0  0  0  0  0  0  0
    2.9606   -3.8721    1.5661 C   0  0  0  0  0  0  0  0  0  0  0  0
    4.1151   -3.7858    0.5294 C   0  0  0  0  0  0  0  0  0  0  0  0
    5.2680   -2.9343    0.8513 N   0  0  0  0  0  0  0  0  0  0  0  0
    6.4894   -3.3617    0.1630 C   0  0  0  0  0  0  0  0  0  0  0  0
    2.1550   -3.9628    4.1137 C   0  0  1  0  0  0  0  0  0  0  0  0
    1.0301   -4.6027    3.5411 O   0  0  0  0  0  0  0  0  0  0  0  0
    2.8318   -1.7324    5.4775 C   0  0  2  0  0  0  0  0  0  0  0  0
    4.2193   -1.1641    5.9210 C   0  0  0  0  0  0  0  0  0  0  0  0
    1.9110   -0.3227    5.5087 C   0  0  1  0  0  0  0  0  0  0  0  0
    0.4727   -0.8234    5.9632 O   0  0  0  0  0  0  0  0  0  0  0  0
   -0.6192    0.0382    6.6771 C   0  0  2  0  0  0  0  0  0  0  0  0
   -0.6895    0.7828    8.1227 C   0  0  0  0  0  0  0  0  0  0  0  0
   -0.3104    2.3253    8.1314 C   0  0  1  0  0  0  0  0  0  0  0  0
   -1.1402    2.9241    9.3228 C   0  0  0  0  0  0  0  0  0  0  0  0
    1.2287    2.4670    8.4899 C   0  0  2  0  0  0  0  0  0  0  0  0
    1.4712    1.6912    9.6577 O   0  0  0  0  0  0  0  0  0  0  0  0
    1.6809    3.8407    9.1066 C   0  0  0  0  0  0  0  0  0  0  0  0
    3.1990    3.9626    9.3224 C   0  0  0  0  0  0  0  0  0  0  0  0
    3.9964    3.5281    8.0861 C   0  0  1  0  0  0  0  0  0  0  0  0
    5.5060    3.7722    8.2475 C   0  0  0  0  0  0  0  0  0  0  0  0
    3.6564    2.0665    7.6656 C   0  0  1  0  0  0  0  0  0  0  0  0
    4.1115    1.2072    8.6932 O   0  0  0  0  0  0  0  0  0  0  0  0
    2.1338    1.9497    7.2949 C   0  0  1  0  0  0  0  0  0  0  0  0
    1.4897    0.6491    6.5831 C   0  0  2  0  0  0  0  0  0  0  0  0
    1.9408   -0.1853    7.7507 O   0  0  0  0  0  0  0  0  0  0  0  0
    1.4653   -1.2409    8.5383 C   0  0  0  0  0  0  0  0  0  0  0  0
    2.4328   -1.5402    9.6865 C   0  0  0  0  0  0  0  0  0  0  0  0
    0.4482   -1.9144    8.4076 O   0  0  0  0  0  0  0  0  0  0  0  0
    0.0208    0.9016    5.7322 C   0  0  1  0  0  0  0  0  0  0  0  0
   -0.1164    0.6438    4.3092 O   0  0  0  0  0  0  0  0  0  0  0  0
   -1.2580    1.8165    5.8091 C   0  0  1  0  0  0  0  0  0  0  0  0
   -2.1558    2.3744    4.6382 C   0  0  0  0  0  0  0  0  0  0  0  0
   -1.9367    0.4316    6.0807 C   0  0  0  0  0  0  0  0  0  0  0  0
   -0.7996    2.9488    6.7134 C   0  0  1  0  0  0  0  0  0  0  0  0
   -1.9679    3.7213    6.9533 O   0  0  0  0  0  0  0  0  0  0  0  0
    0.1502    3.8400    5.7339 C   0  0  1  0  0  0  0  0  0  0  0  0
    0.9631    4.8170    6.3207 O   0  0  0  0  0  0  0  0  0  0  0  0
    0.8507    3.2861    4.3829 C   0  0  0  0  0  0  0  0  0  0  0  0
    2.2230    2.4700    4.1860 C   0  0  1  0  0  0  0  0  0  0  0  0
    3.3962    3.4790    4.4940 C   0  0  0  0  0  0  0  0  0  0  0  0
    2.5188    0.7666    4.2124 C   0  0  2  0  0  0  0  0  0  0  0  0
    3.8726    0.9963    4.4234 O   0  0  0  0  0  0  0  0  0  0  0  0
   -1.7363   -5.1925    6.6790 H   0  0  0  0  0  0  0  0  0  0  0  0
   -1.5807   -3.6198    7.4787 H   0  0  0  0  0  0  0  0  0  0  0  0
   -2.4440   -4.9486    8.2635 H   0  0  0  0  0  0  0  0  0  0  0  0
    0.1283   -4.9758    5.6395 H   0  0  0  0  0  0  0  0  0  0  0  0
    0.4106   -3.3660    6.3098 H   0  0  0  0  0  0  0  0  0  0  0  0
    2.6785   -5.3156    5.7050 H   0  0  0  0  0  0  0  0  0  0  0  0
    3.6820   -2.6866    7.8863 H   0  0  0  0  0  0  0  0  0  0  0  0
    5.8217   -2.6302    4.8446 H   0  0  0  0  0  0  0  0  0  0  0  0
    6.0749   -4.2221    5.0145 H   0  0  0  0  0  0  0  0  0  0  0  0
    5.3083   -5.5339    1.9467 H   0  0  0  0  0  0  0  0  0  0  0  0
    6.5658   -5.1361    3.0676 H   0  0  0  0  0  0  0  0  0  0  0  0
    4.0770   -6.3568    3.6240 H   0  0  0  0  0  0  0  0  0  0  0  0
    6.5185   -2.6169    2.4707 H   0  0  0  0  0  0  0  0  0  0  0  0
    5.4629   -0.5728    3.3318 H   0  0  0  0  0  0  0  0  0  0  0  0
    5.7122   -0.5261    1.6925 H   0  0  0  0  0  0  0  0  0  0  0  0
    1.9173    0.6503    0.9163 H   0  0  0  0  0  0  0  0  0  0  0  0
    0.5482   -0.4700    1.8944 H   0  0  0  0  0  0  0  0  0  0  0  0
    0.2003   -2.3352    3.3062 H   0  0  0  0  0  0  0  0  0  0  0  0
    2.4299   -4.7954    1.3456 H   0  0  0  0  0  0  0  0  0  0  0  0
    2.2615   -3.0818    1.3113 H   0  0  0  0  0  0  0  0  0  0  0  0
    4.4552   -4.7938    0.2919 H   0  0  0  0  0  0  0  0  0  0  0  0
    3.6823   -3.4396   -0.4121 H   0  0  0  0  0  0  0  0  0  0  0  0
    6.3115   -3.4656   -0.9061 H   0  0  0  0  0  0  0  0  0  0  0  0
    6.8445   -4.3206    0.5362 H   0  0  0  0  0  0  0  0  0  0  0  0
    7.2884   -2.6329    0.2928 H   0  0  0  0  0  0  0  0  0  0  0  0
    1.1896   -5.5346    3.6217 H   0  0  0  0  0  0  0  0  0  0  0  0
    4.9218   -0.9159    5.1632 H   0  0  0  0  0  0  0  0  0  0  0  0
    4.7709   -1.7167    6.6806 H   0  0  0  0  0  0  0  0  0  0  0  0
    4.0834   -0.2556    6.4829 H   0  0  0  0  0  0  0  0  0  0  0  0
   -1.7277    0.8022    8.4238 H   0  0  0  0  0  0  0  0  0  0  0  0
   -0.3538    0.2797    9.0103 H   0  0  0  0  0  0  0  0  0  0  0  0
   -1.0327    4.0104    9.4135 H   0  0  0  0  0  0  0  0  0  0  0  0
   -0.8785    2.4753   10.2852 H   0  0  0  0  0  0  0  0  0  0  0  0
   -2.2126    2.7361    9.2150 H   0  0  0  0  0  0  0  0  0  0  0  0
    0.9161    2.0223   10.3567 H   0  0  0  0  0  0  0  0  0  0  0  0
    1.3327    4.7055    8.5654 H   0  0  0  0  0  0  0  0  0  0  0  0
    1.2136    3.9939   10.0806 H   0  0  0  0  0  0  0  0  0  0  0  0
    3.4355    4.9989    9.5690 H   0  0  0  0  0  0  0  0  0  0  0  0
    3.4958    3.3728   10.1901 H   0  0  0  0  0  0  0  0  0  0  0  0
    3.6776    4.2039    7.2943 H   0  0  0  0  0  0  0  0  0  0  0  0
    5.9300    3.1983    9.0720 H   0  0  0  0  0  0  0  0  0  0  0  0
    5.7088    4.8282    8.4367 H   0  0  0  0  0  0  0  0  0  0  0  0
    6.0407    3.4980    7.3372 H   0  0  0  0  0  0  0  0  0  0  0  0
    4.2680    1.8202    6.8052 H   0  0  0  0  0  0  0  0  0  0  0  0
    3.5390    1.3462    9.4423 H   0  0  0  0  0  0  0  0  0  0  0  0
    2.0858    2.7188    6.5725 H   0  0  0  0  0  0  0  0  0  0  0  0
    3.4551   -1.5529    9.3084 H   0  0  0  0  0  0  0  0  0  0  0  0
    2.2128   -2.5371   10.0764 H   0  0  0  0  0  0  0  0  0  0  0  0
    2.3776   -0.8111   10.4929 H   0  0  0  0  0  0  0  0  0  0  0  0
    0.2213    1.4005    3.8562 H   0  0  0  0  0  0  0  0  0  0  0  0
   -3.1653    2.5811    4.9972 H   0  0  0  0  0  0  0  0  0  0  0  0
   -2.3114    1.6511    3.8392 H   0  0  0  0  0  0  0  0  0  0  0  0
   -1.8521    3.2982    4.1530 H   0  0  0  0  0  0  0  0  0  0  0  0
   -2.1881   -0.1690    5.2021 H   0  0  0  0  0  0  0  0  0  0  0  0
   -2.8144    0.5074    6.7183 H   0  0  0  0  0  0  0  0  0  0  0  0
   -2.4778    3.7295    6.1561 H   0  0  0  0  0  0  0  0  0  0  0  0
   -0.5670    4.5293    5.2852 H   0  0  0  0  0  0  0  0  0  0  0  0
    1.3839    5.3272    5.6388 H   0  0  0  0  0  0  0  0  0  0  0  0
    0.1371    2.9203    3.6543 H   0  0  0  0  0  0  0  0  0  0  0  0
    1.0657    4.2297    3.8762 H   0  0  0  0  0  0  0  0  0  0  0  0
    2.2821    2.7403    3.1496 H   0  0  0  0  0  0  0  0  0  0  0  0
    3.9665    3.2914    5.3901 H   0  0  0  0  0  0  0  0  0  0  0  0
    3.0783    4.5193    4.5512 H   0  0  0  0  0  0  0  0  0  0  0  0
    4.1341    3.4631    3.6973 H   0  0  0  0  0  0  0  0  0  0  0  0
    4.1830    1.5307    3.6979 H   0  0  0  0  0  0  0  0  0  0  0  0
  1  2  1  0
  1 66  1  0
  1 67  1  0
  1 68  1  0
  2  3  2  0
  2  4  1  0
  4  5  1  0
  5  6  1  0
  5 69  1  0
  5 70  1  0
  6 28  1  0
  6  7  1  0
  6 71  1  6
  7 30  1  0
  7  8  1  1
  7  9  1  0
  8 72  1  0
  9 10  1  0
 10 11  1  0
 10 73  1  0
 10 74  1  0
 11 23  1  0
 11 12  1  6
 11 14  1  0
 12 13  1  0
 12 75  1  0
 12 76  1  0
 13 77  1  0
 14 26  1  0
 14 15  1  0
 14 78  1  6
 15 16  1  0
 15 79  1  0
 15 80  1  0
 16 17  1  0
 17 64  1  0
 17 18  1  6
 17 19  1  0
 18 81  1  0
 19 20  2  0
 19 82  1  0
 20 21  1  0
 20 83  1  0
 21 28  1  0
 21 22  1  6
 21 30  1  0
 22 23  1  0
 23 24  1  6
 23 28  1  0
 24 25  1  0
 24 84  1  0
 24 85  1  0
 25 26  1  0
 25 86  1  0
 25 87  1  0
 26 27  1  0
 27 88  1  0
 27 89  1  0
 27 90  1  0
 28 29  1  6
 29 91  1  0
 30 31  1  6
 30 32  1  0
 31 92  1  0
 31 93  1  0
 31 94  1  0
 32 47  1  0
 32 64  1  0
 32 33  1  6
 34 33  1  1
 34 52  1  0
 34 56  1  0
 34 35  1  0
 35 36  1  0
 35 95  1  0
 35 96  1  0
 36 57  1  0
 36 37  1  1
 36 38  1  0
 37 97  1  0
 37 98  1  0
 37 99  1  0
 38 46  1  0
 38 39  1  1
 38 40  1  0
 39100  1  0
 40 41  1  0
 40101  1  0
 40102  1  0
 41 42  1  0
 41103  1  0
 41104  1  0
 42 43  1  0
 42 44  1  0
 42105  1  6
 43106  1  0
 43107  1  0
 43108  1  0
 44 45  1  0
 44 46  1  0
 44109  1  6
 45110  1  0
 46 47  1  0
 46111  1  6
 47 48  1  1
 47 52  1  0
 48 49  1  0
 49 50  1  0
 49 51  2  0
 50112  1  0
 50113  1  0
 50114  1  0
 52 53  1  6
 52 54  1  0
 53115  1  0
 54 55  1  6
 54 56  1  0
 54 57  1  0
 55116  1  0
 55117  1  0
 55118  1  0
 56119  1  0
 56120  1  0
 57 58  1  1
 57 59  1  0
 58121  1  0
 59 60  1  0
 59 61  1  0
 59122  1  6
 60123  1  0
 61 62  1  0
 61124  1  0
 61125  1  0
 62 63  1  0
 62 64  1  0
 62126  1  6
 63127  1  0
 63128  1  0
 63129  1  0
 64 65  1  1
 65130  1  0
M  END
>  <i_m_ct_stereo_status>  (65) 
1

>  <s_m_source_file>  (65) 
/var/tmp/pbs.5076255.sched01/tmpu3exd1vk/0t_9me_9p.sdf

>  <i_m_source_file_index>  (65) 
31

>  <i_lp_mmshare_version>  (65) 
48012

>  <i_f3d_flags>  (65) 
2

>  <s_epik_input>  (65) 
TzFbQ0BAXShbQ0gyXTIpKFtDSDJdMylbQ0BAXTQoW09IXSlbQ0BdMyhbQ0gzXSlbQ0BdKFtPSF0pKFtDQEBIXShbT0hdKVtDSDJdW0NASF01W0NIM10pW0NAQF0yKFtDSDNdKVtDQF0oW09IXSkoW0NIMl1bQ0gyXVtDQEBIXShbQ0gzXSlbQ0BIXTZbT0hdKVtDQEBIXTZbQ0BdNChPQyg9TylbQ0gzXSlbQ0BdMShbQ0BdNyhbQ0gzXSlbQ0BdKFtPSF0pKE9bQ0gyXTgpW0NASF05W0NIMl1PQyg9TylbQ0gzXSlbQ0BAXTUoW09IXSlbQ0BdKFtPSF0pKFtDSF09W0NIXTEpT1tDSDJdW0NIXShOKFtDSDNdKVtDSDJdW0NIMl0yKVtDQF04KFtDSDJdW09IXSlbQ0BdMihPMilbQ0BAXTkoW0NAXTEyNylbT0hd

>  <s_epik_cmdline>  (65) 
J2VwaWtfcHl0aG9uJywgJy1waHQnLCAnMi4wJywgJy1waCcsICc3LjAnLCAnLXRuJywgJzgnLCAnLW1hJywgJzIwMCcsICctaW1hZScsICc8aW5maWxlLm1hZT4nLCAnLW9tYWUnLCAnPG91dGZpbGUubWFlPic=

>  <r_epik_Ionization_Penalty>  (65) 
0.505529

>  <r_epik_Ionization_Penalty_Charging>  (65) 
0

>  <r_epik_Ionization_Penalty_Neutral>  (65) 
0.505529

>  <r_epik_State_Penalty>  (65) 
0.512341

>  <r_epik_Charging_Adjusted_Penalty>  (65) 
0.512341

>  <i_epik_Tot_Q>  (65) 
0

>  <i_epik_Tot_abs_Q>  (65) 
0

>  <s_epik_Chemistry_Notes>  (65) 
This compound has an ester and may undergo hydrolysis at high or low pH.

>  <s_lp_Force_Field>  (65) 
OPLS3e

>  <r_lp_Energy>  (65) 
754.062

>  <b_lp_Chiralities_Consistent>  (65) 
0

>  <s_lp_Variant>  (65) 
23:0-2

>  <s_i_glide_gridfile>  (65) 
pfpi4k_grid

>  <i_i_glide_lignum>  (65) 
31

>  <i_i_glide_rotatable_bonds>  (65) 
16

>  <r_i_docking_score>  (65) 
-3.1033

>  <r_i_glide_ligand_efficiency>  (65) 
-0.0477431

>  <r_i_glide_ligand_efficiency_sa>  (65) 
-0.191962

>  <r_i_glide_ligand_efficiency_ln>  (65) 
-0.599743

>  <r_i_glide_gscore>  (65) 
-3.1033

>  <r_i_glide_lipo>  (65) 
-0.383129

>  <r_i_glide_hbond>  (65) 
-0.184816

>  <r_i_glide_metal>  (65) 
-0

>  <r_i_glide_rewards>  (65) 
-0.527398

>  <r_i_glide_evdw>  (65) 
-32.4048

>  <r_i_glide_ecoul>  (65) 
-3.19117

>  <r_i_glide_erotb>  (65) 
0.104432

>  <r_i_glide_esite>  (65) 
-0.0134763

>  <r_i_glide_emodel>  (65) 
-42.8586

>  <r_i_glide_energy>  (65) 
-35.5959

>  <r_i_glide_einternal>  (65) 
9.31022

>  <r_i_glide_intrahb_reward>  (65) 
-0.5

>  <i_i_glide_confnum>  (65) 
1

>  <i_i_glide_posenum>  (65) 
35

>  <r_i_glide_eff_state_penalty>  (65) 
0

>  <ligand_id>  (65) 
23

>  <original_smiles>  (65) 
CC(=O)OCC1C2(O)OCC3(CO)C4COC5(O)C=CC6(OC3(CCN4C)C16O)C2(C)C12OC34CC6(C)C7(O)CCC(C)C(O)C7C1(OC(C)=O)C3(O)C(C)(C4)C6(O)C(O)CC(C)C52O

>  <smiles>  (65) 
[H]OC([H])([H])C12C([H])([H])OC3(O[H])C([H])(C([H])([H])OC(=O)C([H])([H])[H])C4(O[H])C56OC41C([H])([H])C([H])([H])N(C([H])([H])[H])C2([H])C([H])([H])OC(O[H])(C([H])=C5[H])C1(O[H])C([H])(C([H])([H])[H])C([H])([H])C([H])(O[H])C2(O[H])C4(C([H])([H])[H])C([H])([H])C57OC1(C(OC(=O)C([H])([H])[H])(C1([H])C([H])(O[H])C([H])(C([H])([H])[H])C([H])([H])C([H])([H])C14O[H])C5(O[H])C2(C([H])([H])[H])C7([H])[H])C36C([H])([H])[H]

$$$$
23:1:1
     RDKit          3D

130141  0  0  1  0  0  0  0  0999 V2000
    0.1818   -5.3071    9.8786 C   0  0  0  0  0  0  0  0  0  0  0  0
   -0.1501   -4.6468    8.5421 C   0  0  0  0  0  0  0  0  0  0  0  0
   -1.1997   -4.0264    8.3732 O   0  0  0  0  0  0  0  0  0  0  0  0
    0.8312   -4.8087    7.6299 O   0  0  0  0  0  0  0  0  0  0  0  0
    0.7464   -4.1703    6.3554 C   0  0  0  0  0  0  0  0  0  0  0  0
    2.1547   -4.1299    5.6604 C   0  0  2  0  0  0  0  0  0  0  0  0
    3.0220   -3.0023    6.2370 C   0  0  1  0  0  0  0  0  0  0  0  0
    2.9943   -3.0528    7.6330 O   0  0  0  0  0  0  0  0  0  0  0  0
    4.3055   -3.5614    5.9007 O   0  0  0  0  0  0  0  0  0  0  0  0
    5.2130   -3.3041    4.7917 C   0  0  0  0  0  0  0  0  0  0  0  0
    4.7869   -3.5606    3.3130 C   0  0  2  0  0  0  0  0  0  0  0  0
    5.4305   -4.9605    3.0053 C   0  0  0  0  0  0  0  0  0  0  0  0
    4.9190   -5.9842    3.8410 O   0  0  0  0  0  0  0  0  0  0  0  0
    5.3680   -2.3926    2.2953 C   0  0  2  0  0  0  0  0  0  0  0  0
    4.9763   -0.8102    2.4427 C   0  0  0  0  0  0  0  0  0  0  0  0
    3.6564   -0.2602    2.0397 O   0  0  0  0  0  0  0  0  0  0  0  0
    2.4289    0.3086    2.6575 C   0  0  1  0  0  0  0  0  0  0  0  0
    2.0529    1.2769    1.7235 O   0  0  0  0  0  0  0  0  0  0  0  0
    1.2642   -0.6391    2.5626 C   0  0  0  0  0  0  0  0  0  0  0  0
    1.0680   -1.6630    3.3985 C   0  0  0  0  0  0  0  0  0  0  0  0
    2.1987   -2.2368    4.2182 C   0  0  2  0  0  0  0  0  0  0  0  0
    3.2544   -2.2425    3.3864 O   0  0  0  0  0  0  0  0  0  0  0  0
    3.2557   -3.6095    3.1360 C   0  0  1  0  0  0  0  0  0  0  0  0
    2.8960   -3.7043    1.6288 C   0  0  0  0  0  0  0  0  0  0  0  0
    4.0352   -3.6148    0.5760 C   0  0  0  0  0  0  0  0  0  0  0  0
    5.1795   -2.7465    0.8769 N   0  0  0  0  0  0  0  0  0  0  0  0
    6.3994   -3.1641    0.1815 C   0  0  0  0  0  0  0  0  0  0  0  0
    2.1048   -3.7638    4.1881 C   0  0  1  0  0  0  0  0  0  0  0  0
    0.9915   -4.4359    3.6437 O   0  0  0  0  0  0  0  0  0  0  0  0
    2.7755   -1.5210    5.5177 C   0  0  2  0  0  0  0  0  0  0  0  0
    4.1604   -0.9286    5.9355 C   0  0  0  0  0  0  0  0  0  0  0  0
    1.8470   -0.1122    5.5367 C   0  0  1  0  0  0  0  0  0  0  0  0
    0.4231   -0.6246    6.0138 O   0  0  0  0  0  0  0  0  0  0  0  0
   -0.6789    0.2306    6.7198 C   0  0  2  0  0  0  0  0  0  0  0  0
   -0.7540    0.9870    8.1565 C   0  0  0  0  0  0  0  0  0  0  0  0
   -0.3892    2.5356    8.1495 C   0  0  1  0  0  0  0  0  0  0  0  0
   -1.2129    3.1444    9.3353 C   0  0  0  0  0  0  0  0  0  0  0  0
    1.1511    2.7004    8.4873 C   0  0  2  0  0  0  0  0  0  0  0  0
    1.3839    1.9430    9.6638 O   0  0  0  0  0  0  0  0  0  0  0  0
    1.5971    4.0834    9.0850 C   0  0  0  0  0  0  0  0  0  0  0  0
    3.1156    4.2221    9.2806 C   0  0  0  0  0  0  0  0  0  0  0  0
    3.9076    3.7956    8.0381 C   0  0  1  0  0  0  0  0  0  0  0  0
    5.4160    4.0524    8.1894 C   0  0  0  0  0  0  0  0  0  0  0  0
    3.5848    2.3293    7.6364 C   0  0  1  0  0  0  0  0  0  0  0  0
    4.0859    1.4809    8.6574 O   0  0  0  0  0  0  0  0  0  0  0  0
    2.0576    2.1846    7.2920 C   0  0  1  0  0  0  0  0  0  0  0  0
    1.4296    0.8726    6.5940 C   0  0  2  0  0  0  0  0  0  0  0  0
    1.9284    0.0706    7.7633 O   0  0  0  0  0  0  0  0  0  0  0  0
    1.4744   -0.9570    8.5766 C   0  0  0  0  0  0  0  0  0  0  0  0
    2.4393   -1.2449    9.7234 C   0  0  0  0  0  0  0  0  0  0  0  0
    0.4526   -1.6181    8.4842 O   0  0  0  0  0  0  0  0  0  0  0  0
   -0.0566    1.0888    5.7622 C   0  0  1  0  0  0  0  0  0  0  0  0
   -0.2012    0.8173    4.3446 O   0  0  0  0  0  0  0  0  0  0  0  0
   -1.3524    1.9885    5.8437 C   0  0  1  0  0  0  0  0  0  0  0  0
   -2.2635    2.5310    4.6774 C   0  0  0  0  0  0  0  0  0  0  0  0
   -2.0106    0.5977    6.1336 C   0  0  0  0  0  0  0  0  0  0  0  0
   -0.8892    3.1370    6.7230 C   0  0  1  0  0  0  0  0  0  0  0  0
   -2.0360    3.9235    6.9750 O   0  0  0  0  0  0  0  0  0  0  0  0
    0.0401    4.0262    5.7295 C   0  0  1  0  0  0  0  0  0  0  0  0
    0.8426    5.0259    6.2897 O   0  0  0  0  0  0  0  0  0  0  0  0
    0.7246    3.4634    4.3742 C   0  0  0  0  0  0  0  0  0  0  0  0
    2.1041    2.6631    4.1776 C   0  0  1  0  0  0  0  0  0  0  0  0
    3.2635    3.6957    4.4550 C   0  0  0  0  0  0  0  0  0  0  0  0
    2.4236    0.9645    4.2160 C   0  0  2  0  0  0  0  0  0  0  0  0
    3.7765    1.2042    4.4036 O   0  0  0  0  0  0  0  0  0  0  0  0
    1.1674   -5.0022   10.2352 H   0  0  0  0  0  0  0  0  0  0  0  0
    0.1677   -6.3918    9.7771 H   0  0  0  0  0  0  0  0  0  0  0  0
   -0.5495   -5.0151   10.6338 H   0  0  0  0  0  0  0  0  0  0  0  0
    0.0171   -4.7521    5.7846 H   0  0  0  0  0  0  0  0  0  0  0  0
    0.3525   -3.1579    6.4247 H   0  0  0  0  0  0  0  0  0  0  0  0
    2.6330   -5.1029    5.7868 H   0  0  0  0  0  0  0  0  0  0  0  0
    3.1559   -3.9530    7.8848 H   0  0  0  0  0  0  0  0  0  0  0  0
    5.7868   -2.3926    4.8582 H   0  0  0  0  0  0  0  0  0  0  0  0
    6.0317   -3.9821    5.0504 H   0  0  0  0  0  0  0  0  0  0  0  0
    5.2807   -5.3204    1.9938 H   0  0  0  0  0  0  0  0  0  0  0  0
    6.5193   -4.9278    3.1286 H   0  0  0  0  0  0  0  0  0  0  0  0
    5.3515   -6.8000    3.6243 H   0  0  0  0  0  0  0  0  0  0  0  0
    6.4453   -2.3926    2.4786 H   0  0  0  0  0  0  0  0  0  0  0  0
    5.3771   -0.3486    3.3256 H   0  0  0  0  0  0  0  0  0  0  0  0
    5.6138   -0.3232    1.6813 H   0  0  0  0  0  0  0  0  0  0  0  0
    1.7416    0.8002    0.9496 H   0  0  0  0  0  0  0  0  0  0  0  0
    0.4428   -0.3341    1.9384 H   0  0  0  0  0  0  0  0  0  0  0  0
    0.1415   -2.1855    3.3769 H   0  0  0  0  0  0  0  0  0  0  0  0
    2.3679   -4.6326    1.4259 H   0  0  0  0  0  0  0  0  0  0  0  0
    2.1932   -2.9222    1.3752 H   0  0  0  0  0  0  0  0  0  0  0  0
    4.3902   -4.6198    0.3512 H   0  0  0  0  0  0  0  0  0  0  0  0
    3.5820   -3.2836   -0.3637 H   0  0  0  0  0  0  0  0  0  0  0  0
    6.2154   -3.2871   -0.8858 H   0  0  0  0  0  0  0  0  0  0  0  0
    6.7656   -4.1139    0.5678 H   0  0  0  0  0  0  0  0  0  0  0  0
    7.1944   -2.4277    0.2940 H   0  0  0  0  0  0  0  0  0  0  0  0
    1.2136   -5.3518    3.7020 H   0  0  0  0  0  0  0  0  0  0  0  0
    4.8576   -0.6870    5.1679 H   0  0  0  0  0  0  0  0  0  0  0  0
    4.7234   -1.4689    6.6998 H   0  0  0  0  0  0  0  0  0  0  0  0
    4.0334   -0.0073    6.4770 H   0  0  0  0  0  0  0  0  0  0  0  0
   -1.7915    0.9784    8.4665 H   0  0  0  0  0  0  0  0  0  0  0  0
   -0.4177    0.4903    9.0486 H   0  0  0  0  0  0  0  0  0  0  0  0
   -1.1071    4.2348    9.4137 H   0  0  0  0  0  0  0  0  0  0  0  0
   -0.9295    2.7118   10.3011 H   0  0  0  0  0  0  0  0  0  0  0  0
   -2.2840    2.9417    9.2486 H   0  0  0  0  0  0  0  0  0  0  0  0
    0.8891    2.3235   10.3719 H   0  0  0  0  0  0  0  0  0  0  0  0
    1.2358    4.9382    8.5368 H   0  0  0  0  0  0  0  0  0  0  0  0
    1.1385    4.2451   10.0598 H   0  0  0  0  0  0  0  0  0  0  0  0
    3.3404    5.2610    9.5184 H   0  0  0  0  0  0  0  0  0  0  0  0
    3.4213    3.6378   10.1502 H   0  0  0  0  0  0  0  0  0  0  0  0
    3.5718    4.4592    7.2428 H   0  0  0  0  0  0  0  0  0  0  0  0
    5.8513    3.4915    9.0169 H   0  0  0  0  0  0  0  0  0  0  0  0
    5.6048    5.1126    8.3646 H   0  0  0  0  0  0  0  0  0  0  0  0
    5.9432    3.7721    7.2759 H   0  0  0  0  0  0  0  0  0  0  0  0
    4.1773    2.0801    6.7644 H   0  0  0  0  0  0  0  0  0  0  0  0
    3.8527    0.5943    8.4251 H   0  0  0  0  0  0  0  0  0  0  0  0
    1.9919    2.9463    6.5602 H   0  0  0  0  0  0  0  0  0  0  0  0
    3.4691   -1.2661    9.3556 H   0  0  0  0  0  0  0  0  0  0  0  0
    2.2090   -2.2400   10.1156 H   0  0  0  0  0  0  0  0  0  0  0  0
    2.3544   -0.5170   10.5314 H   0  0  0  0  0  0  0  0  0  0  0  0
    0.1165    1.5681    3.8699 H   0  0  0  0  0  0  0  0  0  0  0  0
   -3.2607    2.7597    5.0576 H   0  0  0  0  0  0  0  0  0  0  0  0
   -2.4320    1.7996    3.8895 H   0  0  0  0  0  0  0  0  0  0  0  0
   -1.9700    3.4515    4.1795 H   0  0  0  0  0  0  0  0  0  0  0  0
   -2.2515   -0.0105    5.2622 H   0  0  0  0  0  0  0  0  0  0  0  0
   -2.8895    0.6500    6.7723 H   0  0  0  0  0  0  0  0  0  0  0  0
   -2.6129    3.4407    7.5425 H   0  0  0  0  0  0  0  0  0  0  0  0
   -0.6878    4.6985    5.2726 H   0  0  0  0  0  0  0  0  0  0  0  0
    1.1958    5.5651    5.5996 H   0  0  0  0  0  0  0  0  0  0  0  0
    0.0103    3.0737    3.6585 H   0  0  0  0  0  0  0  0  0  0  0  0
    0.9216    4.3996    3.8582 H   0  0  0  0  0  0  0  0  0  0  0  0
    2.1479    2.9252    3.1413 H   0  0  0  0  0  0  0  0  0  0  0  0
    3.8567    3.5208    5.3408 H   0  0  0  0  0  0  0  0  0  0  0  0
    2.9313    4.7295    4.5139 H   0  0  0  0  0  0  0  0  0  0  0  0
    3.9827    3.6798    3.6398 H   0  0  0  0  0  0  0  0  0  0  0  0
    4.0822    1.6737    3.6363 H   0  0  0  0  0  0  0  0  0  0  0  0
  1  2  1  0
  1 66  1  0
  1 67  1  0
  1 68  1  0
  2  3  2  0
  2  4  1  0
  4  5  1  0
  5  6  1  0
  5 69  1  0
  5 70  1  0
  6 28  1  0
  6  7  1  0
  6 71  1  6
  7 30  1  0
  7  8  1  1
  7  9  1  0
  8 72  1  0
  9 10  1  0
 10 11  1  0
 10 73  1  0
 10 74  1  0
 11 23  1  0
 11 12  1  6
 11 14  1  0
 12 13  1  0
 12 75  1  0
 12 76  1  0
 13 77  1  0
 14 26  1  0
 14 15  1  0
 14 78  1  6
 15 16  1  0
 15 79  1  0
 15 80  1  0
 16 17  1  0
 17 64  1  0
 17 18  1  6
 17 19  1  0
 18 81  1  0
 19 20  2  0
 19 82  1  0
 20 21  1  0
 20 83  1  0
 21 28  1  0
 21 22  1  6
 21 30  1  0
 22 23  1  0
 23 24  1  6
 23 28  1  0
 24 25  1  0
 24 84  1  0
 24 85  1  0
 25 26  1  0
 25 86  1  0
 25 87  1  0
 26 27  1  0
 27 88  1  0
 27 89  1  0
 27 90  1  0
 28 29  1  6
 29 91  1  0
 30 31  1  6
 30 32  1  0
 31 92  1  0
 31 93  1  0
 31 94  1  0
 32 47  1  0
 32 64  1  0
 32 33  1  6
 34 33  1  1
 34 52  1  0
 34 56  1  0
 34 35  1  0
 35 36  1  0
 35 95  1  0
 35 96  1  0
 36 57  1  0
 36 37  1  1
 36 38  1  0
 37 97  1  0
 37 98  1  0
 37 99  1  0
 38 46  1  0
 38 39  1  1
 38 40  1  0
 39100  1  0
 40 41  1  0
 40101  1  0
 40102  1  0
 41 42  1  0
 41103  1  0
 41104  1  0
 42 43  1  0
 42 44  1  0
 42105  1  6
 43106  1  0
 43107  1  0
 43108  1  0
 44 45  1  0
 44 46  1  0
 44109  1  6
 45110  1  0
 46 47  1  0
 46111  1  6
 47 48  1  1
 47 52  1  0
 48 49  1  0
 49 50  1  0
 49 51  2  0
 50112  1  0
 50113  1  0
 50114  1  0
 52 53  1  6
 52 54  1  0
 53115  1  0
 54 55  1  6
 54 56  1  0
 54 57  1  0
 55116  1  0
 55117  1  0
 55118  1  0
 56119  1  0
 56120  1  0
 57 58  1  1
 57 59  1  0
 58121  1  0
 59 60  1  0
 59 61  1  0
 59122  1  6
 60123  1  0
 61 62  1  0
 61124  1  0
 61125  1  0
 62 63  1  0
 62 64  1  0
 62126  1  6
 63127  1  0
 63128  1  0
 63129  1  0
 64 65  1  1
 65130  1  0
M  END
>  <i_m_ct_stereo_status>  (66) 
1

>  <s_m_source_file>  (66) 
/var/tmp/pbs.5076255.sched01/tmpu3exd1vk/0t_9me_9p.sdf

>  <i_m_source_file_index>  (66) 
31

>  <i_lp_mmshare_version>  (66) 
48012

>  <i_f3d_flags>  (66) 
2

>  <s_epik_input>  (66) 
TzFbQ0BAXShbQ0gyXTIpKFtDSDJdMylbQ0BAXTQoW09IXSlbQ0BdMyhbQ0gzXSlbQ0BdKFtPSF0pKFtDQEBIXShbT0hdKVtDSDJdW0NASF01W0NIM10pW0NAQF0yKFtDSDNdKVtDQF0oW09IXSkoW0NIMl1bQ0gyXVtDQEBIXShbQ0gzXSlbQ0BIXTZbT0hdKVtDQEBIXTZbQ0BdNChPQyg9TylbQ0gzXSlbQ0BdMShbQ0BdNyhbQ0gzXSlbQ0BdKFtPSF0pKE9bQ0gyXTgpW0NASF05W0NIMl1PQyg9TylbQ0gzXSlbQ0BAXTUoW09IXSlbQ0BdKFtPSF0pKFtDSF09W0NIXTEpT1tDSDJdW0NIXShOKFtDSDNdKVtDSDJdW0NIMl0yKVtDQF04KFtDSDJdW09IXSlbQ0BdMihPMilbQ0BAXTkoW0NAXTEyNylbT0hd

>  <s_epik_cmdline>  (66) 
J2VwaWtfcHl0aG9uJywgJy1waHQnLCAnMi4wJywgJy1waCcsICc3LjAnLCAnLXRuJywgJzgnLCAnLW1hJywgJzIwMCcsICctaW1hZScsICc8aW5maWxlLm1hZT4nLCAnLW9tYWUnLCAnPG91dGZpbGUubWFlPic=

>  <r_epik_Ionization_Penalty>  (66) 
0.505529

>  <r_epik_Ionization_Penalty_Charging>  (66) 
0

>  <r_epik_Ionization_Penalty_Neutral>  (66) 
0.505529

>  <r_epik_State_Penalty>  (66) 
0.512341

>  <r_epik_Charging_Adjusted_Penalty>  (66) 
0.512341

>  <i_epik_Tot_Q>  (66) 
0

>  <i_epik_Tot_abs_Q>  (66) 
0

>  <s_epik_Chemistry_Notes>  (66) 
This compound has an ester and may undergo hydrolysis at high or low pH.

>  <s_lp_Force_Field>  (66) 
OPLS3e

>  <r_lp_Energy>  (66) 
754.062

>  <b_lp_Chiralities_Consistent>  (66) 
0

>  <s_lp_Variant>  (66) 
23:0-2

>  <s_i_glide_gridfile>  (66) 
pfpi4k_grid

>  <i_i_glide_lignum>  (66) 
31

>  <i_i_glide_rotatable_bonds>  (66) 
16

>  <r_i_docking_score>  (66) 
-2.88465

>  <r_i_glide_ligand_efficiency>  (66) 
-0.0443793

>  <r_i_glide_ligand_efficiency_sa>  (66) 
-0.178437

>  <r_i_glide_ligand_efficiency_ln>  (66) 
-0.557487

>  <r_i_glide_gscore>  (66) 
-2.88465

>  <r_i_glide_lipo>  (66) 
-0.330756

>  <r_i_glide_hbond>  (66) 
-0.0390962

>  <r_i_glide_metal>  (66) 
-0

>  <r_i_glide_rewards>  (66) 
-0.5

>  <r_i_glide_evdw>  (66) 
-31.6448

>  <r_i_glide_ecoul>  (66) 
-3.44685

>  <r_i_glide_erotb>  (66) 
0.104432

>  <r_i_glide_esite>  (66) 
-0.0199662

>  <r_i_glide_emodel>  (66) 
-44.2178

>  <r_i_glide_energy>  (66) 
-35.0917

>  <r_i_glide_einternal>  (66) 
4.10069

>  <r_i_glide_intrahb_reward>  (66) 
-0.5

>  <i_i_glide_confnum>  (66) 
1

>  <i_i_glide_posenum>  (66) 
8

>  <r_i_glide_eff_state_penalty>  (66) 
0

>  <ligand_id>  (66) 
23

>  <original_smiles>  (66) 
CC(=O)OCC1C2(O)OCC3(CO)C4COC5(O)C=CC6(OC3(CCN4C)C16O)C2(C)C12OC34CC6(C)C7(O)CCC(C)C(O)C7C1(OC(C)=O)C3(O)C(C)(C4)C6(O)C(O)CC(C)C52O

>  <smiles>  (66) 
[H]OC([H])([H])C12C([H])([H])OC3(O[H])C([H])(C([H])([H])OC(=O)C([H])([H])[H])C4(O[H])C56OC41C([H])([H])C([H])([H])N(C([H])([H])[H])C2([H])C([H])([H])OC(O[H])(C([H])=C5[H])C1(O[H])C([H])(C([H])([H])[H])C([H])([H])C([H])(O[H])C2(O[H])C4(C([H])([H])[H])C([H])([H])C57OC1(C(OC(=O)C([H])([H])[H])(C1([H])C([H])(O[H])C([H])(C([H])([H])[H])C([H])([H])C([H])([H])C14O[H])C5(O[H])C2(C([H])([H])[H])C7([H])[H])C36C([H])([H])[H]

$$$$
23:1:2
     RDKit          3D

130141  0  0  1  0  0  0  0  0999 V2000
    0.5072   -4.8966   10.3028 C   0  0  0  0  0  0  0  0  0  0  0  0
    0.0603   -4.3753    8.9375 C   0  0  0  0  0  0  0  0  0  0  0  0
   -1.0116   -3.8026    8.7924 O   0  0  0  0  0  0  0  0  0  0  0  0
    0.9820   -4.5873    7.9792 O   0  0  0  0  0  0  0  0  0  0  0  0
    0.8221   -4.0218    6.6752 C   0  0  0  0  0  0  0  0  0  0  0  0
    2.1768   -3.9850    5.8913 C   0  0  2  0  0  0  0  0  0  0  0  0
    3.0731   -2.8318    6.3772 C   0  0  1  0  0  0  0  0  0  0  0  0
    3.1455   -2.8395    7.7728 O   0  0  0  0  0  0  0  0  0  0  0  0
    4.3368   -3.3919    5.9769 O   0  0  0  0  0  0  0  0  0  0  0  0
    5.1779   -3.1756    4.8044 C   0  0  0  0  0  0  0  0  0  0  0  0
    4.6582   -3.4796    3.3683 C   0  0  2  0  0  0  0  0  0  0  0  0
    5.2950   -4.8843    3.0611 C   0  0  0  0  0  0  0  0  0  0  0  0
    4.8395   -5.8864    3.9531 O   0  0  0  0  0  0  0  0  0  0  0  0
    5.1701   -2.3431    2.2794 C   0  0  2  0  0  0  0  0  0  0  0  0
    4.7735   -0.7551    2.3996 C   0  0  0  0  0  0  0  0  0  0  0  0
    3.4143   -0.2592    2.0672 O   0  0  0  0  0  0  0  0  0  0  0  0
    2.2428    0.3595    2.7381 C   0  0  1  0  0  0  0  0  0  0  0  0
    1.8180    1.2964    1.7855 O   0  0  0  0  0  0  0  0  0  0  0  0
    1.0742   -0.5895    2.7483 C   0  0  0  0  0  0  0  0  0  0  0  0
    0.9435   -1.5891    3.6267 C   0  0  0  0  0  0  0  0  0  0  0  0
    2.1175   -2.1422    4.3910 C   0  0  2  0  0  0  0  0  0  0  0  0
    3.1285   -2.1737    3.5066 O   0  0  0  0  0  0  0  0  0  0  0  0
    3.1182   -3.5500    3.2901 C   0  0  1  0  0  0  0  0  0  0  0  0
    2.6629   -3.6779    1.8104 C   0  0  0  0  0  0  0  0  0  0  0  0
    3.7366   -3.6155    0.6872 C   0  0  0  0  0  0  0  0  0  0  0  0
    4.8957   -2.7359    0.8905 N   0  0  0  0  0  0  0  0  0  0  0  0
    6.0701   -3.1686    0.1279 C   0  0  0  0  0  0  0  0  0  0  0  0
    2.0329   -3.6706    4.4183 C   0  0  1  0  0  0  0  0  0  0  0  0
    0.8766   -4.3467    3.9676 O   0  0  0  0  0  0  0  0  0  0  0  0
    2.7739   -1.3741    5.6279 C   0  0  2  0  0  0  0  0  0  0  0  0
    4.1821   -0.7709    5.9400 C   0  0  0  0  0  0  0  0  0  0  0  0
    1.8396    0.0255    5.6605 C   0  0  1  0  0  0  0  0  0  0  0  0
    0.4513   -0.4815    6.2400 O   0  0  0  0  0  0  0  0  0  0  0  0
   -0.6114    0.3878    6.9912 C   0  0  2  0  0  0  0  0  0  0  0  0
   -0.6040    1.1813    8.4103 C   0  0  0  0  0  0  0  0  0  0  0  0
   -0.2543    2.7351    8.3292 C   0  0  1  0  0  0  0  0  0  0  0  0
   -1.0072    3.3671    9.5558 C   0  0  0  0  0  0  0  0  0  0  0  0
    1.3023    2.9294    8.5603 C   0  0  2  0  0  0  0  0  0  0  0  0
    1.6185    2.2260    9.7512 O   0  0  0  0  0  0  0  0  0  0  0  0
    1.7754    4.3323    9.0889 C   0  0  0  0  0  0  0  0  0  0  0  0
    3.3056    4.4782    9.1897 C   0  0  0  0  0  0  0  0  0  0  0  0
    4.0275    4.0116    7.9176 C   0  0  1  0  0  0  0  0  0  0  0  0
    5.5391    4.2831    7.9633 C   0  0  0  0  0  0  0  0  0  0  0  0
    3.6865    2.5336    7.5818 C   0  0  1  0  0  0  0  0  0  0  0  0
    4.2463    1.7236    8.5998 O   0  0  0  0  0  0  0  0  0  0  0  0
    2.1402    2.3785    7.3283 C   0  0  1  0  0  0  0  0  0  0  0  0
    1.4735    1.0426    6.7168 C   0  0  2  0  0  0  0  0  0  0  0  0
    2.0387    0.2939    7.8918 O   0  0  0  0  0  0  0  0  0  0  0  0
    1.6640   -0.7304    8.7455 C   0  0  0  0  0  0  0  0  0  0  0  0
    2.6795   -0.9760    9.8507 C   0  0  0  0  0  0  0  0  0  0  0  0
    0.6425   -1.4107    8.7150 O   0  0  0  0  0  0  0  0  0  0  0  0
   -0.0615    1.2277    5.9717 C   0  0  1  0  0  0  0  0  0  0  0  0
   -0.2887    0.9033    4.5756 O   0  0  0  0  0  0  0  0  0  0  0  0
   -1.3503    2.1215    6.1088 C   0  0  1  0  0  0  0  0  0  0  0  0
   -2.3384    2.6193    4.9938 C   0  0  0  0  0  0  0  0  0  0  0  0
   -1.9767    0.7342    6.4781 C   0  0  0  0  0  0  0  0  0  0  0  0
   -0.8439    3.2994    6.9318 C   0  0  1  0  0  0  0  0  0  0  0  0
   -1.9654    4.1134    7.2352 O   0  0  0  0  0  0  0  0  0  0  0  0
    0.0231    4.1562    5.8520 C   0  0  1  0  0  0  0  0  0  0  0  0
    0.8284    5.2030    6.3171 O   0  0  0  0  0  0  0  0  0  0  0  0
    0.6261    3.5577    4.4762 C   0  0  0  0  0  0  0  0  0  0  0  0
    1.9918    2.7552    4.2051 C   0  0  1  0  0  0  0  0  0  0  0  0
    3.1619    3.7983    4.3645 C   0  0  0  0  0  0  0  0  0  0  0  0
    2.3293    1.0619    4.2756 C   0  0  2  0  0  0  0  0  0  0  0  0
    3.6901    1.3203    4.3826 O   0  0  0  0  0  0  0  0  0  0  0  0
    1.4935   -4.5150   10.5637 H   0  0  0  0  0  0  0  0  0  0  0  0
    0.5419   -5.9825   10.2874 H   0  0  0  0  0  0  0  0  0  0  0  0
   -0.1915   -4.5757   11.0764 H   0  0  0  0  0  0  0  0  0  0  0  0
    0.0811   -4.6540    6.1857 H   0  0  0  0  0  0  0  0  0  0  0  0
    0.4017   -3.0161    6.7056 H   0  0  0  0  0  0  0  0  0  0  0  0
    2.6767   -4.9464    6.0221 H   0  0  0  0  0  0  0  0  0  0  0  0
    3.8294   -2.2261    8.0033 H   0  0  0  0  0  0  0  0  0  0  0  0
    5.7501   -2.2611    4.8105 H   0  0  0  0  0  0  0  0  0  0  0  0
    6.0130   -3.8405    5.0342 H   0  0  0  0  0  0  0  0  0  0  0  0
    5.0956   -5.2671    2.0671 H   0  0  0  0  0  0  0  0  0  0  0  0
    6.3879   -4.8397    3.1229 H   0  0  0  0  0  0  0  0  0  0  0  0
    5.2887   -6.6986    3.7497 H   0  0  0  0  0  0  0  0  0  0  0  0
    6.2549   -2.3297    2.4034 H   0  0  0  0  0  0  0  0  0  0  0  0
    5.2199   -0.2648    3.2448 H   0  0  0  0  0  0  0  0  0  0  0  0
    5.3496   -0.2848    1.5917 H   0  0  0  0  0  0  0  0  0  0  0  0
    1.4741    0.8054    1.0406 H   0  0  0  0  0  0  0  0  0  0  0  0
    0.2145   -0.2944    2.1739 H   0  0  0  0  0  0  0  0  0  0  0  0
    0.0053   -2.1061    3.6812 H   0  0  0  0  0  0  0  0  0  0  0  0
    2.1350   -4.6170    1.6667 H   0  0  0  0  0  0  0  0  0  0  0  0
    1.9356   -2.9072    1.5764 H   0  0  0  0  0  0  0  0  0  0  0  0
    4.0766   -4.6268    0.4658 H   0  0  0  0  0  0  0  0  0  0  0  0
    3.2315   -3.3136   -0.2334 H   0  0  0  0  0  0  0  0  0  0  0  0
    5.8151   -3.3200   -0.9201 H   0  0  0  0  0  0  0  0  0  0  0  0
    6.4715   -4.1050    0.5109 H   0  0  0  0  0  0  0  0  0  0  0  0
    6.8619   -2.4214    0.1677 H   0  0  0  0  0  0  0  0  0  0  0  0
    1.0622   -5.2701    4.0812 H   0  0  0  0  0  0  0  0  0  0  0  0
    4.8225   -0.5517    5.1201 H   0  0  0  0  0  0  0  0  0  0  0  0
    4.7981   -1.2810    6.6789 H   0  0  0  0  0  0  0  0  0  0  0  0
    4.0724    0.1629    6.4624 H   0  0  0  0  0  0  0  0  0  0  0  0
   -1.6168    1.1537    8.7955 H   0  0  0  0  0  0  0  0  0  0  0  0
   -0.2032    0.7166    9.2910 H   0  0  0  0  0  0  0  0  0  0  0  0
   -0.9030    4.4567    9.5951 H   0  0  0  0  0  0  0  0  0  0  0  0
   -0.6524    2.9696   10.5111 H   0  0  0  0  0  0  0  0  0  0  0  0
   -2.0796    3.1506    9.5474 H   0  0  0  0  0  0  0  0  0  0  0  0
    1.5592    1.2996    9.5722 H   0  0  0  0  0  0  0  0  0  0  0  0
    1.3700    5.1720    8.5475 H   0  0  0  0  0  0  0  0  0  0  0  0
    1.3868    4.5064   10.0943 H   0  0  0  0  0  0  0  0  0  0  0  0
    3.5448    5.5233    9.3833 H   0  0  0  0  0  0  0  0  0  0  0  0
    3.6735    3.9214   10.0541 H   0  0  0  0  0  0  0  0  0  0  0  0
    3.6447    4.6471    7.1214 H   0  0  0  0  0  0  0  0  0  0  0  0
    6.0300    3.7500    8.7787 H   0  0  0  0  0  0  0  0  0  0  0  0
    5.7328    5.3483    8.0946 H   0  0  0  0  0  0  0  0  0  0  0  0
    6.0127    3.9795    7.0280 H   0  0  0  0  0  0  0  0  0  0  0  0
    4.2322    2.2633    6.6849 H   0  0  0  0  0  0  0  0  0  0  0  0
    4.1211    0.8184    8.3471 H   0  0  0  0  0  0  0  0  0  0  0  0
    2.0306    3.1104    6.5741 H   0  0  0  0  0  0  0  0  0  0  0  0
    3.6929   -0.9713    9.4441 H   0  0  0  0  0  0  0  0  0  0  0  0
    2.4986   -1.9695   10.2689 H   0  0  0  0  0  0  0  0  0  0  0  0
    2.6076   -0.2384   10.6500 H   0  0  0  0  0  0  0  0  0  0  0  0
    0.1089    1.5882    4.0623 H   0  0  0  0  0  0  0  0  0  0  0  0
   -3.3099    2.8465    5.4330 H   0  0  0  0  0  0  0  0  0  0  0  0
   -2.5434    1.8588    4.2400 H   0  0  0  0  0  0  0  0  0  0  0  0
   -2.0812    3.5220    4.4484 H   0  0  0  0  0  0  0  0  0  0  0  0
   -2.2763    0.0951    5.6426 H   0  0  0  0  0  0  0  0  0  0  0  0
   -2.8102    0.8234    7.1694 H   0  0  0  0  0  0  0  0  0  0  0  0
   -2.4738    3.6863    7.9120 H   0  0  0  0  0  0  0  0  0  0  0  0
   -0.7434    4.8019    5.4244 H   0  0  0  0  0  0  0  0  0  0  0  0
    1.6452    4.8408    6.6343 H   0  0  0  0  0  0  0  0  0  0  0  0
   -0.1341    3.1507    3.8200 H   0  0  0  0  0  0  0  0  0  0  0  0
    0.7829    4.4857    3.9233 H   0  0  0  0  0  0  0  0  0  0  0  0
    1.9544    2.9785    3.1580 H   0  0  0  0  0  0  0  0  0  0  0  0
    3.8232    3.6559    5.2078 H   0  0  0  0  0  0  0  0  0  0  0  0
    2.8251    4.8350    4.4234 H   0  0  0  0  0  0  0  0  0  0  0  0
    3.8052    3.7671    3.4809 H   0  0  0  0  0  0  0  0  0  0  0  0
    3.9507    1.7975    3.5995 H   0  0  0  0  0  0  0  0  0  0  0  0
  1  2  1  0
  1 66  1  0
  1 67  1  0
  1 68  1  0
  2  3  2  0
  2  4  1  0
  4  5  1  0
  5  6  1  0
  5 69  1  0
  5 70  1  0
  6 28  1  0
  6  7  1  0
  6 71  1  6
  7 30  1  0
  7  8  1  1
  7  9  1  0
  8 72  1  0
  9 10  1  0
 10 11  1  0
 10 73  1  0
 10 74  1  0
 11 23  1  0
 11 12  1  6
 11 14  1  0
 12 13  1  0
 12 75  1  0
 12 76  1  0
 13 77  1  0
 14 26  1  0
 14 15  1  0
 14 78  1  6
 15 16  1  0
 15 79  1  0
 15 80  1  0
 16 17  1  0
 17 64  1  0
 17 18  1  6
 17 19  1  0
 18 81  1  0
 19 20  2  0
 19 82  1  0
 20 21  1  0
 20 83  1  0
 21 28  1  0
 21 22  1  6
 21 30  1  0
 22 23  1  0
 23 24  1  6
 23 28  1  0
 24 25  1  0
 24 84  1  0
 24 85  1  0
 25 26  1  0
 25 86  1  0
 25 87  1  0
 26 27  1  0
 27 88  1  0
 27 89  1  0
 27 90  1  0
 28 29  1  6
 29 91  1  0
 30 31  1  6
 30 32  1  0
 31 92  1  0
 31 93  1  0
 31 94  1  0
 32 47  1  0
 32 64  1  0
 32 33  1  6
 34 33  1  1
 34 52  1  0
 34 56  1  0
 34 35  1  0
 35 36  1  0
 35 95  1  0
 35 96  1  0
 36 57  1  0
 36 37  1  1
 36 38  1  0
 37 97  1  0
 37 98  1  0
 37 99  1  0
 38 46  1  0
 38 39  1  1
 38 40  1  0
 39100  1  0
 40 41  1  0
 40101  1  0
 40102  1  0
 41 42  1  0
 41103  1  0
 41104  1  0
 42 43  1  0
 42 44  1  0
 42105  1  6
 43106  1  0
 43107  1  0
 43108  1  0
 44 45  1  0
 44 46  1  0
 44109  1  6
 45110  1  0
 46 47  1  0
 46111  1  6
 47 48  1  1
 47 52  1  0
 48 49  1  0
 49 50  1  0
 49 51  2  0
 50112  1  0
 50113  1  0
 50114  1  0
 52 53  1  6
 52 54  1  0
 53115  1  0
 54 55  1  6
 54 56  1  0
 54 57  1  0
 55116  1  0
 55117  1  0
 55118  1  0
 56119  1  0
 56120  1  0
 57 58  1  1
 57 59  1  0
 58121  1  0
 59 60  1  0
 59 61  1  0
 59122  1  6
 60123  1  0
 61 62  1  0
 61124  1  0
 61125  1  0
 62 63  1  0
 62 64  1  0
 62126  1  6
 63127  1  0
 63128  1  0
 63129  1  0
 64 65  1  1
 65130  1  0
M  END
>  <i_m_ct_stereo_status>  (67) 
1

>  <s_m_source_file>  (67) 
/var/tmp/pbs.5076255.sched01/tmpu3exd1vk/0t_9me_9p.sdf

>  <i_m_source_file_index>  (67) 
31

>  <i_lp_mmshare_version>  (67) 
48012

>  <i_f3d_flags>  (67) 
2

>  <s_epik_input>  (67) 
TzFbQ0BAXShbQ0gyXTIpKFtDSDJdMylbQ0BAXTQoW09IXSlbQ0BdMyhbQ0gzXSlbQ0BdKFtPSF0pKFtDQEBIXShbT0hdKVtDSDJdW0NASF01W0NIM10pW0NAQF0yKFtDSDNdKVtDQF0oW09IXSkoW0NIMl1bQ0gyXVtDQEBIXShbQ0gzXSlbQ0BIXTZbT0hdKVtDQEBIXTZbQ0BdNChPQyg9TylbQ0gzXSlbQ0BdMShbQ0BdNyhbQ0gzXSlbQ0BdKFtPSF0pKE9bQ0gyXTgpW0NASF05W0NIMl1PQyg9TylbQ0gzXSlbQ0BAXTUoW09IXSlbQ0BdKFtPSF0pKFtDSF09W0NIXTEpT1tDSDJdW0NIXShOKFtDSDNdKVtDSDJdW0NIMl0yKVtDQF04KFtDSDJdW09IXSlbQ0BdMihPMilbQ0BAXTkoW0NAXTEyNylbT0hd

>  <s_epik_cmdline>  (67) 
J2VwaWtfcHl0aG9uJywgJy1waHQnLCAnMi4wJywgJy1waCcsICc3LjAnLCAnLXRuJywgJzgnLCAnLW1hJywgJzIwMCcsICctaW1hZScsICc8aW5maWxlLm1hZT4nLCAnLW9tYWUnLCAnPG91dGZpbGUubWFlPic=

>  <r_epik_Ionization_Penalty>  (67) 
0.505529

>  <r_epik_Ionization_Penalty_Charging>  (67) 
0

>  <r_epik_Ionization_Penalty_Neutral>  (67) 
0.505529

>  <r_epik_State_Penalty>  (67) 
0.512341

>  <r_epik_Charging_Adjusted_Penalty>  (67) 
0.512341

>  <i_epik_Tot_Q>  (67) 
0

>  <i_epik_Tot_abs_Q>  (67) 
0

>  <s_epik_Chemistry_Notes>  (67) 
This compound has an ester and may undergo hydrolysis at high or low pH.

>  <s_lp_Force_Field>  (67) 
OPLS3e

>  <r_lp_Energy>  (67) 
754.062

>  <b_lp_Chiralities_Consistent>  (67) 
0

>  <s_lp_Variant>  (67) 
23:0-2

>  <s_i_glide_gridfile>  (67) 
pfpi4k_grid

>  <i_i_glide_lignum>  (67) 
31

>  <i_i_glide_rotatable_bonds>  (67) 
16

>  <r_i_docking_score>  (67) 
-2.40432

>  <r_i_glide_ligand_efficiency>  (67) 
-0.0369895

>  <r_i_glide_ligand_efficiency_sa>  (67) 
-0.148725

>  <r_i_glide_ligand_efficiency_ln>  (67) 
-0.464658

>  <r_i_glide_gscore>  (67) 
-2.40432

>  <r_i_glide_lipo>  (67) 
-0.288468

>  <r_i_glide_hbond>  (67) 
-0.0840628

>  <r_i_glide_metal>  (67) 
-0

>  <r_i_glide_rewards>  (67) 
0

>  <r_i_glide_evdw>  (67) 
-31.3137

>  <r_i_glide_ecoul>  (67) 
-3.66344

>  <r_i_glide_erotb>  (67) 
0.104432

>  <r_i_glide_esite>  (67) 
-0.0210202

>  <r_i_glide_emodel>  (67) 
-38.0664

>  <r_i_glide_energy>  (67) 
-34.9771

>  <r_i_glide_einternal>  (67) 
3.7252

>  <r_i_glide_intrahb_reward>  (67) 
-0

>  <i_i_glide_confnum>  (67) 
1

>  <i_i_glide_posenum>  (67) 
1

>  <r_i_glide_eff_state_penalty>  (67) 
0

>  <ligand_id>  (67) 
23

>  <original_smiles>  (67) 
CC(=O)OCC1C2(O)OCC3(CO)C4COC5(O)C=CC6(OC3(CCN4C)C16O)C2(C)C12OC34CC6(C)C7(O)CCC(C)C(O)C7C1(OC(C)=O)C3(O)C(C)(C4)C6(O)C(O)CC(C)C52O

>  <smiles>  (67) 
[H]OC([H])([H])C12C([H])([H])OC3(O[H])C([H])(C([H])([H])OC(=O)C([H])([H])[H])C4(O[H])C56OC41C([H])([H])C([H])([H])N(C([H])([H])[H])C2([H])C([H])([H])OC(O[H])(C([H])=C5[H])C1(O[H])C([H])(C([H])([H])[H])C([H])([H])C([H])(O[H])C2(O[H])C4(C([H])([H])[H])C([H])([H])C57OC1(C(OC(=O)C([H])([H])[H])(C1([H])C([H])(O[H])C([H])(C([H])([H])[H])C([H])([H])C([H])([H])C14O[H])C5(O[H])C2(C([H])([H])[H])C7([H])[H])C36C([H])([H])[H]

$$$$
24:0:0
     RDKit          3D

 50 54  0  0  1  0  0  0  0  0999 V2000
    3.4054    0.5516    1.6182 C   0  0  0  0  0  0  0  0  0  0  0  0
    3.4083   -0.1968    2.8535 O   0  0  0  0  0  0  0  0  0  0  0  0
    4.4098   -1.2020    3.1239 C   0  0  1  0  0  0  0  0  0  0  0  0
    5.8502   -0.6669    2.8879 C   0  0  0  0  0  0  0  0  0  0  0  0
    4.2079   -1.4925    4.6231 C   0  0  1  0  0  0  0  0  0  0  0  0
    2.8055   -1.4898    5.2376 C   0  0  0  0  0  0  0  0  0  0  0  0
    3.5656   -2.7744    5.1434 C   0  0  1  0  0  0  0  0  0  0  0  0
    3.2299   -3.9142    4.1999 C   0  0  0  0  0  0  0  0  0  0  0  0
    4.4059   -4.9249    4.2630 C   0  0  0  0  0  0  0  0  0  0  0  0
    1.9638   -4.6295    4.7142 C   0  0  0  0  0  0  0  0  0  0  0  0
    2.9998   -3.3444    2.7585 C   0  0  2  0  0  0  0  0  0  0  0  0
    2.6271   -4.4047    1.7090 C   0  0  0  0  0  0  0  0  0  0  0  0
    2.6620   -3.8180    0.3286 C   0  0  0  0  0  0  0  0  0  0  0  0
    3.4721   -2.7644    0.0062 C   0  0  0  0  0  0  0  0  0  0  0  0
    3.4840   -2.1765   -1.3308 C   0  0  0  0  0  0  0  0  0  0  0  0
    4.2279   -1.0097   -1.6632 C   0  0  0  0  0  0  0  0  0  0  0  0
    4.1232   -0.4560   -2.9517 C   0  0  0  0  0  0  0  0  0  0  0  0
    3.3568   -1.0942   -3.9495 C   0  0  0  0  0  0  0  0  0  0  0  0
    2.6167   -2.2565   -3.6135 C   0  0  0  0  0  0  0  0  0  0  0  0
    2.6489   -2.7541   -2.2881 C   0  0  0  0  0  0  0  0  0  0  0  0
    1.8157   -3.8281   -1.9048 N   0  0  0  0  0  0  0  0  0  0  0  0
    1.8149   -4.4377   -0.7197 C   0  0  0  0  0  0  0  0  0  0  0  0
    1.1528   -5.4697   -0.5329 O   0  0  0  0  0  0  0  0  0  0  0  0
    4.3216   -2.1722    0.9051 O   0  0  0  0  0  0  0  0  0  0  0  0
    4.2367   -2.5112    2.2951 C   0  0  1  0  0  0  0  0  0  0  0  0
    1.2660   -4.2587   -2.6686 H   0  0  0  0  0  0  0  0  0  0  0  0
    2.6846    1.3977    1.6374 H   0  0  0  0  0  0  0  0  0  0  0  0
    3.1709   -0.0269    0.7282 H   0  0  0  0  0  0  0  0  0  0  0  0
    4.4129    0.8950    1.3891 H   0  0  0  0  0  0  0  0  0  0  0  0
    6.6032   -1.4375    3.0210 H   0  0  0  0  0  0  0  0  0  0  0  0
    6.0648    0.2014    3.5203 H   0  0  0  0  0  0  0  0  0  0  0  0
    6.0675   -0.4221    1.8529 H   0  0  0  0  0  0  0  0  0  0  0  0
    4.9378   -1.0346    5.2783 H   0  0  0  0  0  0  0  0  0  0  0  0
    2.7049   -1.0862    6.2426 H   0  0  0  0  0  0  0  0  0  0  0  0
    1.9442   -1.3747    4.5873 H   0  0  0  0  0  0  0  0  0  0  0  0
    3.9234   -3.1099    6.1141 H   0  0  0  0  0  0  0  0  0  0  0  0
    4.2716   -5.7622    3.5833 H   0  0  0  0  0  0  0  0  0  0  0  0
    4.5265   -5.3534    5.2611 H   0  0  0  0  0  0  0  0  0  0  0  0
    5.3609   -4.4617    4.0200 H   0  0  0  0  0  0  0  0  0  0  0  0
    1.7624   -5.5291    4.1325 H   0  0  0  0  0  0  0  0  0  0  0  0
    1.0924   -3.9793    4.6294 H   0  0  0  0  0  0  0  0  0  0  0  0
    2.0542   -4.9357    5.7631 H   0  0  0  0  0  0  0  0  0  0  0  0
    2.1398   -2.6697    2.8046 H   0  0  0  0  0  0  0  0  0  0  0  0
    3.3241   -5.2476    1.7102 H   0  0  0  0  0  0  0  0  0  0  0  0
    1.6273   -4.7904    1.9565 H   0  0  0  0  0  0  0  0  0  0  0  0
    4.7892   -0.4766   -0.9207 H   0  0  0  0  0  0  0  0  0  0  0  0
    4.5783    0.5000   -3.1651 H   0  0  0  0  0  0  0  0  0  0  0  0
    3.2496   -0.6590   -4.9234 H   0  0  0  0  0  0  0  0  0  0  0  0
    1.9656   -2.7232   -4.3229 H   0  0  0  0  0  0  0  0  0  0  0  0
    5.1094   -3.1479    2.4404 H   0  0  0  0  0  0  0  0  0  0  0  0
  1  2  1  0
  1 27  1  0
  1 28  1  0
  1 29  1  0
  3  2  1  6
  3 25  1  0
  3  4  1  0
  3  5  1  0
  4 30  1  0
  4 31  1  0
  4 32  1  0
  5  7  1  0
  5  6  1  0
  5 33  1  1
  6  7  1  0
  6 34  1  0
  6 35  1  0
  7  8  1  0
  7 36  1  1
  8  9  1  0
  8 10  1  0
  8 11  1  0
  9 37  1  0
  9 38  1  0
  9 39  1  0
 10 40  1  0
 10 41  1  0
 10 42  1  0
 11 25  1  0
 11 12  1  0
 11 43  1  1
 12 13  1  0
 12 44  1  0
 12 45  1  0
 13 22  1  0
 13 14  2  0
 14 15  1  0
 14 24  1  0
 15 20  2  0
 15 16  1  0
 16 17  2  0
 16 46  1  0
 17 18  1  0
 17 47  1  0
 18 19  2  0
 18 48  1  0
 19 20  1  0
 19 49  1  0
 20 21  1  0
 21 26  1  0
 21 22  1  0
 22 23  2  0
 24 25  1  0
 25 50  1  1
M  END
>  <i_m_ct_stereo_status>  (68) 
1

>  <s_m_source_file>  (68) 
/var/tmp/pbs.5076255.sched01/tmpu3exd1vk/0t_9me_9p.sdf

>  <i_m_source_file_index>  (68) 
32

>  <i_lp_mmshare_version>  (68) 
48012

>  <i_f3d_flags>  (68) 
0

>  <s_epik_input>  (68) 
W0NASF0xMltDQEBIXShbQ0gyXTIpQyhbQ0gzXSkoW0NIM10pW0NASF0zW0NASF0oW0NAQF0xKFtDSDNdKU9bQ0gzXSlPYzRjKFtDSDJdMyljKD1PKVtuSF1jNWM0W2NIXVtjSF1bY0hdW2NIXTU=

>  <s_epik_cmdline>  (68) 
J2VwaWtfcHl0aG9uJywgJy1waHQnLCAnMi4wJywgJy1waCcsICc3LjAnLCAnLXRuJywgJzgnLCAnLW1hJywgJzIwMCcsICctaW1hZScsICc8aW5maWxlLm1hZT4nLCAnLW9tYWUnLCAnPG91dGZpbGUubWFlPic=

>  <r_lp_tautomer_probability>  (68) 
1

>  <r_epik_Ionization_Penalty>  (68) 
8.09064e-07

>  <r_epik_Ionization_Penalty_Charging>  (68) 
8.09061e-07

>  <r_epik_Ionization_Penalty_Neutral>  (68) 
3.7227e-12

>  <r_epik_State_Penalty>  (68) 
-0

>  <r_epik_Charging_Adjusted_Penalty>  (68) 
8.09061e-07

>  <i_epik_Tot_Q>  (68) 
0

>  <i_epik_Tot_abs_Q>  (68) 
0

>  <s_lp_Force_Field>  (68) 
OPLS3e

>  <r_lp_Energy>  (68) 
42.3706

>  <b_lp_Chiralities_Consistent>  (68) 
1

>  <s_lp_Variant>  (68) 
24:0-1

>  <s_i_glide_gridfile>  (68) 
pfpi4k_grid

>  <i_i_glide_lignum>  (68) 
32

>  <i_i_glide_rotatable_bonds>  (68) 
1

>  <r_i_docking_score>  (68) 
-4.27423

>  <r_i_glide_ligand_efficiency>  (68) 
-0.170969

>  <r_i_glide_ligand_efficiency_sa>  (68) 
-0.499916

>  <r_i_glide_ligand_efficiency_ln>  (68) 
-1.01312

>  <r_i_glide_gscore>  (68) 
-4.27423

>  <r_i_glide_lipo>  (68) 
-0.860784

>  <r_i_glide_hbond>  (68) 
-0.700764

>  <r_i_glide_metal>  (68) 
-0

>  <r_i_glide_rewards>  (68) 
-1.09481

>  <r_i_glide_evdw>  (68) 
-10.7733

>  <r_i_glide_ecoul>  (68) 
-7.11025

>  <r_i_glide_erotb>  (68) 
0

>  <r_i_glide_esite>  (68) 
-0.0126649

>  <r_i_glide_emodel>  (68) 
-19.9993

>  <r_i_glide_energy>  (68) 
-17.8836

>  <r_i_glide_einternal>  (68) 
7.87576

>  <r_i_glide_intrahb_reward>  (68) 
-0

>  <i_i_glide_confnum>  (68) 
2

>  <i_i_glide_posenum>  (68) 
15

>  <r_i_glide_eff_state_penalty>  (68) 
0

>  <ligand_id>  (68) 
24

>  <original_smiles>  (68) 
COC1(C)C2CC2C(C)(C)C2Cc3c(c4ccccc4[nH]c3=O)OC21

>  <smiles>  (68) 
[H]c1c([H])c([H])c2c(c1[H])c1c(c(=O)n2[H])C([H])([H])C2([H])C([H])(O1)C(OC([H])([H])[H])(C([H])([H])[H])C1([H])C([H])([H])C1([H])C2(C([H])([H])[H])C([H])([H])[H]

$$$$
24:0:1
     RDKit          3D

 50 54  0  0  1  0  0  0  0  0999 V2000
    7.6040   -5.6504    5.4954 C   0  0  0  0  0  0  0  0  0  0  0  0
    6.7824   -5.9538    4.3708 O   0  0  0  0  0  0  0  0  0  0  0  0
    7.2598   -6.9413    3.4482 C   0  0  1  0  0  0  0  0  0  0  0  0
    8.6763   -6.5688    2.9549 C   0  0  0  0  0  0  0  0  0  0  0  0
    7.2318   -8.3044    4.1541 C   0  0  1  0  0  0  0  0  0  0  0  0
    6.1413   -8.5995    5.1782 C   0  0  0  0  0  0  0  0  0  0  0  0
    6.1584   -9.3411    3.8775 C   0  0  1  0  0  0  0  0  0  0  0  0
    5.1316   -9.1348    2.7679 C   0  0  0  0  0  0  0  0  0  0  0  0
    5.6510   -9.8863    1.5162 C   0  0  0  0  0  0  0  0  0  0  0  0
    3.7942   -9.7715    3.2005 C   0  0  0  0  0  0  0  0  0  0  0  0
    4.9375   -7.6045    2.5080 C   0  0  2  0  0  0  0  0  0  0  0  0
    3.9056   -7.2735    1.4162 C   0  0  0  0  0  0  0  0  0  0  0  0
    3.9306   -5.8000    1.0694 C   0  0  0  0  0  0  0  0  0  0  0  0
    5.0311   -5.0454    1.3069 C   0  0  0  0  0  0  0  0  0  0  0  0
    5.0787   -3.6204    0.9714 C   0  0  0  0  0  0  0  0  0  0  0  0
    6.2136   -2.8140    1.1987 C   0  0  0  0  0  0  0  0  0  0  0  0
    6.1818   -1.4499    0.8511 C   0  0  0  0  0  0  0  0  0  0  0  0
    5.0214   -0.8974    0.2764 C   0  0  0  0  0  0  0  0  0  0  0  0
    3.8914   -1.7042    0.0437 C   0  0  0  0  0  0  0  0  0  0  0  0
    3.9253   -3.0666    0.3950 C   0  0  0  0  0  0  0  0  0  0  0  0
    2.8002   -3.8929    0.1702 N   0  0  0  0  0  0  0  0  0  0  0  0
    2.7154   -5.2047    0.4805 C   0  0  0  0  0  0  0  0  0  0  0  0
    1.6654   -5.8227    0.2786 O   0  0  0  0  0  0  0  0  0  0  0  0
    6.1881   -5.5212    1.8715 O   0  0  0  0  0  0  0  0  0  0  0  0
    6.2880   -6.9011    2.2336 C   0  0  1  0  0  0  0  0  0  0  0  0
    2.0046   -3.4441   -0.2610 H   0  0  0  0  0  0  0  0  0  0  0  0
    7.0538   -4.9876    6.1627 H   0  0  0  0  0  0  0  0  0  0  0  0
    8.5180   -5.1303    5.2076 H   0  0  0  0  0  0  0  0  0  0  0  0
    7.8773   -6.5395    6.0641 H   0  0  0  0  0  0  0  0  0  0  0  0
    8.9902   -7.2055    2.1298 H   0  0  0  0  0  0  0  0  0  0  0  0
    9.4394   -6.6532    3.7298 H   0  0  0  0  0  0  0  0  0  0  0  0
    8.6946   -5.5445    2.5877 H   0  0  0  0  0  0  0  0  0  0  0  0
    8.2110   -8.6852    4.4356 H   0  0  0  0  0  0  0  0  0  0  0  0
    6.4335   -9.1607    6.0612 H   0  0  0  0  0  0  0  0  0  0  0  0
    5.3510   -7.8671    5.3350 H   0  0  0  0  0  0  0  0  0  0  0  0
    6.4652  -10.3799    3.9812 H   0  0  0  0  0  0  0  0  0  0  0  0
    4.9843   -9.7869    0.6624 H   0  0  0  0  0  0  0  0  0  0  0  0
    5.7367  -10.9590    1.7061 H   0  0  0  0  0  0  0  0  0  0  0  0
    6.6419   -9.5534    1.2081 H   0  0  0  0  0  0  0  0  0  0  0  0
    3.0690   -9.7701    2.3863 H   0  0  0  0  0  0  0  0  0  0  0  0
    3.3527   -9.2294    4.0377 H   0  0  0  0  0  0  0  0  0  0  0  0
    3.9188  -10.8122    3.5102 H   0  0  0  0  0  0  0  0  0  0  0  0
    4.5379   -7.1549    3.4166 H   0  0  0  0  0  0  0  0  0  0  0  0
    4.0796   -7.8294    0.4947 H   0  0  0  0  0  0  0  0  0  0  0  0
    2.9130   -7.5436    1.7810 H   0  0  0  0  0  0  0  0  0  0  0  0
    7.1013   -3.2338    1.6415 H   0  0  0  0  0  0  0  0  0  0  0  0
    7.0404   -0.8220    1.0300 H   0  0  0  0  0  0  0  0  0  0  0  0
    4.9859    0.1445    0.0165 H   0  0  0  0  0  0  0  0  0  0  0  0
    3.0109   -1.2660   -0.3998 H   0  0  0  0  0  0  0  0  0  0  0  0
    6.7607   -7.3889    1.3810 H   0  0  0  0  0  0  0  0  0  0  0  0
  1  2  1  0
  1 27  1  0
  1 28  1  0
  1 29  1  0
  3  2  1  1
  3 25  1  0
  3  4  1  0
  3  5  1  0
  4 30  1  0
  4 31  1  0
  4 32  1  0
  5  7  1  0
  5  6  1  0
  5 33  1  1
  6  7  1  0
  6 34  1  0
  6 35  1  0
  7  8  1  0
  7 36  1  1
  8  9  1  0
  8 10  1  0
  8 11  1  0
  9 37  1  0
  9 38  1  0
  9 39  1  0
 10 40  1  0
 10 41  1  0
 10 42  1  0
 11 25  1  0
 11 12  1  0
 11 43  1  1
 12 13  1  0
 12 44  1  0
 12 45  1  0
 13 22  1  0
 13 14  2  0
 14 15  1  0
 14 24  1  0
 15 20  2  0
 15 16  1  0
 16 17  2  0
 16 46  1  0
 17 18  1  0
 17 47  1  0
 18 19  2  0
 18 48  1  0
 19 20  1  0
 19 49  1  0
 20 21  1  0
 21 26  1  0
 21 22  1  0
 22 23  2  0
 24 25  1  0
 25 50  1  6
M  END
>  <i_m_ct_stereo_status>  (69) 
1

>  <s_m_source_file>  (69) 
/var/tmp/pbs.5076255.sched01/tmpu3exd1vk/0t_9me_9p.sdf

>  <i_m_source_file_index>  (69) 
32

>  <i_lp_mmshare_version>  (69) 
48012

>  <i_f3d_flags>  (69) 
0

>  <s_epik_input>  (69) 
W0NASF0xMltDQEBIXShbQ0gyXTIpQyhbQ0gzXSkoW0NIM10pW0NASF0zW0NASF0oW0NAQF0xKFtDSDNdKU9bQ0gzXSlPYzRjKFtDSDJdMyljKD1PKVtuSF1jNWM0W2NIXVtjSF1bY0hdW2NIXTU=

>  <s_epik_cmdline>  (69) 
J2VwaWtfcHl0aG9uJywgJy1waHQnLCAnMi4wJywgJy1waCcsICc3LjAnLCAnLXRuJywgJzgnLCAnLW1hJywgJzIwMCcsICctaW1hZScsICc8aW5maWxlLm1hZT4nLCAnLW9tYWUnLCAnPG91dGZpbGUubWFlPic=

>  <r_lp_tautomer_probability>  (69) 
1

>  <r_epik_Ionization_Penalty>  (69) 
8.09064e-07

>  <r_epik_Ionization_Penalty_Charging>  (69) 
8.09061e-07

>  <r_epik_Ionization_Penalty_Neutral>  (69) 
3.7227e-12

>  <r_epik_State_Penalty>  (69) 
-0

>  <r_epik_Charging_Adjusted_Penalty>  (69) 
8.09061e-07

>  <i_epik_Tot_Q>  (69) 
0

>  <i_epik_Tot_abs_Q>  (69) 
0

>  <s_lp_Force_Field>  (69) 
OPLS3e

>  <r_lp_Energy>  (69) 
42.3706

>  <b_lp_Chiralities_Consistent>  (69) 
1

>  <s_lp_Variant>  (69) 
24:0-1

>  <s_i_glide_gridfile>  (69) 
pfpi4k_grid

>  <i_i_glide_lignum>  (69) 
32

>  <i_i_glide_rotatable_bonds>  (69) 
1

>  <r_i_docking_score>  (69) 
-3.4591

>  <r_i_glide_ligand_efficiency>  (69) 
-0.138364

>  <r_i_glide_ligand_efficiency_sa>  (69) 
-0.404579

>  <r_i_glide_ligand_efficiency_ln>  (69) 
-0.819912

>  <r_i_glide_gscore>  (69) 
-3.4591

>  <r_i_glide_lipo>  (69) 
-0.58301

>  <r_i_glide_hbond>  (69) 
-0.101554

>  <r_i_glide_metal>  (69) 
-0

>  <r_i_glide_rewards>  (69) 
-1.09481

>  <r_i_glide_evdw>  (69) 
-21.34

>  <r_i_glide_ecoul>  (69) 
-3.9039

>  <r_i_glide_erotb>  (69) 
0

>  <r_i_glide_esite>  (69) 
-0.0271491

>  <r_i_glide_emodel>  (69) 
-30.822

>  <r_i_glide_energy>  (69) 
-25.2439

>  <r_i_glide_einternal>  (69) 
0.000262378

>  <r_i_glide_intrahb_reward>  (69) 
-0

>  <i_i_glide_confnum>  (69) 
1

>  <i_i_glide_posenum>  (69) 
1

>  <r_i_glide_eff_state_penalty>  (69) 
0

>  <ligand_id>  (69) 
24

>  <original_smiles>  (69) 
COC1(C)C2CC2C(C)(C)C2Cc3c(c4ccccc4[nH]c3=O)OC21

>  <smiles>  (69) 
[H]c1c([H])c([H])c2c(c1[H])c1c(c(=O)n2[H])C([H])([H])C2([H])C([H])(O1)C(OC([H])([H])[H])(C([H])([H])[H])C1([H])C([H])([H])C1([H])C2(C([H])([H])[H])C([H])([H])[H]

$$$$
24:0:2
     RDKit          3D

 50 54  0  0  1  0  0  0  0  0999 V2000
    7.9283   -3.2816    0.6782 C   0  0  0  0  0  0  0  0  0  0  0  0
    7.7822   -4.2937    1.6739 O   0  0  0  0  0  0  0  0  0  0  0  0
    7.8334   -5.7066    1.3636 C   0  0  1  0  0  0  0  0  0  0  0  0
    8.8202   -6.0008    0.1964 C   0  0  0  0  0  0  0  0  0  0  0  0
    8.3531   -6.3597    2.6603 C   0  0  1  0  0  0  0  0  0  0  0  0
    7.9163   -5.8651    4.0272 C   0  0  0  0  0  0  0  0  0  0  0  0
    7.4841   -7.2011    3.5644 C   0  0  1  0  0  0  0  0  0  0  0  0
    6.0372   -7.5450    3.1896 C   0  0  0  0  0  0  0  0  0  0  0  0
    6.0616   -8.9498    2.5389 C   0  0  0  0  0  0  0  0  0  0  0  0
    5.1833   -7.6145    4.4689 C   0  0  0  0  0  0  0  0  0  0  0  0
    5.4891   -6.4312    2.2362 C   0  0  2  0  0  0  0  0  0  0  0  0
    4.0392   -6.6684    1.7818 C   0  0  0  0  0  0  0  0  0  0  0  0
    3.6586   -5.6796    0.7026 C   0  0  0  0  0  0  0  0  0  0  0  0
    4.6009   -5.0661   -0.0477 C   0  0  0  0  0  0  0  0  0  0  0  0
    4.2586   -4.0724   -1.0825 C   0  0  0  0  0  0  0  0  0  0  0  0
    5.1909   -3.5066   -1.9758 C   0  0  0  0  0  0  0  0  0  0  0  0
    4.7489   -2.6367   -2.9800 C   0  0  0  0  0  0  0  0  0  0  0  0
    3.3884   -2.3447   -3.1414 C   0  0  0  0  0  0  0  0  0  0  0  0
    2.4619   -2.9405   -2.2873 C   0  0  0  0  0  0  0  0  0  0  0  0
    2.8993   -3.7850   -1.2457 C   0  0  0  0  0  0  0  0  0  0  0  0
    1.9613   -4.4717   -0.4615 N   0  0  0  0  0  0  0  0  0  0  0  0
    2.2268   -5.3947    0.4932 C   0  0  0  0  0  0  0  0  0  0  0  0
    1.3110   -5.9330    1.1159 O   0  0  0  0  0  0  0  0  0  0  0  0
    5.9432   -5.3147    0.0421 O   0  0  0  0  0  0  0  0  0  0  0  0
    6.4120   -6.2218    1.0158 C   0  0  1  0  0  0  0  0  0  0  0  0
    1.0066   -4.2917   -0.7131 H   0  0  0  0  0  0  0  0  0  0  0  0
    7.8076   -2.2748    1.1205 H   0  0  0  0  0  0  0  0  0  0  0  0
    7.1356   -3.3248   -0.0705 H   0  0  0  0  0  0  0  0  0  0  0  0
    8.9006   -3.2868    0.1902 H   0  0  0  0  0  0  0  0  0  0  0  0
    8.8481   -7.0670   -0.0846 H   0  0  0  0  0  0  0  0  0  0  0  0
    9.8039   -5.7167    0.5340 H   0  0  0  0  0  0  0  0  0  0  0  0
    8.6569   -5.4391   -0.7100 H   0  0  0  0  0  0  0  0  0  0  0  0
    9.3929   -6.6369    2.6161 H   0  0  0  0  0  0  0  0  0  0  0  0
    8.6776   -5.8538    4.8002 H   0  0  0  0  0  0  0  0  0  0  0  0
    7.1309   -5.1081    4.1344 H   0  0  0  0  0  0  0  0  0  0  0  0
    7.9806   -8.0060    4.0812 H   0  0  0  0  0  0  0  0  0  0  0  0
    5.0774   -9.2657    2.1981 H   0  0  0  0  0  0  0  0  0  0  0  0
    6.4010   -9.7075    3.2401 H   0  0  0  0  0  0  0  0  0  0  0  0
    6.7351   -8.9965    1.6812 H   0  0  0  0  0  0  0  0  0  0  0  0
    4.1864   -7.9778    4.2465 H   0  0  0  0  0  0  0  0  0  0  0  0
    5.0864   -6.6290    4.9251 H   0  0  0  0  0  0  0  0  0  0  0  0
    5.6189   -8.2874    5.2136 H   0  0  0  0  0  0  0  0  0  0  0  0
    5.4737   -5.4834    2.7811 H   0  0  0  0  0  0  0  0  0  0  0  0
    3.8727   -7.6715    1.3882 H   0  0  0  0  0  0  0  0  0  0  0  0
    3.3844   -6.5199    2.6453 H   0  0  0  0  0  0  0  0  0  0  0  0
    6.2343   -3.7817   -1.9494 H   0  0  0  0  0  0  0  0  0  0  0  0
    5.4559   -2.2023   -3.6551 H   0  0  0  0  0  0  0  0  0  0  0  0
    3.0683   -1.6711   -3.9330 H   0  0  0  0  0  0  0  0  0  0  0  0
    1.4062   -2.7642   -2.4510 H   0  0  0  0  0  0  0  0  0  0  0  0
    6.5089   -7.1889    0.5288 H   0  0  0  0  0  0  0  0  0  0  0  0
  1  2  1  0
  1 27  1  0
  1 28  1  0
  1 29  1  0
  3  2  1  1
  3 25  1  0
  3  4  1  0
  3  5  1  0
  4 30  1  0
  4 31  1  0
  4 32  1  0
  5  7  1  0
  5  6  1  0
  5 33  1  1
  6  7  1  0
  6 34  1  0
  6 35  1  0
  7  8  1  0
  7 36  1  1
  8  9  1  0
  8 10  1  0
  8 11  1  0
  9 37  1  0
  9 38  1  0
  9 39  1  0
 10 40  1  0
 10 41  1  0
 10 42  1  0
 11 25  1  0
 11 12  1  0
 11 43  1  1
 12 13  1  0
 12 44  1  0
 12 45  1  0
 13 22  1  0
 13 14  2  0
 14 15  1  0
 14 24  1  0
 15 20  2  0
 15 16  1  0
 16 17  2  0
 16 46  1  0
 17 18  1  0
 17 47  1  0
 18 19  2  0
 18 48  1  0
 19 20  1  0
 19 49  1  0
 20 21  1  0
 21 26  1  0
 21 22  1  0
 22 23  2  0
 24 25  1  0
 25 50  1  6
M  END
>  <i_m_ct_stereo_status>  (70) 
1

>  <s_m_source_file>  (70) 
/var/tmp/pbs.5076255.sched01/tmpu3exd1vk/0t_9me_9p.sdf

>  <i_m_source_file_index>  (70) 
32

>  <i_lp_mmshare_version>  (70) 
48012

>  <i_f3d_flags>  (70) 
0

>  <s_epik_input>  (70) 
W0NASF0xMltDQEBIXShbQ0gyXTIpQyhbQ0gzXSkoW0NIM10pW0NASF0zW0NASF0oW0NAQF0xKFtDSDNdKU9bQ0gzXSlPYzRjKFtDSDJdMyljKD1PKVtuSF1jNWM0W2NIXVtjSF1bY0hdW2NIXTU=

>  <s_epik_cmdline>  (70) 
J2VwaWtfcHl0aG9uJywgJy1waHQnLCAnMi4wJywgJy1waCcsICc3LjAnLCAnLXRuJywgJzgnLCAnLW1hJywgJzIwMCcsICctaW1hZScsICc8aW5maWxlLm1hZT4nLCAnLW9tYWUnLCAnPG91dGZpbGUubWFlPic=

>  <r_lp_tautomer_probability>  (70) 
1

>  <r_epik_Ionization_Penalty>  (70) 
8.09064e-07

>  <r_epik_Ionization_Penalty_Charging>  (70) 
8.09061e-07

>  <r_epik_Ionization_Penalty_Neutral>  (70) 
3.7227e-12

>  <r_epik_State_Penalty>  (70) 
-0

>  <r_epik_Charging_Adjusted_Penalty>  (70) 
8.09061e-07

>  <i_epik_Tot_Q>  (70) 
0

>  <i_epik_Tot_abs_Q>  (70) 
0

>  <s_lp_Force_Field>  (70) 
OPLS3e

>  <r_lp_Energy>  (70) 
42.3706

>  <b_lp_Chiralities_Consistent>  (70) 
1

>  <s_lp_Variant>  (70) 
24:0-1

>  <s_i_glide_gridfile>  (70) 
pfpi4k_grid

>  <i_i_glide_lignum>  (70) 
32

>  <i_i_glide_rotatable_bonds>  (70) 
1

>  <r_i_docking_score>  (70) 
-2.77672

>  <r_i_glide_ligand_efficiency>  (70) 
-0.111069

>  <r_i_glide_ligand_efficiency_sa>  (70) 
-0.324767

>  <r_i_glide_ligand_efficiency_ln>  (70) 
-0.658165

>  <r_i_glide_gscore>  (70) 
-2.77672

>  <r_i_glide_lipo>  (70) 
-0.690248

>  <r_i_glide_hbond>  (70) 
-0.15883

>  <r_i_glide_metal>  (70) 
-0

>  <r_i_glide_rewards>  (70) 
-1.09481

>  <r_i_glide_evdw>  (70) 
-13.1398

>  <r_i_glide_ecoul>  (70) 
-0.693412

>  <r_i_glide_erotb>  (70) 
0

>  <r_i_glide_esite>  (70) 
-0.0718287

>  <r_i_glide_emodel>  (70) 
-15.8198

>  <r_i_glide_energy>  (70) 
-13.8332

>  <r_i_glide_einternal>  (70) 
3.87502

>  <r_i_glide_intrahb_reward>  (70) 
-0

>  <i_i_glide_confnum>  (70) 
2

>  <i_i_glide_posenum>  (70) 
14

>  <r_i_glide_eff_state_penalty>  (70) 
0

>  <ligand_id>  (70) 
24

>  <original_smiles>  (70) 
COC1(C)C2CC2C(C)(C)C2Cc3c(c4ccccc4[nH]c3=O)OC21

>  <smiles>  (70) 
[H]c1c([H])c([H])c2c(c1[H])c1c(c(=O)n2[H])C([H])([H])C2([H])C([H])(O1)C(OC([H])([H])[H])(C([H])([H])[H])C1([H])C([H])([H])C1([H])C2(C([H])([H])[H])C([H])([H])[H]

$$$$
27:0:0
     RDKit          3D

 51 53  0  0  1  0  0  0  0  0999 V2000
    1.5565   -9.7838    2.2376 C   0  0  0  0  0  0  0  0  0  0  0  0
    1.4848   -8.7316    3.3745 C   0  0  0  0  0  0  0  0  0  0  0  0
    0.4788   -7.5513    3.1846 C   0  0  0  0  0  0  0  0  0  0  0  0
   -1.0199   -7.9673    3.3456 C   0  0  0  0  0  0  0  0  0  0  0  0
   -1.6181   -8.9090    2.2633 C   0  0  0  0  0  0  0  0  0  0  0  0
    0.7465   -6.7049    1.9179 C   0  0  0  0  0  0  0  0  0  0  0  0
   -0.1775   -6.3802    1.1720 O   0  0  0  0  0  0  0  0  0  0  0  0
    2.0146   -6.3256    1.6949 N   0  0  0  0  0  0  0  0  0  0  0  0
    2.4515   -5.6407    0.4830 C   0  0  0  0  0  0  0  0  0  0  0  0
    2.8433   -4.1832    0.7960 C   0  0  0  0  0  0  0  0  0  0  0  0
    3.4799   -3.4144   -0.3834 C   0  0  2  0  0  0  0  0  0  0  0  0
    2.4968   -3.3032   -1.5827 C   0  0  0  0  0  0  0  0  0  0  0  0
    3.1461   -2.5338   -2.7459 C   0  0  1  0  0  0  0  0  0  0  0  0
    3.4907   -1.1172   -2.2716 C   0  0  0  0  0  0  0  0  0  0  0  0
    4.4660   -1.1956   -1.0813 C   0  0  2  0  0  0  0  0  0  0  0  0
    5.7534   -1.9052   -1.5156 C   0  0  0  0  0  0  0  0  0  0  0  0
    5.4182   -3.3205   -2.0102 C   0  0  2  0  0  0  0  0  0  0  0  0
    4.4322   -3.2519   -3.1967 C   0  0  0  0  0  0  0  0  0  0  0  0
    4.7895   -4.1094   -0.8527 C   0  0  0  0  0  0  0  0  0  0  0  0
    3.8228   -1.9754    0.0792 C   0  0  0  0  0  0  0  0  0  0  0  0
    2.4029  -10.4573    2.4143 H   0  0  0  0  0  0  0  0  0  0  0  0
    1.7610   -9.2779    1.2910 H   0  0  0  0  0  0  0  0  0  0  0  0
    0.6564  -10.3643    2.1402 H   0  0  0  0  0  0  0  0  0  0  0  0
    1.2556   -9.2341    4.3168 H   0  0  0  0  0  0  0  0  0  0  0  0
    2.4812   -8.3107    3.5387 H   0  0  0  0  0  0  0  0  0  0  0  0
    0.6833   -6.8514    4.0052 H   0  0  0  0  0  0  0  0  0  0  0  0
   -1.1408   -8.4405    4.3217 H   0  0  0  0  0  0  0  0  0  0  0  0
   -1.6138   -7.0507    3.4153 H   0  0  0  0  0  0  0  0  0  0  0  0
   -2.7028   -8.9710    2.3943 H   0  0  0  0  0  0  0  0  0  0  0  0
   -1.2001   -9.8991    2.3077 H   0  0  0  0  0  0  0  0  0  0  0  0
   -1.4436   -8.5037    1.2655 H   0  0  0  0  0  0  0  0  0  0  0  0
    2.7277   -6.5581    2.3775 H   0  0  0  0  0  0  0  0  0  0  0  0
    3.2853   -6.2245    0.1037 H   0  0  0  0  0  0  0  0  0  0  0  0
    1.6909   -5.6738   -0.2997 H   0  0  0  0  0  0  0  0  0  0  0  0
    1.9596   -3.6494    1.1453 H   0  0  0  0  0  0  0  0  0  0  0  0
    3.5323   -4.1819    1.6393 H   0  0  0  0  0  0  0  0  0  0  0  0
    2.1972   -4.2493   -1.9760 H   0  0  0  0  0  0  0  0  0  0  0  0
    1.5562   -2.8569   -1.2747 H   0  0  0  0  0  0  0  0  0  0  0  0
    2.4327   -2.4885   -3.5706 H   0  0  0  0  0  0  0  0  0  0  0  0
    3.8795   -0.5047   -3.0876 H   0  0  0  0  0  0  0  0  0  0  0  0
    2.5782   -0.6546   -1.9340 H   0  0  0  0  0  0  0  0  0  0  0  0
    4.6903   -0.1890   -0.7418 H   0  0  0  0  0  0  0  0  0  0  0  0
    6.2142   -1.3396   -2.3174 H   0  0  0  0  0  0  0  0  0  0  0  0
    6.4622   -1.9450   -0.6894 H   0  0  0  0  0  0  0  0  0  0  0  0
    6.3288   -3.8195   -2.3346 H   0  0  0  0  0  0  0  0  0  0  0  0
    4.2009   -4.2583   -3.5548 H   0  0  0  0  0  0  0  0  0  0  0  0
    4.8788   -2.7099   -4.0275 H   0  0  0  0  0  0  0  0  0  0  0  0
    5.4915   -4.1921   -0.0194 H   0  0  0  0  0  0  0  0  0  0  0  0
    4.6144   -5.1232   -1.2122 H   0  0  0  0  0  0  0  0  0  0  0  0
    2.9226   -1.4584    0.4191 H   0  0  0  0  0  0  0  0  0  0  0  0
    4.5055   -1.9999    0.9288 H   0  0  0  0  0  0  0  0  0  0  0  0
  1  2  1  0
  1 21  1  0
  1 22  1  0
  1 23  1  0
  2  3  1  0
  2 24  1  0
  2 25  1  0
  3  4  1  0
  3  6  1  0
  3 26  1  0
  4  5  1  0
  4 27  1  0
  4 28  1  0
  5 29  1  0
  5 30  1  0
  5 31  1  0
  6  7  2  0
  6  8  1  0
  8  9  1  0
  8 32  1  0
  9 10  1  0
  9 33  1  0
  9 34  1  0
 11 10  1  1
 10 35  1  0
 10 36  1  0
 11 19  1  0
 11 20  1  0
 11 12  1  0
 12 13  1  0
 12 37  1  0
 12 38  1  0
 13 18  1  0
 13 14  1  0
 13 39  1  6
 14 15  1  0
 14 40  1  0
 14 41  1  0
 15 16  1  0
 15 20  1  0
 15 42  1  1
 16 17  1  0
 16 43  1  0
 16 44  1  0
 17 18  1  0
 17 19  1  0
 17 45  1  6
 18 46  1  0
 18 47  1  0
 19 48  1  0
 19 49  1  0
 20 50  1  0
 20 51  1  0
M  END
>  <i_m_ct_stereo_status>  (71) 
1

>  <s_m_source_file>  (71) 
/var/tmp/pbs.5076255.sched01/tmpu3exd1vk/0t_9me_9p.sdf

>  <i_m_source_file_index>  (71) 
36

>  <i_lp_mmshare_version>  (71) 
48012

>  <i_f3d_flags>  (71) 
0

>  <s_epik_input>  (71) 
W0NIM11bQ0gyXVtDSF0oW0NIMl1bQ0gzXSlDKD1PKVtOSF1bQ0gyXVtDSDJdQzEyW0NIMl1bQ0BASF0zW0NIMl1bQ0BIXShbQ0gyXTIpW0NIMl1bQ0BASF0oW0NIMl0zKVtDSDJdMQ==

>  <s_epik_cmdline>  (71) 
J2VwaWtfcHl0aG9uJywgJy1waHQnLCAnMi4wJywgJy1waCcsICc3LjAnLCAnLXRuJywgJzgnLCAnLW1hJywgJzIwMCcsICctaW1hZScsICc8aW5maWxlLm1hZT4nLCAnLW9tYWUnLCAnPG91dGZpbGUubWFlPic=

>  <r_lp_tautomer_probability>  (71) 
1

>  <r_epik_Ionization_Penalty>  (71) 
1.79367e-07

>  <r_epik_Ionization_Penalty_Charging>  (71) 
0

>  <r_epik_Ionization_Penalty_Neutral>  (71) 
1.79367e-07

>  <r_epik_State_Penalty>  (71) 
-0

>  <r_epik_Charging_Adjusted_Penalty>  (71) 
0

>  <i_epik_Tot_Q>  (71) 
0

>  <i_epik_Tot_abs_Q>  (71) 
0

>  <s_lp_Force_Field>  (71) 
OPLS3e

>  <r_lp_Energy>  (71) 
5.27795

>  <b_lp_Chiralities_Consistent>  (71) 
1

>  <s_lp_Variant>  (71) 
27:0-1

>  <s_i_glide_gridfile>  (71) 
pfpi4k_grid

>  <i_i_glide_lignum>  (71) 
36

>  <i_i_glide_rotatable_bonds>  (71) 
7

>  <r_i_docking_score>  (71) 
-3.57532

>  <r_i_glide_ligand_efficiency>  (71) 
-0.178766

>  <r_i_glide_ligand_efficiency_sa>  (71) 
-0.485246

>  <r_i_glide_ligand_efficiency_ln>  (71) 
-0.894786

>  <r_i_glide_gscore>  (71) 
-3.57532

>  <r_i_glide_lipo>  (71) 
-0.766969

>  <r_i_glide_hbond>  (71) 
-0.264243

>  <r_i_glide_metal>  (71) 
-0

>  <r_i_glide_rewards>  (71) 
-1.51742

>  <r_i_glide_evdw>  (71) 
-22.2912

>  <r_i_glide_ecoul>  (71) 
-4.96642

>  <r_i_glide_erotb>  (71) 
0.935828

>  <r_i_glide_esite>  (71) 
-0.102996

>  <r_i_glide_emodel>  (71) 
-31.5787

>  <r_i_glide_energy>  (71) 
-27.2576

>  <r_i_glide_einternal>  (71) 
3.91974

>  <r_i_glide_intrahb_reward>  (71) 
-0

>  <i_i_glide_confnum>  (71) 
2

>  <i_i_glide_posenum>  (71) 
22

>  <r_i_glide_eff_state_penalty>  (71) 
0

>  <ligand_id>  (71) 
27

>  <original_smiles>  (71) 
CCC(CC)C(=O)NCCC12CC3CC(CC(C3)C1)C2

>  <smiles>  (71) 
[H]N(C(=O)C([H])(C([H])([H])C([H])([H])[H])C([H])([H])C([H])([H])[H])C([H])([H])C([H])([H])C12C([H])([H])C3([H])C([H])([H])C([H])(C([H])([H])C([H])(C3([H])[H])C1([H])[H])C2([H])[H]

$$$$
27:0:1
     RDKit          3D

 51 53  0  0  1  0  0  0  0  0999 V2000
    2.3979   -9.6409    2.3070 C   0  0  0  0  0  0  0  0  0  0  0  0
    1.0133   -9.2061    2.8185 C   0  0  0  0  0  0  0  0  0  0  0  0
    0.8632   -7.7111    3.1960 C   0  0  0  0  0  0  0  0  0  0  0  0
   -0.5015   -7.4179    3.8746 C   0  0  0  0  0  0  0  0  0  0  0  0
   -1.7731   -7.7354    3.0614 C   0  0  0  0  0  0  0  0  0  0  0  0
    1.1480   -6.7670    2.0128 C   0  0  0  0  0  0  0  0  0  0  0  0
    0.2316   -6.2645    1.3729 O   0  0  0  0  0  0  0  0  0  0  0  0
    2.4324   -6.5099    1.7545 N   0  0  0  0  0  0  0  0  0  0  0  0
    2.8987   -5.6963    0.6506 C   0  0  0  0  0  0  0  0  0  0  0  0
    3.7973   -4.5559    1.1418 C   0  0  0  0  0  0  0  0  0  0  0  0
    4.3730   -3.6425    0.0299 C   0  0  2  0  0  0  0  0  0  0  0  0
    5.2311   -4.4592   -0.9697 C   0  0  0  0  0  0  0  0  0  0  0  0
    5.8134   -3.5273   -2.0572 C   0  0  1  0  0  0  0  0  0  0  0  0
    4.6546   -2.8537   -2.8100 C   0  0  0  0  0  0  0  0  0  0  0  0
    3.8346   -2.0004   -1.8304 C   0  0  2  0  0  0  0  0  0  0  0  0
    4.7356   -0.9444   -1.1689 C   0  0  0  0  0  0  0  0  0  0  0  0
    5.8830   -1.6424   -0.4129 C   0  0  2  0  0  0  0  0  0  0  0  0
    6.7200   -2.4818   -1.3961 C   0  0  0  0  0  0  0  0  0  0  0  0
    5.2847   -2.5715    0.6755 C   0  0  0  0  0  0  0  0  0  0  0  0
    3.2356   -2.9209   -0.7492 C   0  0  0  0  0  0  0  0  0  0  0  0
    2.4256  -10.7141    2.1266 H   0  0  0  0  0  0  0  0  0  0  0  0
    3.1793   -9.4097    3.0301 H   0  0  0  0  0  0  0  0  0  0  0  0
    2.6473   -9.1614    1.3619 H   0  0  0  0  0  0  0  0  0  0  0  0
    0.2656   -9.4789    2.0794 H   0  0  0  0  0  0  0  0  0  0  0  0
    0.7714   -9.8132    3.6937 H   0  0  0  0  0  0  0  0  0  0  0  0
    1.6292   -7.5003    3.9416 H   0  0  0  0  0  0  0  0  0  0  0  0
   -0.5416   -7.9961    4.7981 H   0  0  0  0  0  0  0  0  0  0  0  0
   -0.5157   -6.3793    4.1981 H   0  0  0  0  0  0  0  0  0  0  0  0
   -2.6627   -7.5000    3.6388 H   0  0  0  0  0  0  0  0  0  0  0  0
   -1.8298   -8.7958    2.8177 H   0  0  0  0  0  0  0  0  0  0  0  0
   -1.8239   -7.1842    2.1246 H   0  0  0  0  0  0  0  0  0  0  0  0
    3.1509   -6.9621    2.2975 H   0  0  0  0  0  0  0  0  0  0  0  0
    3.4318   -6.3523   -0.0333 H   0  0  0  0  0  0  0  0  0  0  0  0
    2.0722   -5.2779    0.0820 H   0  0  0  0  0  0  0  0  0  0  0  0
    3.2324   -3.9518    1.8587 H   0  0  0  0  0  0  0  0  0  0  0  0
    4.6110   -4.9922    1.7267 H   0  0  0  0  0  0  0  0  0  0  0  0
    6.0340   -4.9696   -0.4338 H   0  0  0  0  0  0  0  0  0  0  0  0
    4.6378   -5.2267   -1.4662 H   0  0  0  0  0  0  0  0  0  0  0  0
    6.3894   -4.1047   -2.7697 H   0  0  0  0  0  0  0  0  0  0  0  0
    5.0346   -2.2319   -3.6169 H   0  0  0  0  0  0  0  0  0  0  0  0
    4.0259   -3.6132   -3.2729 H   0  0  0  0  0  0  0  0  0  0  0  0
    3.0192   -1.5098   -2.3619 H   0  0  0  0  0  0  0  0  0  0  0  0
    5.1362   -0.2681   -1.9274 H   0  0  0  0  0  0  0  0  0  0  0  0
    4.1547   -0.3400   -0.4762 H   0  0  0  0  0  0  0  0  0  0  0  0
    6.5125   -0.8934    0.0684 H   0  0  0  0  0  0  0  0  0  0  0  0
    7.5450   -2.9691   -0.8808 H   0  0  0  0  0  0  0  0  0  0  0  0
    7.1612   -1.8593   -2.1666 H   0  0  0  0  0  0  0  0  0  0  0  0
    4.7206   -1.9752    1.3992 H   0  0  0  0  0  0  0  0  0  0  0  0
    6.0942   -3.0467    1.2379 H   0  0  0  0  0  0  0  0  0  0  0  0
    2.5686   -3.6235   -1.2513 H   0  0  0  0  0  0  0  0  0  0  0  0
    2.6138   -2.3338   -0.0693 H   0  0  0  0  0  0  0  0  0  0  0  0
  1  2  1  0
  1 21  1  0
  1 22  1  0
  1 23  1  0
  2  3  1  0
  2 24  1  0
  2 25  1  0
  3  4  1  0
  3  6  1  0
  3 26  1  0
  4  5  1  0
  4 27  1  0
  4 28  1  0
  5 29  1  0
  5 30  1  0
  5 31  1  0
  6  7  2  0
  6  8  1  0
  8  9  1  0
  8 32  1  0
  9 10  1  0
  9 33  1  0
  9 34  1  0
 11 10  1  1
 10 35  1  0
 10 36  1  0
 11 19  1  0
 11 20  1  0
 11 12  1  0
 12 13  1  0
 12 37  1  0
 12 38  1  0
 13 18  1  0
 13 14  1  0
 13 39  1  6
 14 15  1  0
 14 40  1  0
 14 41  1  0
 15 16  1  0
 15 20  1  0
 15 42  1  6
 16 17  1  0
 16 43  1  0
 16 44  1  0
 17 18  1  0
 17 19  1  0
 17 45  1  1
 18 46  1  0
 18 47  1  0
 19 48  1  0
 19 49  1  0
 20 50  1  0
 20 51  1  0
M  END
>  <i_m_ct_stereo_status>  (72) 
1

>  <s_m_source_file>  (72) 
/var/tmp/pbs.5076255.sched01/tmpu3exd1vk/0t_9me_9p.sdf

>  <i_m_source_file_index>  (72) 
36

>  <i_lp_mmshare_version>  (72) 
48012

>  <i_f3d_flags>  (72) 
0

>  <s_epik_input>  (72) 
W0NIM11bQ0gyXVtDSF0oW0NIMl1bQ0gzXSlDKD1PKVtOSF1bQ0gyXVtDSDJdQzEyW0NIMl1bQ0BASF0zW0NIMl1bQ0BIXShbQ0gyXTIpW0NIMl1bQ0BASF0oW0NIMl0zKVtDSDJdMQ==

>  <s_epik_cmdline>  (72) 
J2VwaWtfcHl0aG9uJywgJy1waHQnLCAnMi4wJywgJy1waCcsICc3LjAnLCAnLXRuJywgJzgnLCAnLW1hJywgJzIwMCcsICctaW1hZScsICc8aW5maWxlLm1hZT4nLCAnLW9tYWUnLCAnPG91dGZpbGUubWFlPic=

>  <r_lp_tautomer_probability>  (72) 
1

>  <r_epik_Ionization_Penalty>  (72) 
1.79367e-07

>  <r_epik_Ionization_Penalty_Charging>  (72) 
0

>  <r_epik_Ionization_Penalty_Neutral>  (72) 
1.79367e-07

>  <r_epik_State_Penalty>  (72) 
-0

>  <r_epik_Charging_Adjusted_Penalty>  (72) 
0

>  <i_epik_Tot_Q>  (72) 
0

>  <i_epik_Tot_abs_Q>  (72) 
0

>  <s_lp_Force_Field>  (72) 
OPLS3e

>  <r_lp_Energy>  (72) 
5.27795

>  <b_lp_Chiralities_Consistent>  (72) 
1

>  <s_lp_Variant>  (72) 
27:0-1

>  <s_i_glide_gridfile>  (72) 
pfpi4k_grid

>  <i_i_glide_lignum>  (72) 
36

>  <i_i_glide_rotatable_bonds>  (72) 
7

>  <r_i_docking_score>  (72) 
-3.07535

>  <r_i_glide_ligand_efficiency>  (72) 
-0.153768

>  <r_i_glide_ligand_efficiency_sa>  (72) 
-0.417389

>  <r_i_glide_ligand_efficiency_ln>  (72) 
-0.769659

>  <r_i_glide_gscore>  (72) 
-3.07535

>  <r_i_glide_lipo>  (72) 
-0.379251

>  <r_i_glide_hbond>  (72) 
-0.220446

>  <r_i_glide_metal>  (72) 
-0

>  <r_i_glide_rewards>  (72) 
-1.51742

>  <r_i_glide_evdw>  (72) 
-22.4483

>  <r_i_glide_ecoul>  (72) 
-4.74612

>  <r_i_glide_erotb>  (72) 
0.935828

>  <r_i_glide_esite>  (72) 
-0.0597275

>  <r_i_glide_emodel>  (72) 
-31.4747

>  <r_i_glide_energy>  (72) 
-27.1944

>  <r_i_glide_einternal>  (72) 
2.12937

>  <r_i_glide_intrahb_reward>  (72) 
-0

>  <i_i_glide_confnum>  (72) 
2

>  <i_i_glide_posenum>  (72) 
10

>  <r_i_glide_eff_state_penalty>  (72) 
0

>  <ligand_id>  (72) 
27

>  <original_smiles>  (72) 
CCC(CC)C(=O)NCCC12CC3CC(CC(C3)C1)C2

>  <smiles>  (72) 
[H]N(C(=O)C([H])(C([H])([H])C([H])([H])[H])C([H])([H])C([H])([H])[H])C([H])([H])C([H])([H])C12C([H])([H])C3([H])C([H])([H])C([H])(C([H])([H])C([H])(C3([H])[H])C1([H])[H])C2([H])[H]

$$$$
27:0:2
     RDKit          3D

 51 53  0  0  1  0  0  0  0  0999 V2000
   -1.6238   -8.6139    2.5082 C   0  0  0  0  0  0  0  0  0  0  0  0
   -0.2144   -9.0975    2.8961 C   0  0  0  0  0  0  0  0  0  0  0  0
    0.7961   -8.0054    3.3366 C   0  0  0  0  0  0  0  0  0  0  0  0
    0.3485   -7.2353    4.6057 C   0  0  0  0  0  0  0  0  0  0  0  0
    0.2927   -8.1074    5.8699 C   0  0  0  0  0  0  0  0  0  0  0  0
    1.1051   -7.0250    2.1915 C   0  0  0  0  0  0  0  0  0  0  0  0
    0.2312   -6.2603    1.7870 O   0  0  0  0  0  0  0  0  0  0  0  0
    2.3550   -7.0371    1.6958 N   0  0  0  0  0  0  0  0  0  0  0  0
    2.8215   -6.1442    0.6358 C   0  0  0  0  0  0  0  0  0  0  0  0
    3.4818   -4.8806    1.2087 C   0  0  0  0  0  0  0  0  0  0  0  0
    3.9805   -3.8584    0.1500 C   0  0  2  0  0  0  0  0  0  0  0  0
    5.0783   -4.4624   -0.7749 C   0  0  0  0  0  0  0  0  0  0  0  0
    5.5585   -3.4122   -1.7991 C   0  0  1  0  0  0  0  0  0  0  0  0
    4.3618   -2.9509   -2.6525 C   0  0  0  0  0  0  0  0  0  0  0  0
    3.3031   -2.3011   -1.7426 C   0  0  2  0  0  0  0  0  0  0  0  0
    3.9066   -1.1033   -0.9884 C   0  0  0  0  0  0  0  0  0  0  0  0
    5.0976   -1.5838   -0.1398 C   0  0  2  0  0  0  0  0  0  0  0  0
    6.1663   -2.2119   -1.0555 C   0  0  0  0  0  0  0  0  0  0  0  0
    4.6059   -2.6352    0.8834 C   0  0  0  0  0  0  0  0  0  0  0  0
    2.8044   -3.3418   -0.7275 C   0  0  0  0  0  0  0  0  0  0  0  0
   -2.2510   -9.4520    2.2125 H   0  0  0  0  0  0  0  0  0  0  0  0
   -1.6052   -7.9183    1.6766 H   0  0  0  0  0  0  0  0  0  0  0  0
   -2.1209   -8.1151    3.3365 H   0  0  0  0  0  0  0  0  0  0  0  0
   -0.3107   -9.8389    3.6867 H   0  0  0  0  0  0  0  0  0  0  0  0
    0.2216   -9.6497    2.0669 H   0  0  0  0  0  0  0  0  0  0  0  0
    1.7383   -8.5056    3.5818 H   0  0  0  0  0  0  0  0  0  0  0  0
    1.0381   -6.4085    4.7919 H   0  0  0  0  0  0  0  0  0  0  0  0
   -0.6213   -6.7650    4.4439 H   0  0  0  0  0  0  0  0  0  0  0  0
   -0.0581   -7.5256    6.7205 H   0  0  0  0  0  0  0  0  0  0  0  0
    1.2803   -8.4961    6.1168 H   0  0  0  0  0  0  0  0  0  0  0  0
   -0.3806   -8.9570    5.7552 H   0  0  0  0  0  0  0  0  0  0  0  0
    3.0231   -7.6979    2.0605 H   0  0  0  0  0  0  0  0  0  0  0  0
    3.5467   -6.6866    0.0356 H   0  0  0  0  0  0  0  0  0  0  0  0
    1.9959   -5.8957   -0.0280 H   0  0  0  0  0  0  0  0  0  0  0  0
    2.7874   -4.3944    1.8944 H   0  0  0  0  0  0  0  0  0  0  0  0
    4.3142   -5.1915    1.8375 H   0  0  0  0  0  0  0  0  0  0  0  0
    5.9207   -4.8193   -0.1789 H   0  0  0  0  0  0  0  0  0  0  0  0
    4.7027   -5.3253   -1.3224 H   0  0  0  0  0  0  0  0  0  0  0  0
    6.3161   -3.8476   -2.4503 H   0  0  0  0  0  0  0  0  0  0  0  0
    4.6831   -2.2481   -3.4183 H   0  0  0  0  0  0  0  0  0  0  0  0
    3.9297   -3.8051   -3.1745 H   0  0  0  0  0  0  0  0  0  0  0  0
    2.4603   -1.9620   -2.3436 H   0  0  0  0  0  0  0  0  0  0  0  0
    4.2310   -0.3355   -1.6896 H   0  0  0  0  0  0  0  0  0  0  0  0
    3.1487   -0.6507   -0.3472 H   0  0  0  0  0  0  0  0  0  0  0  0
    5.5266   -0.7297    0.3880 H   0  0  0  0  0  0  0  0  0  0  0  0
    7.0293   -2.5292   -0.4680 H   0  0  0  0  0  0  0  0  0  0  0  0
    6.5126   -1.4801   -1.7810 H   0  0  0  0  0  0  0  0  0  0  0  0
    3.8729   -2.1763    1.5543 H   0  0  0  0  0  0  0  0  0  0  0  0
    5.4424   -2.9531    1.5138 H   0  0  0  0  0  0  0  0  0  0  0  0
    2.3257   -4.1437   -1.2890 H   0  0  0  0  0  0  0  0  0  0  0  0
    2.0353   -2.9005   -0.0929 H   0  0  0  0  0  0  0  0  0  0  0  0
  1  2  1  0
  1 21  1  0
  1 22  1  0
  1 23  1  0
  2  3  1  0
  2 24  1  0
  2 25  1  0
  3  4  1  0
  3  6  1  0
  3 26  1  0
  4  5  1  0
  4 27  1  0
  4 28  1  0
  5 29  1  0
  5 30  1  0
  5 31  1  0
  6  7  2  0
  6  8  1  0
  8  9  1  0
  8 32  1  0
  9 10  1  0
  9 33  1  0
  9 34  1  0
 11 10  1  1
 10 35  1  0
 10 36  1  0
 11 19  1  0
 11 20  1  0
 11 12  1  0
 12 13  1  0
 12 37  1  0
 12 38  1  0
 13 18  1  0
 13 14  1  0
 13 39  1  6
 14 15  1  0
 14 40  1  0
 14 41  1  0
 15 16  1  0
 15 20  1  0
 15 42  1  6
 16 17  1  0
 16 43  1  0
 16 44  1  0
 17 18  1  0
 17 19  1  0
 17 45  1  1
 18 46  1  0
 18 47  1  0
 19 48  1  0
 19 49  1  0
 20 50  1  0
 20 51  1  0
M  END
>  <i_m_ct_stereo_status>  (73) 
1

>  <s_m_source_file>  (73) 
/var/tmp/pbs.5076255.sched01/tmpu3exd1vk/0t_9me_9p.sdf

>  <i_m_source_file_index>  (73) 
36

>  <i_lp_mmshare_version>  (73) 
48012

>  <i_f3d_flags>  (73) 
0

>  <s_epik_input>  (73) 
W0NIM11bQ0gyXVtDSF0oW0NIMl1bQ0gzXSlDKD1PKVtOSF1bQ0gyXVtDSDJdQzEyW0NIMl1bQ0BASF0zW0NIMl1bQ0BIXShbQ0gyXTIpW0NIMl1bQ0BASF0oW0NIMl0zKVtDSDJdMQ==

>  <s_epik_cmdline>  (73) 
J2VwaWtfcHl0aG9uJywgJy1waHQnLCAnMi4wJywgJy1waCcsICc3LjAnLCAnLXRuJywgJzgnLCAnLW1hJywgJzIwMCcsICctaW1hZScsICc8aW5maWxlLm1hZT4nLCAnLW9tYWUnLCAnPG91dGZpbGUubWFlPic=

>  <r_lp_tautomer_probability>  (73) 
1

>  <r_epik_Ionization_Penalty>  (73) 
1.79367e-07

>  <r_epik_Ionization_Penalty_Charging>  (73) 
0

>  <r_epik_Ionization_Penalty_Neutral>  (73) 
1.79367e-07

>  <r_epik_State_Penalty>  (73) 
-0

>  <r_epik_Charging_Adjusted_Penalty>  (73) 
0

>  <i_epik_Tot_Q>  (73) 
0

>  <i_epik_Tot_abs_Q>  (73) 
0

>  <s_lp_Force_Field>  (73) 
OPLS3e

>  <r_lp_Energy>  (73) 
5.27795

>  <b_lp_Chiralities_Consistent>  (73) 
1

>  <s_lp_Variant>  (73) 
27:0-1

>  <s_i_glide_gridfile>  (73) 
pfpi4k_grid

>  <i_i_glide_lignum>  (73) 
36

>  <i_i_glide_rotatable_bonds>  (73) 
7

>  <r_i_docking_score>  (73) 
-2.94885

>  <r_i_glide_ligand_efficiency>  (73) 
-0.147442

>  <r_i_glide_ligand_efficiency_sa>  (73) 
-0.40022

>  <r_i_glide_ligand_efficiency_ln>  (73) 
-0.738

>  <r_i_glide_gscore>  (73) 
-2.94885

>  <r_i_glide_lipo>  (73) 
-0.337186

>  <r_i_glide_hbond>  (73) 
-0.263291

>  <r_i_glide_metal>  (73) 
-0

>  <r_i_glide_rewards>  (73) 
-1.51742

>  <r_i_glide_evdw>  (73) 
-22.8948

>  <r_i_glide_ecoul>  (73) 
-3.8009

>  <r_i_glide_erotb>  (73) 
0.935828

>  <r_i_glide_esite>  (73) 
-0.0519046

>  <r_i_glide_emodel>  (73) 
-30.4166

>  <r_i_glide_energy>  (73) 
-26.6957

>  <r_i_glide_einternal>  (73) 
3.22735

>  <r_i_glide_intrahb_reward>  (73) 
-0

>  <i_i_glide_confnum>  (73) 
2

>  <i_i_glide_posenum>  (73) 
15

>  <r_i_glide_eff_state_penalty>  (73) 
0

>  <ligand_id>  (73) 
27

>  <original_smiles>  (73) 
CCC(CC)C(=O)NCCC12CC3CC(CC(C3)C1)C2

>  <smiles>  (73) 
[H]N(C(=O)C([H])(C([H])([H])C([H])([H])[H])C([H])([H])C([H])([H])[H])C([H])([H])C([H])([H])C12C([H])([H])C3([H])C([H])([H])C([H])(C([H])([H])C([H])(C3([H])[H])C1([H])[H])C2([H])[H]

$$$$
28:0:0
     RDKit          3D

 39 43  0  0  1  0  0  0  0  0999 V2000
    3.2112   -0.3311   -4.7273 C   0  0  0  0  0  0  0  0  0  0  0  0
    3.3770   -0.5501   -3.2060 C   0  0  0  0  0  0  0  0  0  0  0  0
    3.5285   -1.9714   -2.7339 N   0  0  1  0  0  0  0  0  0  0  0  0
    2.3000   -2.7156   -3.1280 C   0  0  0  0  0  0  0  0  0  0  0  0
    4.7210   -2.6098   -3.3880 C   0  0  0  0  0  0  0  0  0  0  0  0
    5.6067   -3.4716   -2.4547 C   0  0  1  0  0  0  0  0  0  0  0  0
    6.7378   -2.7015   -1.7079 C   0  0  0  0  0  0  0  0  0  0  0  0
    6.2333   -2.2639   -0.3839 N   0  0  0  0  0  0  0  0  0  0  0  0
    5.1356   -1.2242   -0.8225 C   0  0  0  0  0  0  0  0  0  0  0  0
    3.7095   -2.0263   -1.2311 C   0  0  2  0  0  0  0  0  0  0  0  0
    3.7034   -3.5956   -0.7641 C   0  0  1  0  0  0  0  0  0  0  0  0
    3.4455   -4.4247    0.5362 C   0  0  0  0  0  0  0  0  0  0  0  0
    4.9255   -4.4687    1.2992 C   0  0  0  0  0  0  0  0  0  0  0  0
    6.0566   -3.6114    0.4712 C   0  0  2  0  0  0  0  0  0  0  0  0
    4.8117   -3.3477    0.0147 C   0  0  1  0  0  0  0  0  0  0  0  0
    4.7803   -4.1624   -1.4108 C   0  0  2  0  0  0  0  0  0  0  0  0
    3.2533    0.7389   -4.9493 H   0  0  0  0  0  0  0  0  0  0  0  0
    2.2365   -0.6523   -5.0916 H   0  0  0  0  0  0  0  0  0  0  0  0
    3.9840   -0.8043   -5.3329 H   0  0  0  0  0  0  0  0  0  0  0  0
    4.2109    0.0809   -2.9249 H   0  0  0  0  0  0  0  0  0  0  0  0
    2.5102   -0.1109   -2.7274 H   0  0  0  0  0  0  0  0  0  0  0  0
    2.3458   -3.7687   -2.8755 H   0  0  0  0  0  0  0  0  0  0  0  0
    2.1235   -2.6828   -4.1991 H   0  0  0  0  0  0  0  0  0  0  0  0
    1.4261   -2.3019   -2.6413 H   0  0  0  0  0  0  0  0  0  0  0  0
    4.4031   -3.2263   -4.2288 H   0  0  0  0  0  0  0  0  0  0  0  0
    5.3679   -1.8514   -3.8134 H   0  0  0  0  0  0  0  0  0  0  0  0
    6.0663   -4.2416   -3.0714 H   0  0  0  0  0  0  0  0  0  0  0  0
    7.5967   -3.3608   -1.5650 H   0  0  0  0  0  0  0  0  0  0  0  0
    7.1054   -1.8682   -2.3128 H   0  0  0  0  0  0  0  0  0  0  0  0
    4.9194   -0.6167    0.0584 H   0  0  0  0  0  0  0  0  0  0  0  0
    5.5288   -0.5290   -1.5659 H   0  0  0  0  0  0  0  0  0  0  0  0
    2.8790   -1.5236   -0.7587 H   0  0  0  0  0  0  0  0  0  0  0  0
    2.6502   -4.0002    1.1451 H   0  0  0  0  0  0  0  0  0  0  0  0
    3.1573   -5.4371    0.2552 H   0  0  0  0  0  0  0  0  0  0  0  0
    4.8446   -4.1258    2.3350 H   0  0  0  0  0  0  0  0  0  0  0  0
    5.2820   -5.4991    1.3585 H   0  0  0  0  0  0  0  0  0  0  0  0
    6.6262   -4.3896   -0.0375 H   0  0  0  0  0  0  0  0  0  0  0  0
    4.3255   -2.5685    0.7082 H   0  0  0  0  0  0  0  0  0  0  0  0
    4.8237   -5.2431   -1.4293 H   0  0  0  0  0  0  0  0  0  0  0  0
  1  2  1  0
  1 17  1  0
  1 18  1  0
  1 19  1  0
  3  2  1  6
  2 20  1  0
  2 21  1  0
  3 10  1  0
  3  4  1  0
  3  5  1  0
  4 22  1  0
  4 23  1  0
  4 24  1  0
  5  6  1  0
  5 25  1  0
  5 26  1  0
  6 16  1  0
  6  7  1  0
  6 27  1  6
  7  8  1  0
  7 28  1  0
  7 29  1  0
  8 14  1  0
  8  9  1  0
  9 10  1  0
  9 30  1  0
  9 31  1  0
 10 11  1  0
 10 32  1  1
 11 15  1  0
 11 16  1  0
 11 12  1  1
 12 13  1  0
 12 33  1  0
 12 34  1  0
 13 14  1  0
 13 35  1  0
 13 36  1  0
 14 15  1  0
 14 37  1  6
 15 16  1  0
 15 38  1  6
 16 39  1  1
M  CHG  1   3   1
M  END
>  <i_m_ct_stereo_status>  (74) 
1

>  <s_m_source_file>  (74) 
/var/tmp/pbs.5076255.sched01/tmpu3exd1vk/0t_9me_9p.sdf

>  <i_m_source_file_index>  (74) 
37

>  <i_lp_mmshare_version>  (74) 
48012

>  <i_f3d_flags>  (74) 
0

>  <s_epik_input>  (74) 
W0NIM11bQ0gyXVtOQCtdKFtDSDNdKShbQ0BIXTFbQ0BdMjM0KVtDSDJdW0NAQEhdNVtDSF00W0NIXTNbQ0BIXShOKFtDSDJdNSlbQ0gyXTEpW0NIMl1bQ0gyXTI=

>  <s_epik_cmdline>  (74) 
J2VwaWtfcHl0aG9uJywgJy1waHQnLCAnMi4wJywgJy1waCcsICc3LjAnLCAnLXRuJywgJzgnLCAnLW1hJywgJzIwMCcsICctaW1hZScsICc8aW5maWxlLm1hZT4nLCAnLW9tYWUnLCAnPG91dGZpbGUubWFlPic=

>  <r_lp_tautomer_probability>  (74) 
1

>  <r_epik_Ionization_Penalty>  (74) 
1.01473e-06

>  <r_epik_Ionization_Penalty_Charging>  (74) 
0

>  <r_epik_Ionization_Penalty_Neutral>  (74) 
1.01473e-06

>  <r_epik_State_Penalty>  (74) 
-0

>  <r_epik_Charging_Adjusted_Penalty>  (74) 
0

>  <i_epik_Tot_Q>  (74) 
1

>  <i_epik_Tot_abs_Q>  (74) 
1

>  <s_lp_Force_Field>  (74) 
OPLS3e

>  <r_lp_Energy>  (74) 
367.81

>  <b_lp_Chiralities_Consistent>  (74) 
1

>  <s_lp_Variant>  (74) 
28:0-1

>  <s_i_glide_gridfile>  (74) 
pfpi4k_grid

>  <i_i_glide_lignum>  (74) 
37

>  <i_i_glide_rotatable_bonds>  (74) 
1

>  <r_i_docking_score>  (74) 
-4.29542

>  <r_i_glide_ligand_efficiency>  (74) 
-0.268464

>  <r_i_glide_ligand_efficiency_sa>  (74) 
-0.676486

>  <r_i_glide_ligand_efficiency_ln>  (74) 
-1.13859

>  <r_i_glide_gscore>  (74) 
-4.29542

>  <r_i_glide_lipo>  (74) 
-1.00445

>  <r_i_glide_hbond>  (74) 
0

>  <r_i_glide_metal>  (74) 
-0

>  <r_i_glide_rewards>  (74) 
-1.91355

>  <r_i_glide_evdw>  (74) 
-17.7963

>  <r_i_glide_ecoul>  (74) 
-3.13649

>  <r_i_glide_erotb>  (74) 
0

>  <r_i_glide_esite>  (74) 
-0.0171226

>  <r_i_glide_emodel>  (74) 
-26.7208

>  <r_i_glide_energy>  (74) 
-20.9328

>  <r_i_glide_einternal>  (74) 
0.144858

>  <r_i_glide_intrahb_reward>  (74) 
-0

>  <i_i_glide_confnum>  (74) 
2

>  <i_i_glide_posenum>  (74) 
29

>  <r_i_glide_eff_state_penalty>  (74) 
0

>  <ligand_id>  (74) 
28

>  <original_smiles>  (74) 
CC[N+]1(C)CC2CN3CC1C14CCC3C1C24

>  <smiles>  (74) 
[H]C([H])([H])C([H])([H])[N+]1(C([H])([H])[H])C([H])([H])C2([H])C([H])([H])N3C([H])([H])C1([H])C14C([H])([H])C([H])([H])C3([H])C1([H])C24[H]

$$$$
28:0:1
     RDKit          3D

 39 43  0  0  1  0  0  0  0  0999 V2000
    4.7882   -6.5306    0.5754 C   0  0  0  0  0  0  0  0  0  0  0  0
    4.6703   -5.1274    1.2017 C   0  0  0  0  0  0  0  0  0  0  0  0
    3.9263   -4.1027    0.3958 N   0  0  1  0  0  0  0  0  0  0  0  0
    2.5164   -4.5714    0.2568 C   0  0  0  0  0  0  0  0  0  0  0  0
    3.9131   -2.8048    1.1655 C   0  0  0  0  0  0  0  0  0  0  0  0
    4.1249   -1.5280    0.3052 C   0  0  1  0  0  0  0  0  0  0  0  0
    5.6202   -1.1162    0.1224 C   0  0  0  0  0  0  0  0  0  0  0  0
    6.1313   -1.7306   -1.1287 N   0  0  0  0  0  0  0  0  0  0  0  0
    6.0957   -3.2515   -0.7338 C   0  0  0  0  0  0  0  0  0  0  0  0
    4.5438   -3.8690   -0.9669 C   0  0  2  0  0  0  0  0  0  0  0  0
    3.5704   -2.8627   -1.8025 C   0  0  1  0  0  0  0  0  0  0  0  0
    3.3013   -2.4898   -3.2965 C   0  0  0  0  0  0  0  0  0  0  0  0
    4.3940   -1.2734   -3.6074 C   0  0  0  0  0  0  0  0  0  0  0  0
    5.3511   -0.9782   -2.3116 C   0  0  2  0  0  0  0  0  0  0  0  0
    4.6748   -2.1317   -2.1702 C   0  0  1  0  0  0  0  0  0  0  0  0
    3.5281   -1.6983   -1.0685 C   0  0  2  0  0  0  0  0  0  0  0  0
    5.2624   -7.2196    1.2779 H   0  0  0  0  0  0  0  0  0  0  0  0
    5.4107   -6.5112   -0.3173 H   0  0  0  0  0  0  0  0  0  0  0  0
    3.8366   -6.9877    0.3107 H   0  0  0  0  0  0  0  0  0  0  0  0
    4.1860   -5.2156    2.1732 H   0  0  0  0  0  0  0  0  0  0  0  0
    5.6820   -4.8111    1.4585 H   0  0  0  0  0  0  0  0  0  0  0  0
    1.8753   -3.8311   -0.2129 H   0  0  0  0  0  0  0  0  0  0  0  0
    2.0938   -4.7923    1.2360 H   0  0  0  0  0  0  0  0  0  0  0  0
    2.4334   -5.4702   -0.3400 H   0  0  0  0  0  0  0  0  0  0  0  0
    2.9660   -2.6915    1.6938 H   0  0  0  0  0  0  0  0  0  0  0  0
    4.6648   -2.7972    1.9608 H   0  0  0  0  0  0  0  0  0  0  0  0
    3.6035   -0.6936    0.7875 H   0  0  0  0  0  0  0  0  0  0  0  0
    5.6887   -0.0270    0.0478 H   0  0  0  0  0  0  0  0  0  0  0  0
    6.2219   -1.3854    0.9978 H   0  0  0  0  0  0  0  0  0  0  0  0
    6.7507   -3.7691   -1.4393 H   0  0  0  0  0  0  0  0  0  0  0  0
    6.5419   -3.4142    0.2512 H   0  0  0  0  0  0  0  0  0  0  0  0
    4.5924   -4.8001   -1.5178 H   0  0  0  0  0  0  0  0  0  0  0  0
    3.3818   -3.3485   -3.9502 H   0  0  0  0  0  0  0  0  0  0  0  0
    2.2901   -2.0893   -3.3846 H   0  0  0  0  0  0  0  0  0  0  0  0
    4.9894   -1.4832   -4.4982 H   0  0  0  0  0  0  0  0  0  0  0  0
    3.8681   -0.3448   -3.8444 H   0  0  0  0  0  0  0  0  0  0  0  0
    4.9137   -0.0752   -1.8907 H   0  0  0  0  0  0  0  0  0  0  0  0
    5.2341   -2.9657   -2.7347 H   0  0  0  0  0  0  0  0  0  0  0  0
    2.8023   -0.9524   -1.3523 H   0  0  0  0  0  0  0  0  0  0  0  0
  1  2  1  0
  1 17  1  0
  1 18  1  0
  1 19  1  0
  3  2  1  1
  2 20  1  0
  2 21  1  0
  3 10  1  0
  3  4  1  0
  3  5  1  0
  4 22  1  0
  4 23  1  0
  4 24  1  0
  5  6  1  0
  5 25  1  0
  5 26  1  0
  6 16  1  0
  6  7  1  0
  6 27  1  1
  7  8  1  0
  7 28  1  0
  7 29  1  0
  8 14  1  0
  8  9  1  0
  9 10  1  0
  9 30  1  0
  9 31  1  0
 10 11  1  0
 10 32  1  6
 11 15  1  0
 11 16  1  0
 11 12  1  6
 12 13  1  0
 12 33  1  0
 12 34  1  0
 13 14  1  0
 13 35  1  0
 13 36  1  0
 14 15  1  0
 14 37  1  1
 15 16  1  0
 15 38  1  1
 16 39  1  6
M  CHG  1   3   1
M  END
>  <i_m_ct_stereo_status>  (75) 
1

>  <s_m_source_file>  (75) 
/var/tmp/pbs.5076255.sched01/tmpu3exd1vk/0t_9me_9p.sdf

>  <i_m_source_file_index>  (75) 
37

>  <i_lp_mmshare_version>  (75) 
48012

>  <i_f3d_flags>  (75) 
0

>  <s_epik_input>  (75) 
W0NIM11bQ0gyXVtOQCtdKFtDSDNdKShbQ0BIXTFbQ0BdMjM0KVtDSDJdW0NAQEhdNVtDSF00W0NIXTNbQ0BIXShOKFtDSDJdNSlbQ0gyXTEpW0NIMl1bQ0gyXTI=

>  <s_epik_cmdline>  (75) 
J2VwaWtfcHl0aG9uJywgJy1waHQnLCAnMi4wJywgJy1waCcsICc3LjAnLCAnLXRuJywgJzgnLCAnLW1hJywgJzIwMCcsICctaW1hZScsICc8aW5maWxlLm1hZT4nLCAnLW9tYWUnLCAnPG91dGZpbGUubWFlPic=

>  <r_lp_tautomer_probability>  (75) 
1

>  <r_epik_Ionization_Penalty>  (75) 
1.01473e-06

>  <r_epik_Ionization_Penalty_Charging>  (75) 
0

>  <r_epik_Ionization_Penalty_Neutral>  (75) 
1.01473e-06

>  <r_epik_State_Penalty>  (75) 
-0

>  <r_epik_Charging_Adjusted_Penalty>  (75) 
0

>  <i_epik_Tot_Q>  (75) 
1

>  <i_epik_Tot_abs_Q>  (75) 
1

>  <s_lp_Force_Field>  (75) 
OPLS3e

>  <r_lp_Energy>  (75) 
367.81

>  <b_lp_Chiralities_Consistent>  (75) 
1

>  <s_lp_Variant>  (75) 
28:0-1

>  <s_i_glide_gridfile>  (75) 
pfpi4k_grid

>  <i_i_glide_lignum>  (75) 
37

>  <i_i_glide_rotatable_bonds>  (75) 
1

>  <r_i_docking_score>  (75) 
-4.09954

>  <r_i_glide_ligand_efficiency>  (75) 
-0.256221

>  <r_i_glide_ligand_efficiency_sa>  (75) 
-0.645636

>  <r_i_glide_ligand_efficiency_ln>  (75) 
-1.08666

>  <r_i_glide_gscore>  (75) 
-4.09954

>  <r_i_glide_lipo>  (75) 
-0.590283

>  <r_i_glide_hbond>  (75) 
-0.128934

>  <r_i_glide_metal>  (75) 
-0

>  <r_i_glide_rewards>  (75) 
-1.91355

>  <r_i_glide_evdw>  (75) 
-14.1576

>  <r_i_glide_ecoul>  (75) 
-5.05926

>  <r_i_glide_erotb>  (75) 
0

>  <r_i_glide_esite>  (75) 
0

>  <r_i_glide_emodel>  (75) 
-24.5554

>  <r_i_glide_energy>  (75) 
-19.2168

>  <r_i_glide_einternal>  (75) 
0.487959

>  <r_i_glide_intrahb_reward>  (75) 
-0

>  <i_i_glide_confnum>  (75) 
1

>  <i_i_glide_posenum>  (75) 
15

>  <r_i_glide_eff_state_penalty>  (75) 
0

>  <ligand_id>  (75) 
28

>  <original_smiles>  (75) 
CC[N+]1(C)CC2CN3CC1C14CCC3C1C24

>  <smiles>  (75) 
[H]C([H])([H])C([H])([H])[N+]1(C([H])([H])[H])C([H])([H])C2([H])C([H])([H])N3C([H])([H])C1([H])C14C([H])([H])C([H])([H])C3([H])C1([H])C24[H]

$$$$
28:0:2
     RDKit          3D

 39 43  0  0  1  0  0  0  0  0999 V2000
    4.1339   -0.2230   -3.7697 C   0  0  0  0  0  0  0  0  0  0  0  0
    2.9827   -1.0298   -3.0828 C   0  0  0  0  0  0  0  0  0  0  0  0
    3.2711   -2.3471   -2.3949 N   0  0  1  0  0  0  0  0  0  0  0  0
    2.0097   -3.1670   -2.4860 C   0  0  0  0  0  0  0  0  0  0  0  0
    4.3556   -3.1340   -3.0835 C   0  0  0  0  0  0  0  0  0  0  0  0
    5.3586   -3.8004   -2.1178 C   0  0  1  0  0  0  0  0  0  0  0  0
    6.5376   -2.8940   -1.6563 C   0  0  0  0  0  0  0  0  0  0  0  0
    6.2125   -2.2474   -0.3598 N   0  0  0  0  0  0  0  0  0  0  0  0
    5.0347   -1.3268   -0.7525 C   0  0  0  0  0  0  0  0  0  0  0  0
    3.6106   -2.1684   -0.9232 C   0  0  2  0  0  0  0  0  0  0  0  0
    3.6836   -3.6423   -0.2090 C   0  0  1  0  0  0  0  0  0  0  0  0
    3.6349   -4.2765    1.2349 C   0  0  0  0  0  0  0  0  0  0  0  0
    5.2220   -4.1560    1.7993 C   0  0  0  0  0  0  0  0  0  0  0  0
    6.1705   -3.4256    0.6877 C   0  0  2  0  0  0  0  0  0  0  0  0
    4.8316   -3.3105    0.4575 C   0  0  2  0  0  0  0  0  0  0  0  0
    4.6963   -4.3154   -0.8592 C   0  0  2  0  0  0  0  0  0  0  0  0
    3.7927    0.7703   -4.0651 H   0  0  0  0  0  0  0  0  0  0  0  0
    4.5319   -0.7074   -4.6612 H   0  0  0  0  0  0  0  0  0  0  0  0
    4.9747    0.0222   -3.1445 H   0  0  0  0  0  0  0  0  0  0  0  0
    2.4509   -0.3833   -2.3886 H   0  0  0  0  0  0  0  0  0  0  0  0
    2.2638   -1.1996   -3.8817 H   0  0  0  0  0  0  0  0  0  0  0  0
    2.0908   -4.1735   -2.0582 H   0  0  0  0  0  0  0  0  0  0  0  0
    1.6846   -3.3268   -3.5224 H   0  0  0  0  0  0  0  0  0  0  0  0
    1.1660   -2.7055   -1.9631 H   0  0  0  0  0  0  0  0  0  0  0  0
    3.9199   -3.8726   -3.7604 H   0  0  0  0  0  0  0  0  0  0  0  0
    4.9712   -2.5524   -3.7422 H   0  0  0  0  0  0  0  0  0  0  0  0
    5.7642   -4.6471   -2.6623 H   0  0  0  0  0  0  0  0  0  0  0  0
    7.4386   -3.4922   -1.5415 H   0  0  0  0  0  0  0  0  0  0  0  0
    6.7918   -2.1935   -2.4426 H   0  0  0  0  0  0  0  0  0  0  0  0
    4.8960   -0.5778    0.0318 H   0  0  0  0  0  0  0  0  0  0  0  0
    5.4213   -0.7684   -1.5609 H   0  0  0  0  0  0  0  0  0  0  0  0
    2.8022   -1.6223   -0.4463 H   0  0  0  0  0  0  0  0  0  0  0  0
    2.9020   -3.7906    1.8829 H   0  0  0  0  0  0  0  0  0  0  0  0
    3.3631   -5.3409    1.1680 H   0  0  0  0  0  0  0  0  0  0  0  0
    5.2647   -3.6545    2.7768 H   0  0  0  0  0  0  0  0  0  0  0  0
    5.6367   -5.1561    1.9672 H   0  0  0  0  0  0  0  0  0  0  0  0
    6.7229   -4.2550    0.2598 H   0  0  0  0  0  0  0  0  0  0  0  0
    4.4269   -2.3742    1.0274 H   0  0  0  0  0  0  0  0  0  0  0  0
    4.7118   -5.4105   -0.7491 H   0  0  0  0  0  0  0  0  0  0  0  0
  1  2  1  0
  1 17  1  0
  1 18  1  0
  1 19  1  0
  3  2  1  6
  2 20  1  0
  2 21  1  0
  3 10  1  0
  3  4  1  0
  3  5  1  0
  4 22  1  0
  4 23  1  0
  4 24  1  0
  5  6  1  0
  5 25  1  0
  5 26  1  0
  6 16  1  0
  6  7  1  0
  6 27  1  6
  7  8  1  0
  7 28  1  0
  7 29  1  0
  8 14  1  0
  8  9  1  0
  9 10  1  0
  9 30  1  0
  9 31  1  0
 10 11  1  0
 10 32  1  1
 11 15  1  0
 11 16  1  0
 11 12  1  1
 12 13  1  0
 12 33  1  0
 12 34  1  0
 13 14  1  0
 13 35  1  0
 13 36  1  0
 14 15  1  0
 14 37  1  6
 15 16  1  0
 15 38  1  6
 16 39  1  1
M  CHG  1   3   1
M  END
>  <i_m_ct_stereo_status>  (76) 
1

>  <s_m_source_file>  (76) 
/var/tmp/pbs.5076255.sched01/tmpu3exd1vk/0t_9me_9p.sdf

>  <i_m_source_file_index>  (76) 
37

>  <i_lp_mmshare_version>  (76) 
48012

>  <i_f3d_flags>  (76) 
0

>  <s_epik_input>  (76) 
W0NIM11bQ0gyXVtOQCtdKFtDSDNdKShbQ0BIXTFbQ0BdMjM0KVtDSDJdW0NAQEhdNVtDSF00W0NIXTNbQ0BIXShOKFtDSDJdNSlbQ0gyXTEpW0NIMl1bQ0gyXTI=

>  <s_epik_cmdline>  (76) 
J2VwaWtfcHl0aG9uJywgJy1waHQnLCAnMi4wJywgJy1waCcsICc3LjAnLCAnLXRuJywgJzgnLCAnLW1hJywgJzIwMCcsICctaW1hZScsICc8aW5maWxlLm1hZT4nLCAnLW9tYWUnLCAnPG91dGZpbGUubWFlPic=

>  <r_lp_tautomer_probability>  (76) 
1

>  <r_epik_Ionization_Penalty>  (76) 
1.01473e-06

>  <r_epik_Ionization_Penalty_Charging>  (76) 
0

>  <r_epik_Ionization_Penalty_Neutral>  (76) 
1.01473e-06

>  <r_epik_State_Penalty>  (76) 
-0

>  <r_epik_Charging_Adjusted_Penalty>  (76) 
0

>  <i_epik_Tot_Q>  (76) 
1

>  <i_epik_Tot_abs_Q>  (76) 
1

>  <s_lp_Force_Field>  (76) 
OPLS3e

>  <r_lp_Energy>  (76) 
367.81

>  <b_lp_Chiralities_Consistent>  (76) 
1

>  <s_lp_Variant>  (76) 
28:0-1

>  <s_i_glide_gridfile>  (76) 
pfpi4k_grid

>  <i_i_glide_lignum>  (76) 
37

>  <i_i_glide_rotatable_bonds>  (76) 
1

>  <r_i_docking_score>  (76) 
-3.97115

>  <r_i_glide_ligand_efficiency>  (76) 
-0.248197

>  <r_i_glide_ligand_efficiency_sa>  (76) 
-0.625417

>  <r_i_glide_ligand_efficiency_ln>  (76) 
-1.05263

>  <r_i_glide_gscore>  (76) 
-3.97115

>  <r_i_glide_lipo>  (76) 
-0.671223

>  <r_i_glide_hbond>  (76) 
0

>  <r_i_glide_metal>  (76) 
-0

>  <r_i_glide_rewards>  (76) 
-1.91355

>  <r_i_glide_evdw>  (76) 
-13.8495

>  <r_i_glide_ecoul>  (76) 
-4.38557

>  <r_i_glide_erotb>  (76) 
0

>  <r_i_glide_esite>  (76) 
-0.0360652

>  <r_i_glide_emodel>  (76) 
-18.8808

>  <r_i_glide_energy>  (76) 
-18.2351

>  <r_i_glide_einternal>  (76) 
7.64041

>  <r_i_glide_intrahb_reward>  (76) 
-0

>  <i_i_glide_confnum>  (76) 
2

>  <i_i_glide_posenum>  (76) 
1

>  <r_i_glide_eff_state_penalty>  (76) 
0

>  <ligand_id>  (76) 
28

>  <original_smiles>  (76) 
CC[N+]1(C)CC2CN3CC1C14CCC3C1C24

>  <smiles>  (76) 
[H]C([H])([H])C([H])([H])[N+]1(C([H])([H])[H])C([H])([H])C2([H])C([H])([H])N3C([H])([H])C1([H])C14C([H])([H])C([H])([H])C3([H])C1([H])C24[H]

$$$$
29:0:0
     RDKit          3D

 63 69  0  0  1  0  0  0  0  0999 V2000
    3.3612   -6.3373    4.7927 C   0  0  0  0  0  0  0  0  0  0  0  0
    3.2129   -5.9623    3.2982 C   0  0  1  0  0  0  0  0  0  0  0  0
    4.3623   -5.2345    2.8593 O   0  0  0  0  0  0  0  0  0  0  0  0
    4.2579   -3.8778    3.1132 C   0  0  1  0  0  0  0  0  0  0  0  0
    5.4129   -3.5017    3.8362 O   0  0  0  0  0  0  0  0  0  0  0  0
    4.0209   -3.0821    1.7429 C   0  0  1  0  0  0  0  0  0  0  0  0
    3.4629   -1.6848    2.1477 C   0  0  1  0  0  0  0  0  0  0  0  0
    4.2518   -1.0082    3.1151 O   0  0  0  0  0  0  0  0  0  0  0  0
    3.5342   -0.9088    0.8458 C   0  0  1  0  0  0  0  0  0  0  0  0
    3.5464    0.4544    1.1666 O   0  0  0  0  0  0  0  0  0  0  0  0
    4.8050   -1.4207    0.1440 C   0  0  2  0  0  0  0  0  0  0  0  0
    4.6457   -1.8680   -1.3094 C   0  0  2  0  0  0  0  0  0  0  0  0
    4.7063   -0.6620   -2.2651 C   0  0  0  0  0  0  0  0  0  0  0  0
    3.3767   -2.6751   -1.6553 C   0  0  1  0  0  0  0  0  0  0  0  0
    3.8143   -3.3490   -2.9719 C   0  0  0  0  0  0  0  0  0  0  0  0
    5.2808   -3.7288   -2.7383 C   0  0  0  0  0  0  0  0  0  0  0  0
    5.7648   -2.9015   -1.5384 C   0  0  1  0  0  0  0  0  0  0  0  0
    7.0096   -2.3006   -1.8554 O   0  0  0  0  0  0  0  0  0  0  0  0
    5.8648   -3.6455   -0.1822 C   0  0  1  0  0  0  0  0  0  0  0  0
    7.1822   -4.0954    0.0942 O   0  0  0  0  0  0  0  0  0  0  0  0
    5.2976   -2.6766    0.8946 C   0  0  2  0  0  0  0  0  0  0  0  0
    6.3660   -2.1754    1.6823 O   0  0  0  0  0  0  0  0  0  0  0  0
    2.8849   -3.8074   -0.6848 C   0  0  0  0  0  0  0  0  0  0  0  0
    2.8150   -3.7402    0.8903 C   0  0  1  0  0  0  0  0  0  0  0  0
    2.2227   -5.1057    1.3679 C   0  0  1  0  0  0  0  0  0  0  0  0
    2.9998   -6.3799    1.0413 C   0  0  0  0  0  0  0  0  0  0  0  0
    3.0464   -7.1667    2.3578 C   0  0  2  0  0  0  0  0  0  0  0  0
    1.6372   -7.7379    2.6780 C   0  0  0  0  0  0  0  0  0  0  0  0
    0.9381   -6.4472    3.0121 C   0  0  0  0  0  0  0  0  0  0  0  0
   -0.2443   -6.3477    3.3453 O   0  0  0  0  0  0  0  0  0  0  0  0
    1.8935   -5.2867    2.8639 C   0  0  1  0  0  0  0  0  0  0  0  0
    2.5366   -6.9464    5.1659 H   0  0  0  0  0  0  0  0  0  0  0  0
    3.4114   -5.4380    5.4143 H   0  0  0  0  0  0  0  0  0  0  0  0
    4.2828   -6.9071    4.9427 H   0  0  0  0  0  0  0  0  0  0  0  0
    3.4572   -3.6498    3.8198 H   0  0  0  0  0  0  0  0  0  0  0  0
    6.1200   -3.5639    3.2173 H   0  0  0  0  0  0  0  0  0  0  0  0
    2.4501   -1.6963    2.5511 H   0  0  0  0  0  0  0  0  0  0  0  0
    3.8954   -0.1369    3.1906 H   0  0  0  0  0  0  0  0  0  0  0  0
    2.6518   -1.0943    0.2503 H   0  0  0  0  0  0  0  0  0  0  0  0
    2.6634    0.7725    1.0984 H   0  0  0  0  0  0  0  0  0  0  0  0
    5.5717   -0.6483    0.1683 H   0  0  0  0  0  0  0  0  0  0  0  0
    4.7921   -0.9096   -3.3173 H   0  0  0  0  0  0  0  0  0  0  0  0
    5.5599   -0.0382   -2.0258 H   0  0  0  0  0  0  0  0  0  0  0  0
    3.8154   -0.0540   -2.1727 H   0  0  0  0  0  0  0  0  0  0  0  0
    2.5400   -2.0093   -1.8615 H   0  0  0  0  0  0  0  0  0  0  0  0
    3.2017   -4.1936   -3.2806 H   0  0  0  0  0  0  0  0  0  0  0  0
    3.7295   -2.6568   -3.8090 H   0  0  0  0  0  0  0  0  0  0  0  0
    5.3540   -4.7858   -2.5102 H   0  0  0  0  0  0  0  0  0  0  0  0
    5.8651   -3.5531   -3.6448 H   0  0  0  0  0  0  0  0  0  0  0  0
    7.6042   -2.9444   -2.1954 H   0  0  0  0  0  0  0  0  0  0  0  0
    5.2909   -4.5592   -0.1825 H   0  0  0  0  0  0  0  0  0  0  0  0
    7.5173   -4.4945   -0.6801 H   0  0  0  0  0  0  0  0  0  0  0  0
    6.0336   -1.4653    2.2125 H   0  0  0  0  0  0  0  0  0  0  0  0
    1.8718   -4.0288   -1.0274 H   0  0  0  0  0  0  0  0  0  0  0  0
    3.4101   -4.7096   -0.9556 H   0  0  0  0  0  0  0  0  0  0  0  0
    1.9581   -3.0877    1.0394 H   0  0  0  0  0  0  0  0  0  0  0  0
    1.3022   -5.2263    0.8116 H   0  0  0  0  0  0  0  0  0  0  0  0
    2.3714   -6.9012    0.3648 H   0  0  0  0  0  0  0  0  0  0  0  0
    3.9922   -6.2116    0.6137 H   0  0  0  0  0  0  0  0  0  0  0  0
    3.8388   -7.9154    2.3825 H   0  0  0  0  0  0  0  0  0  0  0  0
    1.1713   -8.2530    1.8418 H   0  0  0  0  0  0  0  0  0  0  0  0
    1.6454   -8.3984    3.5413 H   0  0  0  0  0  0  0  0  0  0  0  0
    1.5809   -4.3915    3.3975 H   0  0  0  0  0  0  0  0  0  0  0  0
  2  1  1  1
  1 32  1  0
  1 33  1  0
  1 34  1  0
  2 27  1  0
  2 31  1  0
  2  3  1  0
  3  4  1  0
  4  5  1  0
  4  6  1  0
  4 35  1  1
  5 36  1  0
  6 21  1  6
  6 24  1  0
  6  7  1  0
  7  8  1  0
  7  9  1  0
  7 37  1  1
  8 38  1  0
  9 10  1  0
  9 11  1  0
  9 39  1  6
 10 40  1  0
 11 21  1  0
 11 12  1  0
 11 41  1  6
 12 17  1  0
 12 13  1  6
 12 14  1  0
 13 42  1  0
 13 43  1  0
 13 44  1  0
 14 15  1  0
 14 23  1  0
 14 45  1  6
 15 16  1  0
 15 46  1  0
 15 47  1  0
 16 17  1  0
 16 48  1  0
 16 49  1  0
 17 18  1  6
 17 19  1  0
 18 50  1  0
 19 20  1  0
 19 21  1  0
 19 51  1  6
 20 52  1  0
 21 22  1  1
 22 53  1  0
 23 24  1  0
 23 54  1  0
 23 55  1  0
 24 25  1  0
 24 56  1  6
 25 31  1  0
 25 26  1  0
 25 57  1  6
 26 27  1  0
 26 58  1  0
 26 59  1  0
 27 28  1  0
 27 60  1  6
 28 29  1  0
 28 61  1  0
 28 62  1  0
 29 30  2  0
 29 31  1  0
 31 63  1  1
M  END
>  <i_m_ct_stereo_status>  (77) 
1

>  <s_m_source_file>  (77) 
/var/tmp/pbs.5076255.sched01/tmpu3exd1vk/0t_9me_9p.sdf

>  <i_m_source_file_index>  (77) 
38

>  <i_lp_mmshare_version>  (77) 
48012

>  <i_f3d_flags>  (77) 
0

>  <s_epik_input>  (77) 
Tz1DMVtDSDJdW0NAQEhdKFtDSDJdMilbQ0BAXShbQ0gzXSkoT1tDQEhdM1tPSF0pW0NASF0xW0NASF0yW0NAQEhdNFtDSDJdW0NAQEhdKFtDQEBdNShbQ0gzXSlbQ0BIXShbQ0BdNihbQ0BdMzQ3KVtPSF0pW0NASF0oW09IXSlbQ0BASF03W09IXSlbQ0gyXVtDSDJdW0NAXTUoW09IXSlbQ0BIXTZbT0hd

>  <s_epik_cmdline>  (77) 
J2VwaWtfcHl0aG9uJywgJy1waHQnLCAnMi4wJywgJy1waCcsICc3LjAnLCAnLXRuJywgJzgnLCAnLW1hJywgJzIwMCcsICctaW1hZScsICc8aW5maWxlLm1hZT4nLCAnLW9tYWUnLCAnPG91dGZpbGUubWFlPic=

>  <r_lp_tautomer_probability>  (77) 
1

>  <r_epik_Ionization_Penalty>  (77) 
7.04148e-07

>  <r_epik_Ionization_Penalty_Charging>  (77) 
0

>  <r_epik_Ionization_Penalty_Neutral>  (77) 
7.04148e-07

>  <r_epik_State_Penalty>  (77) 
-0

>  <r_epik_Charging_Adjusted_Penalty>  (77) 
0

>  <i_epik_Tot_Q>  (77) 
0

>  <i_epik_Tot_abs_Q>  (77) 
0

>  <s_epik_Chemistry_Notes>  (77) 
This compound contains an acetal/aminal-like group ( X-CH(R)-Y where X, Y are N, S, or O) that may be acid/base labile, releasing an aldehyde.

>  <s_lp_Force_Field>  (77) 
OPLS3e

>  <r_lp_Energy>  (77) 
107.671

>  <b_lp_Chiralities_Consistent>  (77) 
1

>  <s_lp_Variant>  (77) 
29:0-1

>  <s_i_glide_gridfile>  (77) 
pfpi4k_grid

>  <i_i_glide_lignum>  (77) 
38

>  <i_i_glide_rotatable_bonds>  (77) 
6

>  <r_i_docking_score>  (77) 
-3.9962

>  <r_i_glide_ligand_efficiency>  (77) 
-0.12891

>  <r_i_glide_ligand_efficiency_sa>  (77) 
-0.404954

>  <r_i_glide_ligand_efficiency_ln>  (77) 
-0.901266

>  <r_i_glide_gscore>  (77) 
-3.9962

>  <r_i_glide_lipo>  (77) 
-0.23703

>  <r_i_glide_hbond>  (77) 
-0.124948

>  <r_i_glide_metal>  (77) 
-0

>  <r_i_glide_rewards>  (77) 
-1.43962

>  <r_i_glide_evdw>  (77) 
-20.9205

>  <r_i_glide_ecoul>  (77) 
-7.39333

>  <r_i_glide_erotb>  (77) 
0

>  <r_i_glide_esite>  (77) 
-0.0395769

>  <r_i_glide_emodel>  (77) 
-42.473

>  <r_i_glide_energy>  (77) 
-28.3139

>  <r_i_glide_einternal>  (77) 
1.85802

>  <r_i_glide_intrahb_reward>  (77) 
-1

>  <i_i_glide_confnum>  (77) 
2

>  <i_i_glide_posenum>  (77) 
9

>  <r_i_glide_eff_state_penalty>  (77) 
0

>  <ligand_id>  (77) 
29

>  <original_smiles>  (77) 
CC12OC(O)C34C(O)C(O)C5C6(C)C(CCC6(O)C(O)C53O)CC4C3CC1CC(=O)C32

>  <smiles>  (77) 
[H]OC1([H])OC2(C([H])([H])[H])C3([H])C(=O)C([H])([H])C2([H])C([H])([H])C3([H])C2([H])C([H])([H])C3([H])C([H])([H])C([H])([H])C4(O[H])C([H])(O[H])C5(O[H])C([H])(C([H])(O[H])C([H])(O[H])C125)C34C([H])([H])[H]

$$$$
29:0:1
     RDKit          3D

 63 69  0  0  1  0  0  0  0  0999 V2000
    3.3675   -6.3316    4.8309 C   0  0  0  0  0  0  0  0  0  0  0  0
    3.2134   -5.9624    3.3402 C   0  0  1  0  0  0  0  0  0  0  0  0
    4.3629   -5.2402    2.8896 O   0  0  0  0  0  0  0  0  0  0  0  0
    4.2640   -3.8818    3.1413 C   0  0  1  0  0  0  0  0  0  0  0  0
    5.4077   -3.4979    3.8662 O   0  0  0  0  0  0  0  0  0  0  0  0
    4.0172   -3.0916    1.7641 C   0  0  1  0  0  0  0  0  0  0  0  0
    3.4742   -1.6933    2.1756 C   0  0  1  0  0  0  0  0  0  0  0  0
    4.2714   -1.0281    3.1542 O   0  0  0  0  0  0  0  0  0  0  0  0
    3.5458   -0.9049    0.8780 C   0  0  1  0  0  0  0  0  0  0  0  0
    3.5863    0.4614    1.2024 O   0  0  0  0  0  0  0  0  0  0  0  0
    4.8056   -1.4339    0.1658 C   0  0  2  0  0  0  0  0  0  0  0  0
    4.6333   -1.8724   -1.2900 C   0  0  2  0  0  0  0  0  0  0  0  0
    4.6929   -0.6668   -2.2415 C   0  0  0  0  0  0  0  0  0  0  0  0
    3.3565   -2.6807   -1.6204 C   0  0  1  0  0  0  0  0  0  0  0  0
    3.7804   -3.3468   -2.9446 C   0  0  0  0  0  0  0  0  0  0  0  0
    5.2471   -3.7389   -2.7254 C   0  0  0  0  0  0  0  0  0  0  0  0
    5.7445   -2.9018   -1.5365 C   0  0  1  0  0  0  0  0  0  0  0  0
    6.9715   -2.2684   -1.8794 O   0  0  0  0  0  0  0  0  0  0  0  0
    5.8487   -3.6545   -0.1791 C   0  0  1  0  0  0  0  0  0  0  0  0
    7.1435   -4.1647    0.0805 O   0  0  0  0  0  0  0  0  0  0  0  0
    5.2915   -2.6930    0.9088 C   0  0  2  0  0  0  0  0  0  0  0  0
    6.3653   -2.2326    1.6876 O   0  0  0  0  0  0  0  0  0  0  0  0
    2.8681   -3.8063   -0.6487 C   0  0  0  0  0  0  0  0  0  0  0  0
    2.8090   -3.7376    0.9219 C   0  0  1  0  0  0  0  0  0  0  0  0
    2.2157   -5.1028    1.4122 C   0  0  1  0  0  0  0  0  0  0  0  0
    2.9831   -6.3944    1.0845 C   0  0  0  0  0  0  0  0  0  0  0  0
    3.0327   -7.1647    2.4069 C   0  0  2  0  0  0  0  0  0  0  0  0
    1.6214   -7.7254    2.7321 C   0  0  0  0  0  0  0  0  0  0  0  0
    0.9314   -6.4322    3.0650 C   0  0  0  0  0  0  0  0  0  0  0  0
   -0.2507   -6.3187    3.4096 O   0  0  0  0  0  0  0  0  0  0  0  0
    1.8968   -5.2795    2.9083 C   0  0  1  0  0  0  0  0  0  0  0  0
    2.5401   -6.9378    5.2075 H   0  0  0  0  0  0  0  0  0  0  0  0
    3.4252   -5.4370    5.4532 H   0  0  0  0  0  0  0  0  0  0  0  0
    4.2829   -6.9109    4.9764 H   0  0  0  0  0  0  0  0  0  0  0  0
    3.4576   -3.6500    3.8504 H   0  0  0  0  0  0  0  0  0  0  0  0
    6.1167   -3.5329    3.2403 H   0  0  0  0  0  0  0  0  0  0  0  0
    2.4611   -1.6970    2.5902 H   0  0  0  0  0  0  0  0  0  0  0  0
    3.8840   -0.1807    3.2939 H   0  0  0  0  0  0  0  0  0  0  0  0
    2.6491   -1.0769    0.2881 H   0  0  0  0  0  0  0  0  0  0  0  0
    2.6971    0.7757    1.2409 H   0  0  0  0  0  0  0  0  0  0  0  0
    5.5775   -0.6675    0.1926 H   0  0  0  0  0  0  0  0  0  0  0  0
    4.7808   -0.9203   -3.2933 H   0  0  0  0  0  0  0  0  0  0  0  0
    5.5541   -0.0501   -2.0092 H   0  0  0  0  0  0  0  0  0  0  0  0
    3.8140   -0.0592   -2.1525 H   0  0  0  0  0  0  0  0  0  0  0  0
    2.5262   -2.0094   -1.8242 H   0  0  0  0  0  0  0  0  0  0  0  0
    3.1630   -4.1880   -3.2510 H   0  0  0  0  0  0  0  0  0  0  0  0
    3.6995   -2.6522   -3.7763 H   0  0  0  0  0  0  0  0  0  0  0  0
    5.3177   -4.7935   -2.4798 H   0  0  0  0  0  0  0  0  0  0  0  0
    5.8317   -3.5750   -3.6312 H   0  0  0  0  0  0  0  0  0  0  0  0
    7.5702   -2.9376   -2.1694 H   0  0  0  0  0  0  0  0  0  0  0  0
    5.2616   -4.5600   -0.1779 H   0  0  0  0  0  0  0  0  0  0  0  0
    7.1041   -4.6471    0.8907 H   0  0  0  0  0  0  0  0  0  0  0  0
    6.0310   -1.5551    2.2662 H   0  0  0  0  0  0  0  0  0  0  0  0
    1.8517   -4.0230   -0.9830 H   0  0  0  0  0  0  0  0  0  0  0  0
    3.3836   -4.7163   -0.9177 H   0  0  0  0  0  0  0  0  0  0  0  0
    1.9492   -3.0835    1.0825 H   0  0  0  0  0  0  0  0  0  0  0  0
    1.2995   -5.2225    0.8633 H   0  0  0  0  0  0  0  0  0  0  0  0
    2.3387   -6.9408    0.4409 H   0  0  0  0  0  0  0  0  0  0  0  0
    3.9677   -6.2265    0.6439 H   0  0  0  0  0  0  0  0  0  0  0  0
    3.8215   -7.9206    2.4254 H   0  0  0  0  0  0  0  0  0  0  0  0
    1.1441   -8.2380    1.8959 H   0  0  0  0  0  0  0  0  0  0  0  0
    1.6258   -8.3882    3.5926 H   0  0  0  0  0  0  0  0  0  0  0  0
    1.5877   -4.3821    3.4442 H   0  0  0  0  0  0  0  0  0  0  0  0
  2  1  1  1
  1 32  1  0
  1 33  1  0
  1 34  1  0
  2 27  1  0
  2 31  1  0
  2  3  1  0
  3  4  1  0
  4  5  1  0
  4  6  1  0
  4 35  1  1
  5 36  1  0
  6 21  1  6
  6 24  1  0
  6  7  1  0
  7  8  1  0
  7  9  1  0
  7 37  1  1
  8 38  1  0
  9 10  1  0
  9 11  1  0
  9 39  1  6
 10 40  1  0
 11 21  1  0
 11 12  1  0
 11 41  1  6
 12 17  1  0
 12 13  1  6
 12 14  1  0
 13 42  1  0
 13 43  1  0
 13 44  1  0
 14 15  1  0
 14 23  1  0
 14 45  1  6
 15 16  1  0
 15 46  1  0
 15 47  1  0
 16 17  1  0
 16 48  1  0
 16 49  1  0
 17 18  1  6
 17 19  1  0
 18 50  1  0
 19 20  1  0
 19 21  1  0
 19 51  1  6
 20 52  1  0
 21 22  1  1
 22 53  1  0
 23 24  1  0
 23 54  1  0
 23 55  1  0
 24 25  1  0
 24 56  1  6
 25 31  1  0
 25 26  1  0
 25 57  1  6
 26 27  1  0
 26 58  1  0
 26 59  1  0
 27 28  1  0
 27 60  1  6
 28 29  1  0
 28 61  1  0
 28 62  1  0
 29 30  2  0
 29 31  1  0
 31 63  1  1
M  END
>  <i_m_ct_stereo_status>  (78) 
1

>  <s_m_source_file>  (78) 
/var/tmp/pbs.5076255.sched01/tmpu3exd1vk/0t_9me_9p.sdf

>  <i_m_source_file_index>  (78) 
38

>  <i_lp_mmshare_version>  (78) 
48012

>  <i_f3d_flags>  (78) 
0

>  <s_epik_input>  (78) 
Tz1DMVtDSDJdW0NAQEhdKFtDSDJdMilbQ0BAXShbQ0gzXSkoT1tDQEhdM1tPSF0pW0NASF0xW0NASF0yW0NAQEhdNFtDSDJdW0NAQEhdKFtDQEBdNShbQ0gzXSlbQ0BIXShbQ0BdNihbQ0BdMzQ3KVtPSF0pW0NASF0oW09IXSlbQ0BASF03W09IXSlbQ0gyXVtDSDJdW0NAXTUoW09IXSlbQ0BIXTZbT0hd

>  <s_epik_cmdline>  (78) 
J2VwaWtfcHl0aG9uJywgJy1waHQnLCAnMi4wJywgJy1waCcsICc3LjAnLCAnLXRuJywgJzgnLCAnLW1hJywgJzIwMCcsICctaW1hZScsICc8aW5maWxlLm1hZT4nLCAnLW9tYWUnLCAnPG91dGZpbGUubWFlPic=

>  <r_lp_tautomer_probability>  (78) 
1

>  <r_epik_Ionization_Penalty>  (78) 
7.04148e-07

>  <r_epik_Ionization_Penalty_Charging>  (78) 
0

>  <r_epik_Ionization_Penalty_Neutral>  (78) 
7.04148e-07

>  <r_epik_State_Penalty>  (78) 
-0

>  <r_epik_Charging_Adjusted_Penalty>  (78) 
0

>  <i_epik_Tot_Q>  (78) 
0

>  <i_epik_Tot_abs_Q>  (78) 
0

>  <s_epik_Chemistry_Notes>  (78) 
This compound contains an acetal/aminal-like group ( X-CH(R)-Y where X, Y are N, S, or O) that may be acid/base labile, releasing an aldehyde.

>  <s_lp_Force_Field>  (78) 
OPLS3e

>  <r_lp_Energy>  (78) 
107.671

>  <b_lp_Chiralities_Consistent>  (78) 
1

>  <s_lp_Variant>  (78) 
29:0-1

>  <s_i_glide_gridfile>  (78) 
pfpi4k_grid

>  <i_i_glide_lignum>  (78) 
38

>  <i_i_glide_rotatable_bonds>  (78) 
6

>  <r_i_docking_score>  (78) 
-3.65427

>  <r_i_glide_ligand_efficiency>  (78) 
-0.11788

>  <r_i_glide_ligand_efficiency_sa>  (78) 
-0.370304

>  <r_i_glide_ligand_efficiency_ln>  (78) 
-0.824149

>  <r_i_glide_gscore>  (78) 
-3.65427

>  <r_i_glide_lipo>  (78) 
-0.23131

>  <r_i_glide_hbond>  (78) 
-0.119116

>  <r_i_glide_metal>  (78) 
-0

>  <r_i_glide_rewards>  (78) 
-0.939761

>  <r_i_glide_evdw>  (78) 
-21.5936

>  <r_i_glide_ecoul>  (78) 
-8.30536

>  <r_i_glide_erotb>  (78) 
0

>  <r_i_glide_esite>  (78) 
-0.0385915

>  <r_i_glide_emodel>  (78) 
-39.0213

>  <r_i_glide_energy>  (78) 
-29.899

>  <r_i_glide_einternal>  (78) 
1.39213

>  <r_i_glide_intrahb_reward>  (78) 
-0.5

>  <i_i_glide_confnum>  (78) 
1

>  <i_i_glide_posenum>  (78) 
1

>  <r_i_glide_eff_state_penalty>  (78) 
0

>  <ligand_id>  (78) 
29

>  <original_smiles>  (78) 
CC12OC(O)C34C(O)C(O)C5C6(C)C(CCC6(O)C(O)C53O)CC4C3CC1CC(=O)C32

>  <smiles>  (78) 
[H]OC1([H])OC2(C([H])([H])[H])C3([H])C(=O)C([H])([H])C2([H])C([H])([H])C3([H])C2([H])C([H])([H])C3([H])C([H])([H])C([H])([H])C4(O[H])C([H])(O[H])C5(O[H])C([H])(C([H])(O[H])C([H])(O[H])C125)C34C([H])([H])[H]

$$$$
29:0:2
     RDKit          3D

 63 69  0  0  1  0  0  0  0  0999 V2000
    3.5013   -6.2725    4.8679 C   0  0  0  0  0  0  0  0  0  0  0  0
    3.3177   -5.9178    3.3796 C   0  0  1  0  0  0  0  0  0  0  0  0
    4.4585   -5.1955    2.9294 O   0  0  0  0  0  0  0  0  0  0  0  0
    4.3571   -3.8336    3.1426 C   0  0  1  0  0  0  0  0  0  0  0  0
    5.4774   -3.4365    3.8606 O   0  0  0  0  0  0  0  0  0  0  0  0
    4.1005   -3.0389    1.7824 C   0  0  1  0  0  0  0  0  0  0  0  0
    3.5535   -1.6291    2.1902 C   0  0  1  0  0  0  0  0  0  0  0  0
    4.2404   -0.9756    3.2510 O   0  0  0  0  0  0  0  0  0  0  0  0
    3.6393   -0.8578    0.8764 C   0  0  1  0  0  0  0  0  0  0  0  0
    3.7025    0.5176    1.1215 O   0  0  0  0  0  0  0  0  0  0  0  0
    4.8824   -1.4157    0.1628 C   0  0  2  0  0  0  0  0  0  0  0  0
    4.6870   -1.8669   -1.2894 C   0  0  2  0  0  0  0  0  0  0  0  0
    4.7398   -0.6591   -2.2552 C   0  0  0  0  0  0  0  0  0  0  0  0
    3.4087   -2.6748   -1.6087 C   0  0  1  0  0  0  0  0  0  0  0  0
    3.8234   -3.3451   -2.9345 C   0  0  0  0  0  0  0  0  0  0  0  0
    5.2927   -3.7355   -2.7258 C   0  0  0  0  0  0  0  0  0  0  0  0
    5.8069   -2.8932   -1.5400 C   0  0  1  0  0  0  0  0  0  0  0  0
    7.0355   -2.2758   -1.8810 O   0  0  0  0  0  0  0  0  0  0  0  0
    5.9184   -3.6466   -0.1746 C   0  0  1  0  0  0  0  0  0  0  0  0
    7.2199   -4.1495    0.0626 O   0  0  0  0  0  0  0  0  0  0  0  0
    5.3828   -2.6682    0.9193 C   0  0  2  0  0  0  0  0  0  0  0  0
    6.5097   -2.2566    1.6736 O   0  0  0  0  0  0  0  0  0  0  0  0
    2.9351   -3.7954   -0.6231 C   0  0  0  0  0  0  0  0  0  0  0  0
    2.8912   -3.7100    0.9500 C   0  0  1  0  0  0  0  0  0  0  0  0
    2.2859   -5.0712    1.4508 C   0  0  1  0  0  0  0  0  0  0  0  0
    3.0538   -6.3667    1.1129 C   0  0  0  0  0  0  0  0  0  0  0  0
    3.1362   -7.1195    2.4482 C   0  0  2  0  0  0  0  0  0  0  0  0
    1.7316   -7.6776    2.8010 C   0  0  0  0  0  0  0  0  0  0  0  0
    1.0095   -6.3815    3.1359 C   0  0  0  0  0  0  0  0  0  0  0  0
   -0.1724   -6.2615    3.4476 O   0  0  0  0  0  0  0  0  0  0  0  0
    1.9964   -5.2387    2.9577 C   0  0  1  0  0  0  0  0  0  0  0  0
    2.6802   -6.8734    5.2502 H   0  0  0  0  0  0  0  0  0  0  0  0
    3.5606   -5.3692    5.4804 H   0  0  0  0  0  0  0  0  0  0  0  0
    4.4204   -6.8469    5.0042 H   0  0  0  0  0  0  0  0  0  0  0  0
    3.5687   -3.6044    3.8516 H   0  0  0  0  0  0  0  0  0  0  0  0
    6.2061   -3.5419    3.2594 H   0  0  0  0  0  0  0  0  0  0  0  0
    2.5299   -1.6799    2.5655 H   0  0  0  0  0  0  0  0  0  0  0  0
    5.1293   -0.8125    2.9993 H   0  0  0  0  0  0  0  0  0  0  0  0
    2.7434   -1.0538    0.3000 H   0  0  0  0  0  0  0  0  0  0  0  0
    2.8264    0.7845    1.3596 H   0  0  0  0  0  0  0  0  0  0  0  0
    5.6563   -0.6500    0.1720 H   0  0  0  0  0  0  0  0  0  0  0  0
    4.8114   -0.9288   -3.3116 H   0  0  0  0  0  0  0  0  0  0  0  0
    5.6073   -0.0450   -2.0381 H   0  0  0  0  0  0  0  0  0  0  0  0
    3.8537   -0.0522   -2.1486 H   0  0  0  0  0  0  0  0  0  0  0  0
    2.5849   -1.9894   -1.7930 H   0  0  0  0  0  0  0  0  0  0  0  0
    3.2075   -4.1902   -3.2172 H   0  0  0  0  0  0  0  0  0  0  0  0
    3.7332   -2.6507   -3.7683 H   0  0  0  0  0  0  0  0  0  0  0  0
    5.3735   -4.7914   -2.4772 H   0  0  0  0  0  0  0  0  0  0  0  0
    5.8713   -3.5602   -3.6339 H   0  0  0  0  0  0  0  0  0  0  0  0
    7.6353   -2.9711   -2.0954 H   0  0  0  0  0  0  0  0  0  0  0  0
    5.3294   -4.5571   -0.1635 H   0  0  0  0  0  0  0  0  0  0  0  0
    7.2024   -4.5686    0.9082 H   0  0  0  0  0  0  0  0  0  0  0  0
    6.3562   -1.4021    2.0385 H   0  0  0  0  0  0  0  0  0  0  0  0
    1.9142   -4.0078   -0.9456 H   0  0  0  0  0  0  0  0  0  0  0  0
    3.4481   -4.7082   -0.8953 H   0  0  0  0  0  0  0  0  0  0  0  0
    2.0339   -3.0569    1.1054 H   0  0  0  0  0  0  0  0  0  0  0  0
    1.3504   -5.1761    0.9223 H   0  0  0  0  0  0  0  0  0  0  0  0
    2.4203   -6.9613    0.4833 H   0  0  0  0  0  0  0  0  0  0  0  0
    4.0433   -6.1938    0.6769 H   0  0  0  0  0  0  0  0  0  0  0  0
    3.9255   -7.8735    2.4664 H   0  0  0  0  0  0  0  0  0  0  0  0
    1.2514   -8.2005    1.9772 H   0  0  0  0  0  0  0  0  0  0  0  0
    1.7476   -8.3371    3.6642 H   0  0  0  0  0  0  0  0  0  0  0  0
    1.6999   -4.3358    3.4872 H   0  0  0  0  0  0  0  0  0  0  0  0
  2  1  1  1
  1 32  1  0
  1 33  1  0
  1 34  1  0
  2 27  1  0
  2 31  1  0
  2  3  1  0
  3  4  1  0
  4  5  1  0
  4  6  1  0
  4 35  1  1
  5 36  1  0
  6 21  1  6
  6 24  1  0
  6  7  1  0
  7  8  1  0
  7  9  1  0
  7 37  1  1
  8 38  1  0
  9 10  1  0
  9 11  1  0
  9 39  1  6
 10 40  1  0
 11 21  1  0
 11 12  1  0
 11 41  1  6
 12 17  1  0
 12 13  1  6
 12 14  1  0
 13 42  1  0
 13 43  1  0
 13 44  1  0
 14 15  1  0
 14 23  1  0
 14 45  1  6
 15 16  1  0
 15 46  1  0
 15 47  1  0
 16 17  1  0
 16 48  1  0
 16 49  1  0
 17 18  1  6
 17 19  1  0
 18 50  1  0
 19 20  1  0
 19 21  1  0
 19 51  1  6
 20 52  1  0
 21 22  1  1
 22 53  1  0
 23 24  1  0
 23 54  1  0
 23 55  1  0
 24 25  1  0
 24 56  1  6
 25 31  1  0
 25 26  1  0
 25 57  1  6
 26 27  1  0
 26 58  1  0
 26 59  1  0
 27 28  1  0
 27 60  1  6
 28 29  1  0
 28 61  1  0
 28 62  1  0
 29 30  2  0
 29 31  1  0
 31 63  1  1
M  END
>  <i_m_ct_stereo_status>  (79) 
1

>  <s_m_source_file>  (79) 
/var/tmp/pbs.5076255.sched01/tmpu3exd1vk/0t_9me_9p.sdf

>  <i_m_source_file_index>  (79) 
38

>  <i_lp_mmshare_version>  (79) 
48012

>  <i_f3d_flags>  (79) 
0

>  <s_epik_input>  (79) 
Tz1DMVtDSDJdW0NAQEhdKFtDSDJdMilbQ0BAXShbQ0gzXSkoT1tDQEhdM1tPSF0pW0NASF0xW0NASF0yW0NAQEhdNFtDSDJdW0NAQEhdKFtDQEBdNShbQ0gzXSlbQ0BIXShbQ0BdNihbQ0BdMzQ3KVtPSF0pW0NASF0oW09IXSlbQ0BASF03W09IXSlbQ0gyXVtDSDJdW0NAXTUoW09IXSlbQ0BIXTZbT0hd

>  <s_epik_cmdline>  (79) 
J2VwaWtfcHl0aG9uJywgJy1waHQnLCAnMi4wJywgJy1waCcsICc3LjAnLCAnLXRuJywgJzgnLCAnLW1hJywgJzIwMCcsICctaW1hZScsICc8aW5maWxlLm1hZT4nLCAnLW9tYWUnLCAnPG91dGZpbGUubWFlPic=

>  <r_lp_tautomer_probability>  (79) 
1

>  <r_epik_Ionization_Penalty>  (79) 
7.04148e-07

>  <r_epik_Ionization_Penalty_Charging>  (79) 
0

>  <r_epik_Ionization_Penalty_Neutral>  (79) 
7.04148e-07

>  <r_epik_State_Penalty>  (79) 
-0

>  <r_epik_Charging_Adjusted_Penalty>  (79) 
0

>  <i_epik_Tot_Q>  (79) 
0

>  <i_epik_Tot_abs_Q>  (79) 
0

>  <s_epik_Chemistry_Notes>  (79) 
This compound contains an acetal/aminal-like group ( X-CH(R)-Y where X, Y are N, S, or O) that may be acid/base labile, releasing an aldehyde.

>  <s_lp_Force_Field>  (79) 
OPLS3e

>  <r_lp_Energy>  (79) 
107.671

>  <b_lp_Chiralities_Consistent>  (79) 
1

>  <s_lp_Variant>  (79) 
29:0-1

>  <s_i_glide_gridfile>  (79) 
pfpi4k_grid

>  <i_i_glide_lignum>  (79) 
38

>  <i_i_glide_rotatable_bonds>  (79) 
6

>  <r_i_docking_score>  (79) 
-3.5375

>  <r_i_glide_ligand_efficiency>  (79) 
-0.114113

>  <r_i_glide_ligand_efficiency_sa>  (79) 
-0.358473

>  <r_i_glide_ligand_efficiency_ln>  (79) 
-0.797816

>  <r_i_glide_gscore>  (79) 
-3.5375

>  <r_i_glide_lipo>  (79) 
-0.253801

>  <r_i_glide_hbond>  (79) 
-0.112002

>  <r_i_glide_metal>  (79) 
-0

>  <r_i_glide_rewards>  (79) 
-0.944264

>  <r_i_glide_evdw>  (79) 
-20.2521

>  <r_i_glide_ecoul>  (79) 
-7.87706

>  <r_i_glide_erotb>  (79) 
0

>  <r_i_glide_esite>  (79) 
-0.0332735

>  <r_i_glide_emodel>  (79) 
-37.8691

>  <r_i_glide_energy>  (79) 
-28.1292

>  <r_i_glide_einternal>  (79) 
0.832052

>  <r_i_glide_intrahb_reward>  (79) 
-0.5

>  <i_i_glide_confnum>  (79) 
2

>  <i_i_glide_posenum>  (79) 
16

>  <r_i_glide_eff_state_penalty>  (79) 
0

>  <ligand_id>  (79) 
29

>  <original_smiles>  (79) 
CC12OC(O)C34C(O)C(O)C5C6(C)C(CCC6(O)C(O)C53O)CC4C3CC1CC(=O)C32

>  <smiles>  (79) 
[H]OC1([H])OC2(C([H])([H])[H])C3([H])C(=O)C([H])([H])C2([H])C([H])([H])C3([H])C2([H])C([H])([H])C3([H])C([H])([H])C([H])([H])C4(O[H])C([H])(O[H])C5(O[H])C([H])(C([H])(O[H])C([H])(O[H])C125)C34C([H])([H])[H]

$$$$
30:0:0
     RDKit          3D

 61 66  0  0  1  0  0  0  0  0999 V2000
    3.6535   -0.6552    0.0208 C   0  0  0  0  0  0  0  0  0  0  0  0
    3.8792   -1.8189    0.9929 C   0  0  2  0  0  0  0  0  0  0  0  0
    5.4198   -1.7695    1.4344 C   0  0  0  0  0  0  0  0  0  0  0  0
    5.9697   -3.2066    1.7317 C   0  0  2  0  0  0  0  0  0  0  0  0
    5.9744   -4.1772    0.5608 C   0  0  0  0  0  0  0  0  0  0  0  0
    6.4319   -3.6056   -0.7952 C   0  0  0  0  0  0  0  0  0  0  0  0
    6.7967   -5.4655    0.7304 C   0  0  0  0  0  0  0  0  0  0  0  0
    4.4515   -4.2077    0.8777 C   0  0  2  0  0  0  0  0  0  0  0  0
    3.6101   -3.1331    0.2356 C   0  0  0  0  0  0  0  0  0  0  0  0
    4.8396   -4.0122    2.3842 C   0  0  1  0  0  0  0  0  0  0  0  0
    4.5965   -5.3240    3.0770 C   0  0  0  0  0  0  0  0  0  0  0  0
    3.3050   -5.4835    3.4944 C   0  0  0  0  0  0  0  0  0  0  0  0
    2.3634   -4.3119    3.3401 C   0  0  0  0  0  0  0  0  0  0  0  0
    1.1319   -4.4433    3.2847 O   0  0  0  0  0  0  0  0  0  0  0  0
    3.0015   -2.8881    3.3032 C   0  0  1  0  0  0  0  0  0  0  0  0
    4.3838   -3.0400    3.3177 O   0  0  0  0  0  0  0  0  0  0  0  0
    2.7875   -1.8253    2.1594 C   0  0  1  0  0  0  0  0  0  0  0  0
    2.6438   -0.4375    2.8053 C   0  0  0  0  0  0  0  0  0  0  0  0
    3.5808    0.0766    3.4221 O   0  0  0  0  0  0  0  0  0  0  0  0
    1.4506    0.1498    2.6886 N   0  0  0  0  0  0  0  0  0  0  0  0
    1.0193    1.3720    3.3730 C   0  0  2  0  0  0  0  0  0  0  0  0
    0.9981    1.1968    4.9108 C   0  0  1  0  0  0  0  0  0  0  0  0
    1.0647    2.4737    5.5273 O   0  0  0  0  0  0  0  0  0  0  0  0
   -0.3659    0.5362    5.1696 C   0  0  1  0  0  0  0  0  0  0  0  0
   -0.8264    0.7170    6.4967 O   0  0  0  0  0  0  0  0  0  0  0  0
   -1.3278    1.0685    4.0782 C   0  0  1  0  0  0  0  0  0  0  0  0
   -2.2497    2.2250    4.4720 C   0  0  0  0  0  0  0  0  0  0  0  0
   -1.4913    3.3779    4.2283 O   0  0  0  0  0  0  0  0  0  0  0  0
   -0.8076    3.1714    3.0178 C   0  0  0  0  0  0  0  0  0  0  0  0
   -0.4449    1.6836    2.9875 C   0  0  1  0  0  0  0  0  0  0  0  0
    3.8839    0.3109    0.4778 H   0  0  0  0  0  0  0  0  0  0  0  0
    2.6161   -0.6507   -0.3026 H   0  0  0  0  0  0  0  0  0  0  0  0
    4.2792   -0.7559   -0.8695 H   0  0  0  0  0  0  0  0  0  0  0  0
    6.0313   -1.2969    0.6688 H   0  0  0  0  0  0  0  0  0  0  0  0
    5.5545   -1.1189    2.2991 H   0  0  0  0  0  0  0  0  0  0  0  0
    6.9228   -3.2364    2.2097 H   0  0  0  0  0  0  0  0  0  0  0  0
    6.1592   -4.2510   -1.6181 H   0  0  0  0  0  0  0  0  0  0  0  0
    7.5142   -3.4395   -0.8274 H   0  0  0  0  0  0  0  0  0  0  0  0
    5.9726   -2.6488   -1.0332 H   0  0  0  0  0  0  0  0  0  0  0  0
    6.4175   -6.2449    0.0791 H   0  0  0  0  0  0  0  0  0  0  0  0
    6.7928   -5.8713    1.7363 H   0  0  0  0  0  0  0  0  0  0  0  0
    7.8509   -5.3152    0.4893 H   0  0  0  0  0  0  0  0  0  0  0  0
    4.0813   -5.2106    0.6605 H   0  0  0  0  0  0  0  0  0  0  0  0
    2.5576   -3.4161    0.2602 H   0  0  0  0  0  0  0  0  0  0  0  0
    3.8396   -3.0477   -0.8267 H   0  0  0  0  0  0  0  0  0  0  0  0
    5.3593   -6.0790    3.2123 H   0  0  0  0  0  0  0  0  0  0  0  0
    2.9500   -6.3787    3.9828 H   0  0  0  0  0  0  0  0  0  0  0  0
    2.7208   -2.4274    4.2538 H   0  0  0  0  0  0  0  0  0  0  0  0
    1.8097   -2.0324    1.7131 H   0  0  0  0  0  0  0  0  0  0  0  0
    0.7546   -0.3243    2.1274 H   0  0  0  0  0  0  0  0  0  0  0  0
    1.6953    2.1716    3.0634 H   0  0  0  0  0  0  0  0  0  0  0  0
    1.8174    0.5912    5.3068 H   0  0  0  0  0  0  0  0  0  0  0  0
    1.6320    3.0231    5.0129 H   0  0  0  0  0  0  0  0  0  0  0  0
   -0.2463   -0.5410    5.0130 H   0  0  0  0  0  0  0  0  0  0  0  0
   -0.7756    1.6515    6.6487 H   0  0  0  0  0  0  0  0  0  0  0  0
   -1.9007    0.2284    3.6881 H   0  0  0  0  0  0  0  0  0  0  0  0
   -3.1332    2.2352    3.8396 H   0  0  0  0  0  0  0  0  0  0  0  0
   -2.5740    2.2174    5.5060 H   0  0  0  0  0  0  0  0  0  0  0  0
   -1.4867    3.4122    2.2051 H   0  0  0  0  0  0  0  0  0  0  0  0
    0.0551    3.8290    2.9800 H   0  0  0  0  0  0  0  0  0  0  0  0
   -0.6812    1.3033    1.9902 H   0  0  0  0  0  0  0  0  0  0  0  0
  2  1  1  6
  1 31  1  0
  1 32  1  0
  1 33  1  0
  2  9  1  0
  2 17  1  0
  2  3  1  0
  3  4  1  0
  3 34  1  0
  3 35  1  0
  4 10  1  0
  4  5  1  0
  4 36  1  1
  5  6  1  0
  5  7  1  0
  5  8  1  0
  6 37  1  0
  6 38  1  0
  6 39  1  0
  7 40  1  0
  7 41  1  0
  7 42  1  0
  8  9  1  0
  8 10  1  0
  8 43  1  1
  9 44  1  0
  9 45  1  0
 10 16  1  0
 10 11  1  1
 11 12  2  0
 11 46  1  0
 12 13  1  0
 12 47  1  0
 13 14  2  0
 13 15  1  0
 15 16  1  0
 15 17  1  0
 15 48  1  1
 17 18  1  0
 17 49  1  6
 18 19  2  0
 18 20  1  0
 20 21  1  0
 20 50  1  0
 21 30  1  0
 21 22  1  0
 21 51  1  1
 22 23  1  0
 22 24  1  0
 22 52  1  1
 23 53  1  0
 24 25  1  0
 24 26  1  0
 24 54  1  6
 25 55  1  0
 26 30  1  0
 26 27  1  0
 26 56  1  6
 27 28  1  0
 27 57  1  0
 27 58  1  0
 28 29  1  0
 29 30  1  0
 29 59  1  0
 29 60  1  0
 30 61  1  6
M  END
>  <i_m_ct_stereo_status>  (80) 
1

>  <s_m_source_file>  (80) 
/var/tmp/pbs.5076255.sched01/tmpscvaj2_a/3886avry94.sdf

>  <i_m_source_file_index>  (80) 
1

>  <i_lp_mmshare_version>  (80) 
48012

>  <i_f3d_flags>  (80) 
0

>  <s_epik_input>  (80) 
W0NIM11DMShbQ0gzXSlbQ0BASF0yW0NIMl1bQ0BdKFtDSDNdKShbQ0gyXVtDQEhdMVtDQEBdMjM0KVtDQEBIXShbQ0BIXShPNClDKD1PKVtDSF09W0NIXTMpQyg9TylbTkhdW0NASF0oW0NAQEhdKFtPSF0pW0NASF01W09IXSlbQ0BASF0oW0NAQEhdNTYpW0NIMl1PW0NIMl02

>  <s_epik_cmdline>  (80) 
J2VwaWtfcHl0aG9uJywgJy1waHQnLCAnMi4wJywgJy1waCcsICc3LjAnLCAnLXRuJywgJzgnLCAnLW1hJywgJzIwMCcsICctaW1hZScsICc8aW5maWxlLm1hZT4nLCAnLW9tYWUnLCAnPG91dGZpbGUubWFlPic=

>  <r_lp_tautomer_probability>  (80) 
1

>  <r_epik_Ionization_Penalty>  (80) 
1.83592e-07

>  <r_epik_Ionization_Penalty_Charging>  (80) 
0

>  <r_epik_Ionization_Penalty_Neutral>  (80) 
1.83592e-07

>  <r_epik_State_Penalty>  (80) 
-0

>  <r_epik_Charging_Adjusted_Penalty>  (80) 
0

>  <i_epik_Tot_Q>  (80) 
0

>  <i_epik_Tot_abs_Q>  (80) 
0

>  <s_lp_Force_Field>  (80) 
OPLS3e

>  <r_lp_Energy>  (80) 
111.924

>  <b_lp_Chiralities_Consistent>  (80) 
1

>  <s_lp_Variant>  (80) 
30:0-1

>  <s_i_glide_gridfile>  (80) 
pfpi4k_grid

>  <i_i_glide_lignum>  (80) 
1

>  <i_i_glide_rotatable_bonds>  (80) 
5

>  <r_i_docking_score>  (80) 
-2.49281

>  <r_i_glide_ligand_efficiency>  (80) 
-0.0830936

>  <r_i_glide_ligand_efficiency_sa>  (80) 
-0.258191

>  <r_i_glide_ligand_efficiency_ln>  (80) 
-0.566393

>  <r_i_glide_gscore>  (80) 
-2.49281

>  <r_i_glide_lipo>  (80) 
-0.494181

>  <r_i_glide_hbond>  (80) 
0

>  <r_i_glide_metal>  (80) 
-0

>  <r_i_glide_rewards>  (80) 
-0.562532

>  <r_i_glide_evdw>  (80) 
-18.369

>  <r_i_glide_ecoul>  (80) 
-4.7258

>  <r_i_glide_erotb>  (80) 
0.226797

>  <r_i_glide_esite>  (80) 
-0.0355721

>  <r_i_glide_emodel>  (80) 
-25.1413

>  <r_i_glide_energy>  (80) 
-23.0948

>  <r_i_glide_einternal>  (80) 
1.93142

>  <r_i_glide_intrahb_reward>  (80) 
-0

>  <i_i_glide_confnum>  (80) 
1

>  <i_i_glide_posenum>  (80) 
5

>  <r_i_glide_eff_state_penalty>  (80) 
0

>  <ligand_id>  (80) 
30

>  <original_smiles>  (80) 
CC12CC3C(C)(C)C(C1)C31C=CC(=O)C(O1)C2C(=O)NC1C(O)C(O)C2COCC21

>  <smiles>  (80) 
[H]OC1([H])C([H])(O[H])C2([H])C([H])([H])OC([H])([H])C2([H])C1([H])N([H])C(=O)C1([H])C2([H])OC3(C([H])=C([H])C2=O)C2([H])C([H])([H])C1(C([H])([H])[H])C([H])([H])C3([H])C2(C([H])([H])[H])C([H])([H])[H]

$$$$
31:0:0
     RDKit          3D

 30 35  0  0  1  0  0  0  0  0999 V2000
    1.9985   -4.4396   -0.6996 O   0  0  0  0  0  0  0  0  0  0  0  0
    3.1993   -4.2213    0.0217 C   0  0  0  0  0  0  0  0  0  0  0  0
    4.1990   -3.3506   -0.7609 C   0  0  1  0  0  0  0  0  0  0  0  0
    4.6641   -3.9118   -2.1393 C   0  0  1  0  0  0  0  0  0  0  0  0
    3.7922   -3.5000   -3.3596 C   0  0  0  0  0  0  0  0  0  0  0  0
    4.5147   -2.1482   -3.2412 C   0  0  2  0  0  0  0  0  0  0  0  0
    5.7615   -3.1002   -2.8376 C   0  0  1  0  0  0  0  0  0  0  0  0
    6.9170   -2.7578   -1.8254 C   0  0  0  0  0  0  0  0  0  0  0  0
    6.3554   -2.0012   -0.6067 C   0  0  1  0  0  0  0  0  0  0  0  0
    5.3185   -1.1630   -1.2026 C   0  0  2  0  0  0  0  0  0  0  0  0
    4.4313   -0.9673   -0.3724 C   0  0  1  0  0  0  0  0  0  0  0  0
    3.9251   -1.1285   -2.0701 C   0  0  1  0  0  0  0  0  0  0  0  0
    3.7423   -2.0228   -1.1023 C   0  0  1  0  0  0  0  0  0  0  0  0
    5.0510   -2.4072    0.0789 C   0  0  1  0  0  0  0  0  0  0  0  0
    2.2430   -4.8213   -1.5442 H   0  0  0  0  0  0  0  0  0  0  0  0
    2.9620   -3.7825    0.9933 H   0  0  0  0  0  0  0  0  0  0  0  0
    3.6577   -5.1952    0.2098 H   0  0  0  0  0  0  0  0  0  0  0  0
    4.9350   -4.9688   -2.1267 H   0  0  0  0  0  0  0  0  0  0  0  0
    4.0139   -4.0567   -4.2714 H   0  0  0  0  0  0  0  0  0  0  0  0
    2.7253   -3.4474   -3.1547 H   0  0  0  0  0  0  0  0  0  0  0  0
    4.6349   -1.6547   -4.2088 H   0  0  0  0  0  0  0  0  0  0  0  0
    6.1382   -3.6309   -3.7190 H   0  0  0  0  0  0  0  0  0  0  0  0
    7.4388   -3.6597   -1.5027 H   0  0  0  0  0  0  0  0  0  0  0  0
    7.6944   -2.1753   -2.3189 H   0  0  0  0  0  0  0  0  0  0  0  0
    7.0522   -1.4696    0.0457 H   0  0  0  0  0  0  0  0  0  0  0  0
    5.6875   -0.1773   -1.5681 H   0  0  0  0  0  0  0  0  0  0  0  0
    4.6770   -0.0158    0.1169 H   0  0  0  0  0  0  0  0  0  0  0  0
    2.9916   -0.6212   -2.3437 H   0  0  0  0  0  0  0  0  0  0  0  0
    2.6426   -1.8399   -0.8714 H   0  0  0  0  0  0  0  0  0  0  0  0
    5.1089   -2.5529    1.1611 H   0  0  0  0  0  0  0  0  0  0  0  0
  1  2  1  0
  1 15  1  0
  3  2  1  1
  2 16  1  0
  2 17  1  0
  3 13  1  0
  3 14  1  0
  3  4  1  0
  4  7  1  0
  4  5  1  0
  4 18  1  1
  5  6  1  0
  5 19  1  0
  5 20  1  0
  6 12  1  0
  6  7  1  0
  6 21  1  6
  7  8  1  0
  7 22  1  6
  8  9  1  0
  8 23  1  0
  8 24  1  0
  9 14  1  0
  9 10  1  0
  9 25  1  1
 10 13  1  0
 10 11  1  0
 10 26  1  6
 11 12  1  0
 11 14  1  0
 11 27  1  1
 12 13  1  0
 12 28  1  6
 13 29  1  1
 14 30  1  1
M  END
>  <i_m_ct_stereo_status>  (81) 
1

>  <s_m_source_file>  (81) 
/var/tmp/pbs.5076255.sched01/tmpscvaj2_a/3886avry94.sdf

>  <i_m_source_file_index>  (81) 
2

>  <i_lp_mmshare_version>  (81) 
48012

>  <i_f3d_flags>  (81) 
0

>  <s_epik_input>  (81) 
W09IXVtDSDJdW0NAQF0xMltDQEBIXTNbQ0BIXTRbQ0BASF0oW0NIMl0zKVtDQEBIXTVbQ0BASF02W0NASF0oW0NASF0xNSlbQ0BIXShbQ0gyXTQpW0NASF0yNg==

>  <s_epik_cmdline>  (81) 
J2VwaWtfcHl0aG9uJywgJy1waHQnLCAnMi4wJywgJy1waCcsICc3LjAnLCAnLXRuJywgJzgnLCAnLW1hJywgJzIwMCcsICctaW1hZScsICc8aW5maWxlLm1hZT4nLCAnLW9tYWUnLCAnPG91dGZpbGUubWFlPic=

>  <r_lp_tautomer_probability>  (81) 
1

>  <r_epik_Ionization_Penalty>  (81) 
1.8973e-06

>  <r_epik_Ionization_Penalty_Charging>  (81) 
0

>  <r_epik_Ionization_Penalty_Neutral>  (81) 
1.8973e-06

>  <r_epik_State_Penalty>  (81) 
-0

>  <r_epik_Charging_Adjusted_Penalty>  (81) 
0

>  <i_epik_Tot_Q>  (81) 
0

>  <i_epik_Tot_abs_Q>  (81) 
0

>  <s_lp_Force_Field>  (81) 
OPLS3e

>  <r_lp_Energy>  (81) 
378.997

>  <b_lp_Chiralities_Consistent>  (81) 
1

>  <s_lp_Variant>  (81) 
31:0-1

>  <s_i_glide_gridfile>  (81) 
pfpi4k_grid

>  <i_i_glide_lignum>  (81) 
2

>  <i_i_glide_rotatable_bonds>  (81) 
2

>  <r_i_docking_score>  (81) 
-4.21689

>  <r_i_glide_ligand_efficiency>  (81) 
-0.301206

>  <r_i_glide_ligand_efficiency_sa>  (81) 
-0.72595

>  <r_i_glide_ligand_efficiency_ln>  (81) 
-1.15879

>  <r_i_glide_gscore>  (81) 
-4.21689

>  <r_i_glide_lipo>  (81) 
-0.399147

>  <r_i_glide_hbond>  (81) 
-0.32

>  <r_i_glide_metal>  (81) 
-0

>  <r_i_glide_rewards>  (81) 
-2.12546

>  <r_i_glide_evdw>  (81) 
-13.9488

>  <r_i_glide_ecoul>  (81) 
-4.4989

>  <r_i_glide_erotb>  (81) 
0

>  <r_i_glide_esite>  (81) 
0

>  <r_i_glide_emodel>  (81) 
-22.3398

>  <r_i_glide_energy>  (81) 
-18.4477

>  <r_i_glide_einternal>  (81) 
1.6676

>  <r_i_glide_intrahb_reward>  (81) 
-0

>  <i_i_glide_confnum>  (81) 
2

>  <i_i_glide_posenum>  (81) 
20

>  <r_i_glide_eff_state_penalty>  (81) 
0

>  <ligand_id>  (81) 
31

>  <original_smiles>  (81) 
OCC12C3CC4C3CC3C5C(C4C51)C32

>  <smiles>  (81) 
[H]OC([H])([H])C12C3([H])C([H])([H])C4([H])C3([H])C([H])([H])C3([H])C5([H])C([H])(C4([H])C51[H])C32[H]

$$$$
31:0:1
     RDKit          3D

 30 35  0  0  1  0  0  0  0  0999 V2000
    0.8216   -3.8487   -1.5220 O   0  0  0  0  0  0  0  0  0  0  0  0
    1.9661   -4.2011   -0.7951 C   0  0  0  0  0  0  0  0  0  0  0  0
    3.2324   -3.5456   -1.3773 C   0  0  1  0  0  0  0  0  0  0  0  0
    3.2125   -3.1610   -2.8967 C   0  0  1  0  0  0  0  0  0  0  0  0
    2.7071   -1.7445   -3.2092 C   0  0  0  0  0  0  0  0  0  0  0  0
    4.0888   -1.2719   -2.7312 C   0  0  2  0  0  0  0  0  0  0  0  0
    4.5238   -2.6392   -3.4648 C   0  0  1  0  0  0  0  0  0  0  0  0
    5.6640   -3.5988   -3.0247 C   0  0  0  0  0  0  0  0  0  0  0  0
    5.7596   -3.7120   -1.4943 C   0  0  1  0  0  0  0  0  0  0  0  0
    5.4181   -2.3531   -1.0513 C   0  0  2  0  0  0  0  0  0  0  0  0
    4.8630   -2.4361    0.0350 C   0  0  1  0  0  0  0  0  0  0  0  0
    4.2810   -1.1910   -1.0912 C   0  0  1  0  0  0  0  0  0  0  0  0
    3.6478   -2.2993   -0.7313 C   0  0  1  0  0  0  0  0  0  0  0  0
    4.5213   -3.8830   -0.6365 C   0  0  1  0  0  0  0  0  0  0  0  0
    0.9178   -4.0893   -2.4386 H   0  0  0  0  0  0  0  0  0  0  0  0
    1.8574   -3.9429    0.2545 H   0  0  0  0  0  0  0  0  0  0  0  0
    2.0054   -5.2833   -0.8203 H   0  0  0  0  0  0  0  0  0  0  0  0
    2.7504   -3.8924   -3.5549 H   0  0  0  0  0  0  0  0  0  0  0  0
    2.4835   -1.5539   -4.2577 H   0  0  0  0  0  0  0  0  0  0  0  0
    1.9162   -1.4831   -2.5226 H   0  0  0  0  0  0  0  0  0  0  0  0
    4.4296   -0.3771   -3.2664 H   0  0  0  0  0  0  0  0  0  0  0  0
    4.4482   -2.5372   -4.5462 H   0  0  0  0  0  0  0  0  0  0  0  0
    5.4661   -4.5714   -3.4751 H   0  0  0  0  0  0  0  0  0  0  0  0
    6.6018   -3.2312   -3.4304 H   0  0  0  0  0  0  0  0  0  0  0  0
    6.6600   -4.1140   -1.0270 H   0  0  0  0  0  0  0  0  0  0  0  0
    6.3125   -1.6808   -0.9220 H   0  0  0  0  0  0  0  0  0  0  0  0
    5.6489   -2.2869    0.7844 H   0  0  0  0  0  0  0  0  0  0  0  0
    3.8759   -0.2977   -0.6037 H   0  0  0  0  0  0  0  0  0  0  0  0
    2.8856   -1.8544   -0.0027 H   0  0  0  0  0  0  0  0  0  0  0  0
    4.5291   -4.7166    0.0700 H   0  0  0  0  0  0  0  0  0  0  0  0
  1  2  1  0
  1 15  1  0
  3  2  1  1
  2 16  1  0
  2 17  1  0
  3 13  1  0
  3 14  1  0
  3  4  1  0
  4  7  1  0
  4  5  1  0
  4 18  1  6
  5  6  1  0
  5 19  1  0
  5 20  1  0
  6 12  1  0
  6  7  1  0
  6 21  1  6
  7  8  1  0
  7 22  1  6
  8  9  1  0
  8 23  1  0
  8 24  1  0
  9 14  1  0
  9 10  1  0
  9 25  1  6
 10 13  1  0
 10 11  1  0
 10 26  1  1
 11 12  1  0
 11 14  1  0
 11 27  1  1
 12 13  1  0
 12 28  1  1
 13 29  1  1
 14 30  1  1
M  END
>  <i_m_ct_stereo_status>  (82) 
1

>  <s_m_source_file>  (82) 
/var/tmp/pbs.5076255.sched01/tmpscvaj2_a/3886avry94.sdf

>  <i_m_source_file_index>  (82) 
2

>  <i_lp_mmshare_version>  (82) 
48012

>  <i_f3d_flags>  (82) 
0

>  <s_epik_input>  (82) 
W09IXVtDSDJdW0NAQF0xMltDQEBIXTNbQ0BIXTRbQ0BASF0oW0NIMl0zKVtDQEBIXTVbQ0BASF02W0NASF0oW0NASF0xNSlbQ0BIXShbQ0gyXTQpW0NASF0yNg==

>  <s_epik_cmdline>  (82) 
J2VwaWtfcHl0aG9uJywgJy1waHQnLCAnMi4wJywgJy1waCcsICc3LjAnLCAnLXRuJywgJzgnLCAnLW1hJywgJzIwMCcsICctaW1hZScsICc8aW5maWxlLm1hZT4nLCAnLW9tYWUnLCAnPG91dGZpbGUubWFlPic=

>  <r_lp_tautomer_probability>  (82) 
1

>  <r_epik_Ionization_Penalty>  (82) 
1.8973e-06

>  <r_epik_Ionization_Penalty_Charging>  (82) 
0

>  <r_epik_Ionization_Penalty_Neutral>  (82) 
1.8973e-06

>  <r_epik_State_Penalty>  (82) 
-0

>  <r_epik_Charging_Adjusted_Penalty>  (82) 
0

>  <i_epik_Tot_Q>  (82) 
0

>  <i_epik_Tot_abs_Q>  (82) 
0

>  <s_lp_Force_Field>  (82) 
OPLS3e

>  <r_lp_Energy>  (82) 
378.997

>  <b_lp_Chiralities_Consistent>  (82) 
1

>  <s_lp_Variant>  (82) 
31:0-1

>  <s_i_glide_gridfile>  (82) 
pfpi4k_grid

>  <i_i_glide_lignum>  (82) 
2

>  <i_i_glide_rotatable_bonds>  (82) 
2

>  <r_i_docking_score>  (82) 
-3.81746

>  <r_i_glide_ligand_efficiency>  (82) 
-0.272676

>  <r_i_glide_ligand_efficiency_sa>  (82) 
-0.657187

>  <r_i_glide_ligand_efficiency_ln>  (82) 
-1.04902

>  <r_i_glide_gscore>  (82) 
-3.81746

>  <r_i_glide_lipo>  (82) 
-0.432895

>  <r_i_glide_hbond>  (82) 
-0.28491

>  <r_i_glide_metal>  (82) 
-0

>  <r_i_glide_rewards>  (82) 
-2.12546

>  <r_i_glide_evdw>  (82) 
-5.53302

>  <r_i_glide_ecoul>  (82) 
-4.65029

>  <r_i_glide_erotb>  (82) 
0

>  <r_i_glide_esite>  (82) 
0

>  <r_i_glide_emodel>  (82) 
-13.0111

>  <r_i_glide_energy>  (82) 
-10.1833

>  <r_i_glide_einternal>  (82) 
2.42792

>  <r_i_glide_intrahb_reward>  (82) 
-0

>  <i_i_glide_confnum>  (82) 
1

>  <i_i_glide_posenum>  (82) 
9

>  <r_i_glide_eff_state_penalty>  (82) 
0

>  <ligand_id>  (82) 
31

>  <original_smiles>  (82) 
OCC12C3CC4C3CC3C5C(C4C51)C32

>  <smiles>  (82) 
[H]OC([H])([H])C12C3([H])C([H])([H])C4([H])C3([H])C([H])([H])C3([H])C5([H])C([H])(C4([H])C51[H])C32[H]

$$$$
32:0:0
     RDKit          3D

 79 83  0  0  1  0  0  0  0  0999 V2000
   -0.4161   -3.3331    6.1589 C   0  0  0  0  0  0  0  0  0  0  0  0
    0.2586   -2.4746    7.2335 C   0  0  0  0  0  0  0  0  0  0  0  0
   -0.0060   -2.6438    8.4159 O   0  0  0  0  0  0  0  0  0  0  0  0
    1.1142   -1.5030    6.7927 O   0  0  0  0  0  0  0  0  0  0  0  0
    1.2939   -1.1835    5.4058 C   0  0  0  0  0  0  0  0  0  0  0  0
    1.7230    0.3108    5.1144 C   0  0  2  0  0  0  0  0  0  0  0  0
    3.1593    0.3679    5.7662 C   0  0  1  0  0  0  0  0  0  0  0  0
    4.3035    0.3760    4.9498 O   0  0  0  0  0  0  0  0  0  0  0  0
    3.1813    1.4640    6.8311 C   0  0  1  0  0  0  0  0  0  0  0  0
    3.8262    2.7924    6.3846 C   0  0  0  0  0  0  0  0  0  0  0  0
    1.7041    1.6229    7.2130 C   0  0  0  0  0  0  0  0  0  0  0  0
    0.8975    1.3922    5.9188 C   0  0  2  0  0  0  0  0  0  0  0  0
   -0.6927    1.2802    6.0309 C   0  0  1  0  0  0  0  0  0  0  0  0
   -1.0692    0.2340    6.8789 O   0  0  0  0  0  0  0  0  0  0  0  0
   -1.4070    2.5110    6.6662 C   0  0  1  0  0  0  0  0  0  0  0  0
   -1.0668    2.8539    8.1250 C   0  0  0  0  0  0  0  0  0  0  0  0
   -1.2793    3.7320    5.7455 C   0  0  0  0  0  0  0  0  0  0  0  0
   -1.9683    3.4816    4.3931 C   0  0  1  0  0  0  0  0  0  0  0  0
   -1.7573    4.5471    3.4804 O   0  0  0  0  0  0  0  0  0  0  0  0
   -1.5317    2.1612    3.7453 C   0  0  1  0  0  0  0  0  0  0  0  0
   -0.1914    2.1836    3.3654 O   0  0  0  0  0  0  0  0  0  0  0  0
    0.1123    0.8395    3.1274 C   0  0  2  0  0  0  0  0  0  0  0  0
   -0.1536    0.5622    1.7677 O   0  0  0  0  0  0  0  0  0  0  0  0
   -0.7291    0.0808    3.9161 O   0  0  0  0  0  0  0  0  0  0  0  0
   -1.4623    0.9775    4.7028 C   0  0  1  0  0  0  0  0  0  0  0  0
    1.6342    0.5883    3.5381 C   0  0  1  0  0  0  0  0  0  0  0  0
    2.4188    1.8458    3.0655 C   0  0  0  0  0  0  0  0  0  0  0  0
    2.1717   -0.6351    2.9659 O   0  0  0  0  0  0  0  0  0  0  0  0
    2.5372   -0.8295    1.5972 C   0  0  2  0  0  0  0  0  0  0  0  0
    2.3725   -2.1936    1.2519 O   0  0  0  0  0  0  0  0  0  0  0  0
    3.1380   -3.1347    2.0402 C   0  0  1  0  0  0  0  0  0  0  0  0
    2.7248   -4.5658    1.6365 C   0  0  0  0  0  0  0  0  0  0  0  0
    3.4429   -5.5517    2.3659 O   0  0  0  0  0  0  0  0  0  0  0  0
    4.6349   -2.8556    1.7759 C   0  0  1  0  0  0  0  0  0  0  0  0
    4.9667   -3.1837    0.4379 O   0  0  0  0  0  0  0  0  0  0  0  0
    4.9520   -1.3861    2.0738 C   0  0  1  0  0  0  0  0  0  0  0  0
    6.3194   -1.0655    1.8186 O   0  0  0  0  0  0  0  0  0  0  0  0
    4.0141   -0.4222    1.3239 C   0  0  1  0  0  0  0  0  0  0  0  0
    4.2324   -0.4680   -0.0795 O   0  0  0  0  0  0  0  0  0  0  0  0
   -1.0655   -2.7077    5.5436 H   0  0  0  0  0  0  0  0  0  0  0  0
   -1.0237   -4.1116    6.6205 H   0  0  0  0  0  0  0  0  0  0  0  0
    0.3159   -3.8285    5.5208 H   0  0  0  0  0  0  0  0  0  0  0  0
    2.0723   -1.8550    5.0226 H   0  0  0  0  0  0  0  0  0  0  0  0
    0.3911   -1.4487    4.8751 H   0  0  0  0  0  0  0  0  0  0  0  0
    3.3284   -0.5378    6.3472 H   0  0  0  0  0  0  0  0  0  0  0  0
    4.2102    1.0971    4.3451 H   0  0  0  0  0  0  0  0  0  0  0  0
    3.7449    1.1160    7.7012 H   0  0  0  0  0  0  0  0  0  0  0  0
    3.3107    3.2450    5.5348 H   0  0  0  0  0  0  0  0  0  0  0  0
    4.8709    2.6431    6.1048 H   0  0  0  0  0  0  0  0  0  0  0  0
    3.8178    3.5121    7.2087 H   0  0  0  0  0  0  0  0  0  0  0  0
    1.4431    0.8683    7.9578 H   0  0  0  0  0  0  0  0  0  0  0  0
    1.5485    2.6133    7.6452 H   0  0  0  0  0  0  0  0  0  0  0  0
    1.0678    2.3214    5.3923 H   0  0  0  0  0  0  0  0  0  0  0  0
   -0.3905    0.1822    7.5301 H   0  0  0  0  0  0  0  0  0  0  0  0
   -2.4709    2.2577    6.6830 H   0  0  0  0  0  0  0  0  0  0  0  0
   -0.2200    3.5347    8.2034 H   0  0  0  0  0  0  0  0  0  0  0  0
   -0.8659    1.9756    8.7317 H   0  0  0  0  0  0  0  0  0  0  0  0
   -1.9139    3.3645    8.5813 H   0  0  0  0  0  0  0  0  0  0  0  0
   -1.7814    4.5508    6.2430 H   0  0  0  0  0  0  0  0  0  0  0  0
   -0.2319    4.0162    5.5966 H   0  0  0  0  0  0  0  0  0  0  0  0
   -3.0419    3.3931    4.5696 H   0  0  0  0  0  0  0  0  0  0  0  0
   -0.9852    4.3395    2.9578 H   0  0  0  0  0  0  0  0  0  0  0  0
   -2.1549    1.9209    2.8859 H   0  0  0  0  0  0  0  0  0  0  0  0
    0.3034    1.1485    1.2067 H   0  0  0  0  0  0  0  0  0  0  0  0
   -2.4550    0.5630    4.8907 H   0  0  0  0  0  0  0  0  0  0  0  0
    2.0892    2.7441    3.5927 H   0  0  0  0  0  0  0  0  0  0  0  0
    2.2301    2.0338    2.0089 H   0  0  0  0  0  0  0  0  0  0  0  0
    3.4876    1.7788    3.2051 H   0  0  0  0  0  0  0  0  0  0  0  0
    1.8241   -0.2879    0.9572 H   0  0  0  0  0  0  0  0  0  0  0  0
    2.9085   -2.9997    3.1045 H   0  0  0  0  0  0  0  0  0  0  0  0
    1.6585   -4.7156    1.8013 H   0  0  0  0  0  0  0  0  0  0  0  0
    2.8846   -4.7268    0.5664 H   0  0  0  0  0  0  0  0  0  0  0  0
    4.3841   -5.4342    2.1657 H   0  0  0  0  0  0  0  0  0  0  0  0
    5.2413   -3.4627    2.4536 H   0  0  0  0  0  0  0  0  0  0  0  0
    4.5052   -2.5290   -0.1250 H   0  0  0  0  0  0  0  0  0  0  0  0
    4.7568   -1.2686    3.1305 H   0  0  0  0  0  0  0  0  0  0  0  0
    6.8807   -1.6179    2.3869 H   0  0  0  0  0  0  0  0  0  0  0  0
    4.2083    0.5937    1.6631 H   0  0  0  0  0  0  0  0  0  0  0  0
    4.9265    0.1884   -0.3084 H   0  0  0  0  0  0  0  0  0  0  0  0
  1  2  1  0
  1 40  1  0
  1 41  1  0
  1 42  1  0
  2  3  2  0
  2  4  1  0
  4  5  1  0
  6  5  1  6
  5 43  1  0
  5 44  1  0
  6 12  1  0
  6 26  1  0
  6  7  1  0
  7  8  1  0
  7  9  1  0
  7 45  1  1
  8 46  1  0
  9 10  1  0
  9 11  1  0
  9 47  1  1
 10 48  1  0
 10 49  1  0
 10 50  1  0
 11 12  1  0
 11 51  1  0
 11 52  1  0
 12 13  1  0
 12 53  1  6
 13 25  1  0
 13 14  1  1
 13 15  1  0
 14 54  1  0
 15 16  1  0
 15 17  1  0
 15 55  1  1
 16 56  1  0
 16 57  1  0
 16 58  1  0
 17 18  1  0
 17 59  1  0
 17 60  1  0
 18 19  1  0
 18 20  1  0
 18 61  1  1
 19 62  1  0
 20 25  1  0
 20 21  1  0
 20 63  1  6
 21 22  1  0
 22 23  1  6
 22 24  1  0
 22 26  1  0
 23 64  1  0
 24 25  1  0
 25 65  1  1
 26 27  1  0
 26 28  1  6
 27 66  1  0
 27 67  1  0
 27 68  1  0
 28 29  1  0
 29 38  1  0
 29 30  1  0
 29 69  1  6
 30 31  1  0
 31 32  1  0
 31 34  1  0
 31 70  1  1
 32 33  1  0
 32 71  1  0
 32 72  1  0
 33 73  1  0
 34 35  1  0
 34 36  1  0
 34 74  1  1
 35 75  1  0
 36 37  1  0
 36 38  1  0
 36 76  1  1
 37 77  1  0
 38 39  1  0
 38 78  1  1
 39 79  1  0
M  END
>  <i_m_ct_stereo_status>  (83) 
1

>  <s_m_source_file>  (83) 
/var/tmp/pbs.5076255.sched01/tmpscvaj2_a/3886avry94.sdf

>  <i_m_source_file_index>  (83) 
3

>  <i_lp_mmshare_version>  (83) 
48012

>  <i_f3d_flags>  (83) 
0

>  <s_epik_input>  (83) 
W0NIM11DKD1PKU9bQ0gyXVtDQEBdMTJbQ0BIXShbQ0gyXVtDQEhdKFtDSDNdKVtDQEBIXTFbT0hdKVtDQF0zKFtPSF0pW0NASF00W0NAQEhdKFtDQEhdKFtPSF0pW0NIMl1bQ0BASF0zW0NIM10pT1tDQEBdKE80KShbT0hdKVtDQF0yKFtDSDNdKU9bQ0BASF01T1tDQEBIXShbQ0gyXVtPSF0pW0NAQEhdKFtPSF0pW0NAQEhdKFtPSF0pW0NASF01W09IXQ==

>  <s_epik_cmdline>  (83) 
J2VwaWtfcHl0aG9uJywgJy1waHQnLCAnMi4wJywgJy1waCcsICc3LjAnLCAnLXRuJywgJzgnLCAnLW1hJywgJzIwMCcsICctaW1hZScsICc8aW5maWxlLm1hZT4nLCAnLW9tYWUnLCAnPG91dGZpbGUubWFlPic=

>  <r_epik_Ionization_Penalty>  (83) 
0.00324795

>  <r_epik_Ionization_Penalty_Charging>  (83) 
0

>  <r_epik_Ionization_Penalty_Neutral>  (83) 
0.00324795

>  <r_epik_State_Penalty>  (83) 
0.00228929

>  <r_epik_Charging_Adjusted_Penalty>  (83) 
0.00228929

>  <i_epik_Tot_Q>  (83) 
0

>  <i_epik_Tot_abs_Q>  (83) 
0

>  <s_epik_Chemistry_Notes>  (83) 
This compound has an ester and may undergo hydrolysis at high or low pH. This compound contains an acetal/aminal-like group ( X-CH(R)-Y where X, Y are N, S, or O) that may be acid/base labile, releasing an aldehyde.

>  <s_lp_Force_Field>  (83) 
OPLS3e

>  <r_lp_Energy>  (83) 
51.5392

>  <b_lp_Chiralities_Consistent>  (83) 
1

>  <s_lp_Variant>  (83) 
32:0-1

>  <s_i_glide_gridfile>  (83) 
pfpi4k_grid

>  <i_i_glide_lignum>  (83) 
3

>  <i_i_glide_rotatable_bonds>  (83) 
14

>  <r_i_docking_score>  (83) 
-3.26205

>  <r_i_glide_ligand_efficiency>  (83) 
-0.0836423

>  <r_i_glide_ligand_efficiency_sa>  (83) 
-0.283649

>  <r_i_glide_ligand_efficiency_ln>  (83) 
-0.699476

>  <r_i_glide_gscore>  (83) 
-3.26205

>  <r_i_glide_lipo>  (83) 
-0.199891

>  <r_i_glide_hbond>  (83) 
-0.132186

>  <r_i_glide_metal>  (83) 
-0

>  <r_i_glide_rewards>  (83) 
-0.5

>  <r_i_glide_evdw>  (83) 
-22.6815

>  <r_i_glide_ecoul>  (83) 
-9.39706

>  <r_i_glide_erotb>  (83) 
0.242154

>  <r_i_glide_esite>  (83) 
-0.128494

>  <r_i_glide_emodel>  (83) 
-37.3389

>  <r_i_glide_energy>  (83) 
-32.0785

>  <r_i_glide_einternal>  (83) 
13.9634

>  <r_i_glide_intrahb_reward>  (83) 
-0.5

>  <i_i_glide_confnum>  (83) 
1

>  <i_i_glide_posenum>  (83) 
12

>  <r_i_glide_eff_state_penalty>  (83) 
0

>  <ligand_id>  (83) 
32

>  <original_smiles>  (83) 
CC(=O)OCC12C(O)C(C)CC1C1(O)C(C)CC(O)C3OC(O)(OC31)C2(C)OC1OC(CO)C(O)C(O)C1O

>  <smiles>  (83) 
[H]OC([H])([H])C1([H])OC([H])(OC2(C([H])([H])[H])C3(O[H])OC4([H])C([H])(O[H])C([H])([H])C([H])(C([H])([H])[H])C(O[H])(C4([H])O3)C3([H])C([H])([H])C([H])(C([H])([H])[H])C([H])(O[H])C32C([H])([H])OC(=O)C([H])([H])[H])C([H])(O[H])C([H])(O[H])C1([H])O[H]

$$$$
32:0:1
     RDKit          3D

 79 83  0  0  1  0  0  0  0  0999 V2000
    0.2494   -3.9950    5.4872 C   0  0  0  0  0  0  0  0  0  0  0  0
   -0.1742   -3.0014    6.5739 C   0  0  0  0  0  0  0  0  0  0  0  0
   -0.6808   -3.4011    7.6152 O   0  0  0  0  0  0  0  0  0  0  0  0
    0.0430   -1.6899    6.3036 O   0  0  0  0  0  0  0  0  0  0  0  0
    0.4950   -1.2260    5.0298 C   0  0  0  0  0  0  0  0  0  0  0  0
    1.2862    0.1309    5.0464 C   0  0  2  0  0  0  0  0  0  0  0  0
    2.5104   -0.2050    5.9939 C   0  0  1  0  0  0  0  0  0  0  0  0
    3.7929   -0.4365    5.4546 O   0  0  0  0  0  0  0  0  0  0  0  0
    2.5115    0.7581    7.1869 C   0  0  1  0  0  0  0  0  0  0  0  0
    3.5162    1.9225    7.0877 C   0  0  0  0  0  0  0  0  0  0  0  0
    1.0562    1.2230    7.2538 C   0  0  0  0  0  0  0  0  0  0  0  0
    0.5530    1.2999    5.7969 C   0  0  2  0  0  0  0  0  0  0  0  0
   -1.0062    1.5224    5.5451 C   0  0  1  0  0  0  0  0  0  0  0  0
   -1.7745    0.4831    6.1272 O   0  0  0  0  0  0  0  0  0  0  0  0
   -1.5700    2.8416    6.1535 C   0  0  1  0  0  0  0  0  0  0  0  0
   -1.5360    2.9840    7.6869 C   0  0  0  0  0  0  0  0  0  0  0  0
   -0.9717    4.0814    5.4640 C   0  0  0  0  0  0  0  0  0  0  0  0
   -1.3358    4.1046    3.9757 C   0  0  1  0  0  0  0  0  0  0  0  0
   -0.6958    5.1846    3.3272 O   0  0  0  0  0  0  0  0  0  0  0  0
   -1.0447    2.7825    3.2761 C   0  0  1  0  0  0  0  0  0  0  0  0
    0.3272    2.5164    3.2150 O   0  0  0  0  0  0  0  0  0  0  0  0
    0.4013    1.1880    2.8236 C   0  0  2  0  0  0  0  0  0  0  0  0
    0.4841    1.1613    1.4226 O   0  0  0  0  0  0  0  0  0  0  0  0
   -0.7656    0.5669    3.2685 O   0  0  0  0  0  0  0  0  0  0  0  0
   -1.4544    1.5316    4.0412 C   0  0  1  0  0  0  0  0  0  0  0  0
    1.6633    0.5502    3.5409 C   0  0  1  0  0  0  0  0  0  0  0  0
    2.7980    1.6046    3.4436 C   0  0  0  0  0  0  0  0  0  0  0  0
    2.0563   -0.7079    2.9241 O   0  0  0  0  0  0  0  0  0  0  0  0
    2.5641   -0.8943    1.6011 C   0  0  2  0  0  0  0  0  0  0  0  0
    2.3771   -2.2522    1.2102 O   0  0  0  0  0  0  0  0  0  0  0  0
    3.0120   -3.2420    2.0528 C   0  0  1  0  0  0  0  0  0  0  0  0
    2.5658   -4.6306    1.5596 C   0  0  0  0  0  0  0  0  0  0  0  0
    3.1836   -5.6793    2.2941 O   0  0  0  0  0  0  0  0  0  0  0  0
    4.5361   -3.0344    1.9584 C   0  0  1  0  0  0  0  0  0  0  0  0
    5.0291   -3.3914    0.6700 O   0  0  0  0  0  0  0  0  0  0  0  0
    4.8817   -1.5815    2.2830 C   0  0  1  0  0  0  0  0  0  0  0  0
    6.2657   -1.3365    2.1303 O   0  0  0  0  0  0  0  0  0  0  0  0
    4.0762   -0.5616    1.4739 C   0  0  1  0  0  0  0  0  0  0  0  0
    4.3985   -0.6187    0.0870 O   0  0  0  0  0  0  0  0  0  0  0  0
   -0.2880   -3.7900    4.5588 H   0  0  0  0  0  0  0  0  0  0  0  0
    0.0495   -5.0293    5.7757 H   0  0  0  0  0  0  0  0  0  0  0  0
    1.3220   -3.9083    5.2935 H   0  0  0  0  0  0  0  0  0  0  0  0
    1.1864   -1.9426    4.6053 H   0  0  0  0  0  0  0  0  0  0  0  0
   -0.3911   -1.2296    4.4057 H   0  0  0  0  0  0  0  0  0  0  0  0
    2.3465   -1.1777    6.4559 H   0  0  0  0  0  0  0  0  0  0  0  0
    4.0491    0.3350    4.9782 H   0  0  0  0  0  0  0  0  0  0  0  0
    2.7639    0.2047    8.0931 H   0  0  0  0  0  0  0  0  0  0  0  0
    3.3407    2.5614    6.2245 H   0  0  0  0  0  0  0  0  0  0  0  0
    4.5451    1.5592    7.0349 H   0  0  0  0  0  0  0  0  0  0  0  0
    3.4534    2.5462    7.9793 H   0  0  0  0  0  0  0  0  0  0  0  0
    0.4690    0.4957    7.8079 H   0  0  0  0  0  0  0  0  0  0  0  0
    1.0146    2.1761    7.7667 H   0  0  0  0  0  0  0  0  0  0  0  0
    1.0346    2.2069    5.4458 H   0  0  0  0  0  0  0  0  0  0  0  0
   -1.5333   -0.3056    5.6698 H   0  0  0  0  0  0  0  0  0  0  0  0
   -2.6356    2.8369    5.9067 H   0  0  0  0  0  0  0  0  0  0  0  0
   -0.6126    3.4395    8.0359 H   0  0  0  0  0  0  0  0  0  0  0  0
   -1.6778    2.0302    8.1935 H   0  0  0  0  0  0  0  0  0  0  0  0
   -2.3413    3.6457    8.0040 H   0  0  0  0  0  0  0  0  0  0  0  0
   -1.3687    4.9722    5.9355 H   0  0  0  0  0  0  0  0  0  0  0  0
    0.1104    4.1215    5.5871 H   0  0  0  0  0  0  0  0  0  0  0  0
   -2.4092    4.2698    3.8767 H   0  0  0  0  0  0  0  0  0  0  0  0
   -0.4104    4.8988    2.4432 H   0  0  0  0  0  0  0  0  0  0  0  0
   -1.4755    2.7756    2.2744 H   0  0  0  0  0  0  0  0  0  0  0  0
   -0.3817    1.2876    1.0832 H   0  0  0  0  0  0  0  0  0  0  0  0
   -2.5276    1.3866    3.9694 H   0  0  0  0  0  0  0  0  0  0  0  0
    2.6213    2.4717    4.0786 H   0  0  0  0  0  0  0  0  0  0  0  0
    2.8659    1.9911    2.4261 H   0  0  0  0  0  0  0  0  0  0  0  0
    3.7680    1.2236    3.7259 H   0  0  0  0  0  0  0  0  0  0  0  0
    1.9528   -0.3246    0.8895 H   0  0  0  0  0  0  0  0  0  0  0  0
    2.6639   -3.1202    3.0834 H   0  0  0  0  0  0  0  0  0  0  0  0
    1.4860   -4.7519    1.6428 H   0  0  0  0  0  0  0  0  0  0  0  0
    2.8079   -4.7591    0.5032 H   0  0  0  0  0  0  0  0  0  0  0  0
    4.1434   -5.6054    2.1618 H   0  0  0  0  0  0  0  0  0  0  0  0
    5.0186   -3.6766    2.6938 H   0  0  0  0  0  0  0  0  0  0  0  0
    5.9649   -3.1502    0.6360 H   0  0  0  0  0  0  0  0  0  0  0  0
    4.6343   -1.4560    3.3324 H   0  0  0  0  0  0  0  0  0  0  0  0
    6.4730   -0.4300    2.4155 H   0  0  0  0  0  0  0  0  0  0  0  0
    4.3149    0.4419    1.8275 H   0  0  0  0  0  0  0  0  0  0  0  0
    4.1819   -1.5215   -0.2159 H   0  0  0  0  0  0  0  0  0  0  0  0
  1  2  1  0
  1 40  1  0
  1 41  1  0
  1 42  1  0
  2  3  2  0
  2  4  1  0
  4  5  1  0
  6  5  1  6
  5 43  1  0
  5 44  1  0
  6 12  1  0
  6 26  1  0
  6  7  1  0
  7  8  1  0
  7  9  1  0
  7 45  1  1
  8 46  1  0
  9 10  1  0
  9 11  1  0
  9 47  1  1
 10 48  1  0
 10 49  1  0
 10 50  1  0
 11 12  1  0
 11 51  1  0
 11 52  1  0
 12 13  1  0
 12 53  1  6
 13 25  1  0
 13 14  1  1
 13 15  1  0
 14 54  1  0
 15 16  1  0
 15 17  1  0
 15 55  1  6
 16 56  1  0
 16 57  1  0
 16 58  1  0
 17 18  1  0
 17 59  1  0
 17 60  1  0
 18 19  1  0
 18 20  1  0
 18 61  1  1
 19 62  1  0
 20 25  1  0
 20 21  1  0
 20 63  1  6
 21 22  1  0
 22 23  1  6
 22 24  1  0
 22 26  1  0
 23 64  1  0
 24 25  1  0
 25 65  1  1
 26 27  1  0
 26 28  1  6
 27 66  1  0
 27 67  1  0
 27 68  1  0
 28 29  1  0
 29 38  1  0
 29 30  1  0
 29 69  1  6
 30 31  1  0
 31 32  1  0
 31 34  1  0
 31 70  1  1
 32 33  1  0
 32 71  1  0
 32 72  1  0
 33 73  1  0
 34 35  1  0
 34 36  1  0
 34 74  1  1
 35 75  1  0
 36 37  1  0
 36 38  1  0
 36 76  1  1
 37 77  1  0
 38 39  1  0
 38 78  1  1
 39 79  1  0
M  END
>  <i_m_ct_stereo_status>  (84) 
1

>  <s_m_source_file>  (84) 
/var/tmp/pbs.5076255.sched01/tmpscvaj2_a/3886avry94.sdf

>  <i_m_source_file_index>  (84) 
3

>  <i_lp_mmshare_version>  (84) 
48012

>  <i_f3d_flags>  (84) 
0

>  <s_epik_input>  (84) 
W0NIM11DKD1PKU9bQ0gyXVtDQEBdMTJbQ0BIXShbQ0gyXVtDQEhdKFtDSDNdKVtDQEBIXTFbT0hdKVtDQF0zKFtPSF0pW0NASF00W0NAQEhdKFtDQEhdKFtPSF0pW0NIMl1bQ0BASF0zW0NIM10pT1tDQEBdKE80KShbT0hdKVtDQF0yKFtDSDNdKU9bQ0BASF01T1tDQEBIXShbQ0gyXVtPSF0pW0NAQEhdKFtPSF0pW0NAQEhdKFtPSF0pW0NASF01W09IXQ==

>  <s_epik_cmdline>  (84) 
J2VwaWtfcHl0aG9uJywgJy1waHQnLCAnMi4wJywgJy1waCcsICc3LjAnLCAnLXRuJywgJzgnLCAnLW1hJywgJzIwMCcsICctaW1hZScsICc8aW5maWxlLm1hZT4nLCAnLW9tYWUnLCAnPG91dGZpbGUubWFlPic=

>  <r_epik_Ionization_Penalty>  (84) 
0.00324795

>  <r_epik_Ionization_Penalty_Charging>  (84) 
0

>  <r_epik_Ionization_Penalty_Neutral>  (84) 
0.00324795

>  <r_epik_State_Penalty>  (84) 
0.00228929

>  <r_epik_Charging_Adjusted_Penalty>  (84) 
0.00228929

>  <i_epik_Tot_Q>  (84) 
0

>  <i_epik_Tot_abs_Q>  (84) 
0

>  <s_epik_Chemistry_Notes>  (84) 
This compound has an ester and may undergo hydrolysis at high or low pH. This compound contains an acetal/aminal-like group ( X-CH(R)-Y where X, Y are N, S, or O) that may be acid/base labile, releasing an aldehyde.

>  <s_lp_Force_Field>  (84) 
OPLS3e

>  <r_lp_Energy>  (84) 
51.5392

>  <b_lp_Chiralities_Consistent>  (84) 
1

>  <s_lp_Variant>  (84) 
32:0-1

>  <s_i_glide_gridfile>  (84) 
pfpi4k_grid

>  <i_i_glide_lignum>  (84) 
3

>  <i_i_glide_rotatable_bonds>  (84) 
14

>  <r_i_docking_score>  (84) 
-3.19316

>  <r_i_glide_ligand_efficiency>  (84) 
-0.0818759

>  <r_i_glide_ligand_efficiency_sa>  (84) 
-0.277658

>  <r_i_glide_ligand_efficiency_ln>  (84) 
-0.684704

>  <r_i_glide_gscore>  (84) 
-3.19316

>  <r_i_glide_lipo>  (84) 
-0.215163

>  <r_i_glide_hbond>  (84) 
-0.0215551

>  <r_i_glide_metal>  (84) 
-0

>  <r_i_glide_rewards>  (84) 
-0.5

>  <r_i_glide_evdw>  (84) 
-24.6749

>  <r_i_glide_ecoul>  (84) 
-8.90841

>  <r_i_glide_erotb>  (84) 
0.242154

>  <r_i_glide_esite>  (84) 
-0.128588

>  <r_i_glide_emodel>  (84) 
-38.5321

>  <r_i_glide_energy>  (84) 
-33.5834

>  <r_i_glide_einternal>  (84) 
14.2792

>  <r_i_glide_intrahb_reward>  (84) 
-0.5

>  <i_i_glide_confnum>  (84) 
1

>  <i_i_glide_posenum>  (84) 
13

>  <r_i_glide_eff_state_penalty>  (84) 
0

>  <ligand_id>  (84) 
32

>  <original_smiles>  (84) 
CC(=O)OCC12C(O)C(C)CC1C1(O)C(C)CC(O)C3OC(O)(OC31)C2(C)OC1OC(CO)C(O)C(O)C1O

>  <smiles>  (84) 
[H]OC([H])([H])C1([H])OC([H])(OC2(C([H])([H])[H])C3(O[H])OC4([H])C([H])(O[H])C([H])([H])C([H])(C([H])([H])[H])C(O[H])(C4([H])O3)C3([H])C([H])([H])C([H])(C([H])([H])[H])C([H])(O[H])C32C([H])([H])OC(=O)C([H])([H])[H])C([H])(O[H])C([H])(O[H])C1([H])O[H]

$$$$
32:0:2
     RDKit          3D

 79 83  0  0  1  0  0  0  0  0999 V2000
    0.3393   -4.3923    5.1465 C   0  0  0  0  0  0  0  0  0  0  0  0
   -0.2560   -3.4470    6.1845 C   0  0  0  0  0  0  0  0  0  0  0  0
   -0.9521   -3.8898    7.1092 O   0  0  0  0  0  0  0  0  0  0  0  0
   -0.0169   -2.1293    6.0294 O   0  0  0  0  0  0  0  0  0  0  0  0
    0.6720   -1.6052    4.8931 C   0  0  0  0  0  0  0  0  0  0  0  0
    1.3944   -0.2294    5.1551 C   0  0  2  0  0  0  0  0  0  0  0  0
    2.4002   -0.5884    6.3152 C   0  0  1  0  0  0  0  0  0  0  0  0
    3.7712   -0.7309    6.0287 O   0  0  0  0  0  0  0  0  0  0  0  0
    2.1317    0.3155    7.5187 C   0  0  1  0  0  0  0  0  0  0  0  0
    3.0954    1.5086    7.6645 C   0  0  0  0  0  0  0  0  0  0  0  0
    0.6777    0.7462    7.3160 C   0  0  0  0  0  0  0  0  0  0  0  0
    0.4908    0.8932    5.7916 C   0  0  2  0  0  0  0  0  0  0  0  0
   -0.9901    1.0891    5.2474 C   0  0  1  0  0  0  0  0  0  0  0  0
   -1.8093   -0.0018    5.6344 O   0  0  0  0  0  0  0  0  0  0  0  0
   -1.7317    2.3532    5.7904 C   0  0  1  0  0  0  0  0  0  0  0  0
   -2.0098    2.4029    7.3061 C   0  0  0  0  0  0  0  0  0  0  0  0
   -1.0570    3.6514    5.3016 C   0  0  0  0  0  0  0  0  0  0  0  0
   -1.1065    3.7344    3.7726 C   0  0  1  0  0  0  0  0  0  0  0  0
   -0.4056    4.8688    3.3321 O   0  0  0  0  0  0  0  0  0  0  0  0
   -0.6023    2.4617    3.0676 C   0  0  1  0  0  0  0  0  0  0  0  0
    0.7833    2.2287    3.1911 O   0  0  0  0  0  0  0  0  0  0  0  0
    0.9624    0.8938    2.8576 C   0  0  2  0  0  0  0  0  0  0  0  0
    1.3826    0.8077    1.4972 O   0  0  0  0  0  0  0  0  0  0  0  0
   -0.2486    0.2504    3.0193 O   0  0  0  0  0  0  0  0  0  0  0  0
   -1.1098    1.1621    3.6826 C   0  0  1  0  0  0  0  0  0  0  0  0
    2.0689    0.2688    3.7943 C   0  0  1  0  0  0  0  0  0  0  0  0
    3.1690    1.3658    3.9522 C   0  0  0  0  0  0  0  0  0  0  0  0
    2.5973   -0.9556    3.2241 O   0  0  0  0  0  0  0  0  0  0  0  0
    3.7313   -1.0190    2.3758 C   0  0  2  0  0  0  0  0  0  0  0  0
    3.4613   -1.6672    1.1552 O   0  0  0  0  0  0  0  0  0  0  0  0
    2.9488   -3.0196    1.2852 C   0  0  1  0  0  0  0  0  0  0  0  0
    2.6007   -3.5121   -0.1324 C   0  0  0  0  0  0  0  0  0  0  0  0
    2.1714   -4.8776   -0.1182 O   0  0  0  0  0  0  0  0  0  0  0  0
    4.0009   -3.9119    1.9829 C   0  0  1  0  0  0  0  0  0  0  0  0
    5.1198   -4.1871    1.1427 O   0  0  0  0  0  0  0  0  0  0  0  0
    4.4425   -3.2550    3.2930 C   0  0  1  0  0  0  0  0  0  0  0  0
    5.4153   -4.0581    3.9748 O   0  0  0  0  0  0  0  0  0  0  0  0
    4.8725   -1.7725    3.0905 C   0  0  1  0  0  0  0  0  0  0  0  0
    6.0496   -1.6202    2.2992 O   0  0  0  0  0  0  0  0  0  0  0  0
   -0.0350   -4.1544    4.1447 H   0  0  0  0  0  0  0  0  0  0  0  0
    0.0728   -5.4286    5.3432 H   0  0  0  0  0  0  0  0  0  0  0  0
    1.4351   -4.3149    5.1241 H   0  0  0  0  0  0  0  0  0  0  0  0
    1.4421   -2.3063    4.6045 H   0  0  0  0  0  0  0  0  0  0  0  0
   -0.0678   -1.5929    4.1001 H   0  0  0  0  0  0  0  0  0  0  0  0
    2.1795   -1.5852    6.6867 H   0  0  0  0  0  0  0  0  0  0  0  0
    4.0636    0.0689    5.6431 H   0  0  0  0  0  0  0  0  0  0  0  0
    2.2146   -0.2740    8.4310 H   0  0  0  0  0  0  0  0  0  0  0  0
    3.0662    2.1857    6.8101 H   0  0  0  0  0  0  0  0  0  0  0  0
    4.1267    1.1742    7.7900 H   0  0  0  0  0  0  0  0  0  0  0  0
    2.8425    2.0918    8.5556 H   0  0  0  0  0  0  0  0  0  0  0  0
    0.0128   -0.0293    7.6945 H   0  0  0  0  0  0  0  0  0  0  0  0
    0.4967    1.6675    7.8599 H   0  0  0  0  0  0  0  0  0  0  0  0
    0.9874    1.8378    5.5742 H   0  0  0  0  0  0  0  0  0  0  0  0
   -1.4625   -0.7702    5.2322 H   0  0  0  0  0  0  0  0  0  0  0  0
   -2.7248    2.3418    5.3337 H   0  0  0  0  0  0  0  0  0  0  0  0
   -1.1907    2.8620    7.8584 H   0  0  0  0  0  0  0  0  0  0  0  0
   -2.2099    1.4192    7.7261 H   0  0  0  0  0  0  0  0  0  0  0  0
   -2.8852    3.0232    7.4946 H   0  0  0  0  0  0  0  0  0  0  0  0
   -1.5657    4.5136    5.7248 H   0  0  0  0  0  0  0  0  0  0  0  0
   -0.0236    3.7072    5.6453 H   0  0  0  0  0  0  0  0  0  0  0  0
   -2.1478    3.8638    3.4702 H   0  0  0  0  0  0  0  0  0  0  0  0
   -0.1858    4.7379    2.3723 H   0  0  0  0  0  0  0  0  0  0  0  0
   -0.8715    2.4870    2.0101 H   0  0  0  0  0  0  0  0  0  0  0  0
    0.6378    0.9236    0.9481 H   0  0  0  0  0  0  0  0  0  0  0  0
   -2.1423    1.0086    3.3787 H   0  0  0  0  0  0  0  0  0  0  0  0
    2.8561    2.1814    4.5986 H   0  0  0  0  0  0  0  0  0  0  0  0
    3.3594    1.8383    2.9822 H   0  0  0  0  0  0  0  0  0  0  0  0
    4.1198    0.9893    4.3211 H   0  0  0  0  0  0  0  0  0  0  0  0
    4.0137   -0.0002    2.0731 H   0  0  0  0  0  0  0  0  0  0  0  0
    2.0349   -2.9835    1.8897 H   0  0  0  0  0  0  0  0  0  0  0  0
    1.8246   -2.8867   -0.5769 H   0  0  0  0  0  0  0  0  0  0  0  0
    3.4731   -3.4163   -0.7802 H   0  0  0  0  0  0  0  0  0  0  0  0
    2.4030   -5.2674   -0.9866 H   0  0  0  0  0  0  0  0  0  0  0  0
    3.5175   -4.8664    2.2232 H   0  0  0  0  0  0  0  0  0  0  0  0
    5.7973   -4.6308    1.6717 H   0  0  0  0  0  0  0  0  0  0  0  0
    3.5487   -3.2264    3.9168 H   0  0  0  0  0  0  0  0  0  0  0  0
    5.6386   -3.6696    4.8349 H   0  0  0  0  0  0  0  0  0  0  0  0
    5.0897   -1.3351    4.0615 H   0  0  0  0  0  0  0  0  0  0  0  0
    6.3843   -0.7229    2.4298 H   0  0  0  0  0  0  0  0  0  0  0  0
  1  2  1  0
  1 40  1  0
  1 41  1  0
  1 42  1  0
  2  3  2  0
  2  4  1  0
  4  5  1  0
  6  5  1  6
  5 43  1  0
  5 44  1  0
  6 12  1  0
  6 26  1  0
  6  7  1  0
  7  8  1  0
  7  9  1  0
  7 45  1  1
  8 46  1  0
  9 10  1  0
  9 11  1  0
  9 47  1  1
 10 48  1  0
 10 49  1  0
 10 50  1  0
 11 12  1  0
 11 51  1  0
 11 52  1  0
 12 13  1  0
 12 53  1  6
 13 25  1  0
 13 14  1  1
 13 15  1  0
 14 54  1  0
 15 16  1  0
 15 17  1  0
 15 55  1  6
 16 56  1  0
 16 57  1  0
 16 58  1  0
 17 18  1  0
 17 59  1  0
 17 60  1  0
 18 19  1  0
 18 20  1  0
 18 61  1  1
 19 62  1  0
 20 25  1  0
 20 21  1  0
 20 63  1  6
 21 22  1  0
 22 23  1  6
 22 24  1  0
 22 26  1  0
 23 64  1  0
 24 25  1  0
 25 65  1  1
 26 27  1  0
 26 28  1  6
 27 66  1  0
 27 67  1  0
 27 68  1  0
 28 29  1  0
 29 38  1  0
 29 30  1  0
 29 69  1  6
 30 31  1  0
 31 32  1  0
 31 34  1  0
 31 70  1  1
 32 33  1  0
 32 71  1  0
 32 72  1  0
 33 73  1  0
 34 35  1  0
 34 36  1  0
 34 74  1  1
 35 75  1  0
 36 37  1  0
 36 38  1  0
 36 76  1  1
 37 77  1  0
 38 39  1  0
 38 78  1  1
 39 79  1  0
M  END
>  <i_m_ct_stereo_status>  (85) 
1

>  <s_m_source_file>  (85) 
/var/tmp/pbs.5076255.sched01/tmpscvaj2_a/3886avry94.sdf

>  <i_m_source_file_index>  (85) 
3

>  <i_lp_mmshare_version>  (85) 
48012

>  <i_f3d_flags>  (85) 
0

>  <s_epik_input>  (85) 
W0NIM11DKD1PKU9bQ0gyXVtDQEBdMTJbQ0BIXShbQ0gyXVtDQEhdKFtDSDNdKVtDQEBIXTFbT0hdKVtDQF0zKFtPSF0pW0NASF00W0NAQEhdKFtDQEhdKFtPSF0pW0NIMl1bQ0BASF0zW0NIM10pT1tDQEBdKE80KShbT0hdKVtDQF0yKFtDSDNdKU9bQ0BASF01T1tDQEBIXShbQ0gyXVtPSF0pW0NAQEhdKFtPSF0pW0NAQEhdKFtPSF0pW0NASF01W09IXQ==

>  <s_epik_cmdline>  (85) 
J2VwaWtfcHl0aG9uJywgJy1waHQnLCAnMi4wJywgJy1waCcsICc3LjAnLCAnLXRuJywgJzgnLCAnLW1hJywgJzIwMCcsICctaW1hZScsICc8aW5maWxlLm1hZT4nLCAnLW9tYWUnLCAnPG91dGZpbGUubWFlPic=

>  <r_epik_Ionization_Penalty>  (85) 
0.00324795

>  <r_epik_Ionization_Penalty_Charging>  (85) 
0

>  <r_epik_Ionization_Penalty_Neutral>  (85) 
0.00324795

>  <r_epik_State_Penalty>  (85) 
0.00228929

>  <r_epik_Charging_Adjusted_Penalty>  (85) 
0.00228929

>  <i_epik_Tot_Q>  (85) 
0

>  <i_epik_Tot_abs_Q>  (85) 
0

>  <s_epik_Chemistry_Notes>  (85) 
This compound has an ester and may undergo hydrolysis at high or low pH. This compound contains an acetal/aminal-like group ( X-CH(R)-Y where X, Y are N, S, or O) that may be acid/base labile, releasing an aldehyde.

>  <s_lp_Force_Field>  (85) 
OPLS3e

>  <r_lp_Energy>  (85) 
51.5392

>  <b_lp_Chiralities_Consistent>  (85) 
1

>  <s_lp_Variant>  (85) 
32:0-1

>  <s_i_glide_gridfile>  (85) 
pfpi4k_grid

>  <i_i_glide_lignum>  (85) 
3

>  <i_i_glide_rotatable_bonds>  (85) 
14

>  <r_i_docking_score>  (85) 
-3.1685

>  <r_i_glide_ligand_efficiency>  (85) 
-0.0812435

>  <r_i_glide_ligand_efficiency_sa>  (85) 
-0.275514

>  <r_i_glide_ligand_efficiency_ln>  (85) 
-0.679416

>  <r_i_glide_gscore>  (85) 
-3.1685

>  <r_i_glide_lipo>  (85) 
-0.107319

>  <r_i_glide_hbond>  (85) 
0

>  <r_i_glide_metal>  (85) 
-0

>  <r_i_glide_rewards>  (85) 
-0.0097322

>  <r_i_glide_evdw>  (85) 
-22.8689

>  <r_i_glide_ecoul>  (85) 
-14.03

>  <r_i_glide_erotb>  (85) 
0.242154

>  <r_i_glide_esite>  (85) 
-0.0456599

>  <r_i_glide_emodel>  (85) 
-38.057

>  <r_i_glide_energy>  (85) 
-36.8989

>  <r_i_glide_einternal>  (85) 
12.5758

>  <r_i_glide_intrahb_reward>  (85) 
-0

>  <i_i_glide_confnum>  (85) 
1

>  <i_i_glide_posenum>  (85) 
29

>  <r_i_glide_eff_state_penalty>  (85) 
0

>  <ligand_id>  (85) 
32

>  <original_smiles>  (85) 
CC(=O)OCC12C(O)C(C)CC1C1(O)C(C)CC(O)C3OC(O)(OC31)C2(C)OC1OC(CO)C(O)C(O)C1O

>  <smiles>  (85) 
[H]OC([H])([H])C1([H])OC([H])(OC2(C([H])([H])[H])C3(O[H])OC4([H])C([H])(O[H])C([H])([H])C([H])(C([H])([H])[H])C(O[H])(C4([H])O3)C3([H])C([H])([H])C([H])(C([H])([H])[H])C([H])(O[H])C32C([H])([H])OC(=O)C([H])([H])[H])C([H])(O[H])C([H])(O[H])C1([H])O[H]

$$$$
33:0:0
     RDKit          3D

 91 98  0  0  1  0  0  0  0  0999 V2000
    4.7509    3.5216    6.0510 C   0  0  0  0  0  0  0  0  0  0  0  0
    3.4249    3.1933    6.7684 C   0  0  2  0  0  0  0  0  0  0  0  0
    2.2530    2.5664    5.8666 C   0  0  2  0  0  0  0  0  0  0  0  0
    1.8188    1.2137    6.5201 C   0  0  0  0  0  0  0  0  0  0  0  0
    0.8429    0.4353    5.6317 C   0  0  0  0  0  0  0  0  0  0  0  0
    1.3495    0.2176    4.1864 C   0  0  1  0  0  0  0  0  0  0  0  0
    1.7277    1.5928    3.5607 C   0  0  2  0  0  0  0  0  0  0  0  0
    2.1797    1.4242    2.1028 C   0  0  0  0  0  0  0  0  0  0  0  0
    3.2605    0.3656    1.9207 C   0  0  0  0  0  0  0  0  0  0  0  0
    2.7896   -1.0082    2.4726 C   0  0  1  0  0  0  0  0  0  0  0  0
    3.8479   -1.9742    2.3112 O   0  0  0  0  0  0  0  0  0  0  0  0
    3.9122   -2.7113    1.1366 C   0  0  2  0  0  0  0  0  0  0  0  0
    4.4802   -1.8248   -0.0142 C   0  0  0  0  0  0  0  0  0  0  0  0
    4.5538   -2.6187   -1.3089 C   0  0  0  0  0  0  0  0  0  0  0  0
    3.1680   -3.2065   -1.5910 C   0  0  0  0  0  0  0  0  0  0  0  0
    2.6912   -4.0396   -0.3850 C   0  0  0  0  0  0  0  0  0  0  0  0
    2.6847   -3.2300    0.7801 O   0  0  0  0  0  0  0  0  0  0  0  0
    2.4492   -0.9097    4.0032 C   0  0  0  0  0  0  0  0  0  0  0  0
    3.7447   -0.7594    4.8270 C   0  0  0  0  0  0  0  0  0  0  0  0
    1.8383   -2.2604    4.4703 C   0  0  0  0  0  0  0  0  0  0  0  0
    2.7491    2.3849    4.4080 C   0  0  0  0  0  0  0  0  0  0  0  0
    1.0841    3.2949    5.5023 O   0  0  0  0  0  0  0  0  0  0  0  0
    0.2343    4.2424    6.1831 C   0  0  2  0  0  0  0  0  0  0  0  0
    0.7820    5.7170    6.0150 C   0  0  1  0  0  0  0  0  0  0  0  0
    0.2149    6.2696    4.8524 O   0  0  0  0  0  0  0  0  0  0  0  0
    0.3137    6.6015    7.2176 C   0  0  0  0  0  0  0  0  0  0  0  0
   -0.1037    5.7528    8.4001 C   0  0  1  0  0  0  0  0  0  0  0  0
   -1.2685    5.0696    7.8789 O   0  0  0  0  0  0  0  0  0  0  0  0
   -0.4138    3.9396    7.5883 C   0  0  1  0  0  0  0  0  0  0  0  0
   -1.3259    2.6378    7.5811 C   0  0  0  0  0  0  0  0  0  0  0  0
   -2.3356    2.5834    6.4141 C   0  0  0  0  0  0  0  0  0  0  0  0
   -2.1189    2.3500    8.8753 C   0  0  0  0  0  0  0  0  0  0  0  0
    0.4513    4.3485    8.8091 C   0  0  2  0  0  0  0  0  0  0  0  0
    0.0357    4.0111   10.2400 C   0  0  0  0  0  0  0  0  0  0  0  0
    1.8797    3.8252    8.6676 C   0  0  2  0  0  0  0  0  0  0  0  0
    3.1764    4.3258    9.2084 C   0  0  0  0  0  0  0  0  0  0  0  0
    2.9338    4.2863    7.6940 C   0  0  1  0  0  0  0  0  0  0  0  0
    2.9914    5.6469    7.0358 C   0  0  0  0  0  0  0  0  0  0  0  0
    2.1594    5.7304    5.8961 O   0  0  0  0  0  0  0  0  0  0  0  0
    4.6134    4.2116    5.2199 H   0  0  0  0  0  0  0  0  0  0  0  0
    5.2347    2.6324    5.6669 H   0  0  0  0  0  0  0  0  0  0  0  0
    5.4861    3.9657    6.7341 H   0  0  0  0  0  0  0  0  0  0  0  0
    3.7548    2.4086    7.4446 H   0  0  0  0  0  0  0  0  0  0  0  0
    2.6989    0.6347    6.7524 H   0  0  0  0  0  0  0  0  0  0  0  0
    1.3194    1.3447    7.4672 H   0  0  0  0  0  0  0  0  0  0  0  0
    0.5628   -0.4933    6.1093 H   0  0  0  0  0  0  0  0  0  0  0  0
   -0.0897    0.9781    5.5441 H   0  0  0  0  0  0  0  0  0  0  0  0
    0.4713   -0.1034    3.6170 H   0  0  0  0  0  0  0  0  0  0  0  0
    0.8168    2.1933    3.4879 H   0  0  0  0  0  0  0  0  0  0  0  0
    1.3178    1.1491    1.4975 H   0  0  0  0  0  0  0  0  0  0  0  0
    2.5200    2.3833    1.7162 H   0  0  0  0  0  0  0  0  0  0  0  0
    3.4409    0.3856    0.8605 H   0  0  0  0  0  0  0  0  0  0  0  0
    4.1816    0.6650    2.4152 H   0  0  0  0  0  0  0  0  0  0  0  0
    1.8979   -1.3163    1.9286 H   0  0  0  0  0  0  0  0  0  0  0  0
    4.5935   -3.5482    1.3543 H   0  0  0  0  0  0  0  0  0  0  0  0
    3.8104   -1.0094   -0.2211 H   0  0  0  0  0  0  0  0  0  0  0  0
    5.4563   -1.4373    0.2743 H   0  0  0  0  0  0  0  0  0  0  0  0
    4.8073   -1.9269   -2.1136 H   0  0  0  0  0  0  0  0  0  0  0  0
    5.3212   -3.3989   -1.2900 H   0  0  0  0  0  0  0  0  0  0  0  0
    2.4359   -2.4078   -1.7803 H   0  0  0  0  0  0  0  0  0  0  0  0
    3.1820   -3.8249   -2.4880 H   0  0  0  0  0  0  0  0  0  0  0  0
    1.6874   -4.4180   -0.5602 H   0  0  0  0  0  0  0  0  0  0  0  0
    3.3472   -4.9012   -0.2301 H   0  0  0  0  0  0  0  0  0  0  0  0
    4.4231   -1.5791    4.6159 H   0  0  0  0  0  0  0  0  0  0  0  0
    3.5251   -0.8000    5.8843 H   0  0  0  0  0  0  0  0  0  0  0  0
    4.2822    0.1377    4.6019 H   0  0  0  0  0  0  0  0  0  0  0  0
    2.5717   -3.0669    4.3737 H   0  0  0  0  0  0  0  0  0  0  0  0
    0.9283   -2.5592    3.9367 H   0  0  0  0  0  0  0  0  0  0  0  0
    1.5893   -2.2334    5.5405 H   0  0  0  0  0  0  0  0  0  0  0  0
    2.8677    3.3717    3.9399 H   0  0  0  0  0  0  0  0  0  0  0  0
    3.7102    1.9111    4.3283 H   0  0  0  0  0  0  0  0  0  0  0  0
   -0.6053    4.2356    5.5043 H   0  0  0  0  0  0  0  0  0  0  0  0
    0.6121    5.8056    4.1126 H   0  0  0  0  0  0  0  0  0  0  0  0
    1.0524    7.3688    7.4487 H   0  0  0  0  0  0  0  0  0  0  0  0
   -0.5512    7.1728    6.8770 H   0  0  0  0  0  0  0  0  0  0  0  0
   -0.3858    6.3635    9.2761 H   0  0  0  0  0  0  0  0  0  0  0  0
   -0.6888    1.7771    7.4739 H   0  0  0  0  0  0  0  0  0  0  0  0
   -2.9992    3.4470    6.4142 H   0  0  0  0  0  0  0  0  0  0  0  0
   -2.9659    1.6969    6.4889 H   0  0  0  0  0  0  0  0  0  0  0  0
   -1.8635    2.5113    5.4344 H   0  0  0  0  0  0  0  0  0  0  0  0
   -2.6637    3.2282    9.2231 H   0  0  0  0  0  0  0  0  0  0  0  0
   -1.4857    1.9616    9.6698 H   0  0  0  0  0  0  0  0  0  0  0  0
   -2.8564    1.5678    8.7038 H   0  0  0  0  0  0  0  0  0  0  0  0
    0.1952    2.9574   10.4777 H   0  0  0  0  0  0  0  0  0  0  0  0
   -1.0216    4.2529   10.4239 H   0  0  0  0  0  0  0  0  0  0  0  0
    0.6126    4.5892   10.9668 H   0  0  0  0  0  0  0  0  0  0  0  0
    1.8336    2.7500    8.8505 H   0  0  0  0  0  0  0  0  0  0  0  0
    3.1654    5.2891    9.7277 H   0  0  0  0  0  0  0  0  0  0  0  0
    3.8620    3.5818    9.6067 H   0  0  0  0  0  0  0  0  0  0  0  0
    2.8120    6.4217    7.7815 H   0  0  0  0  0  0  0  0  0  0  0  0
    4.0103    5.8439    6.7205 H   0  0  0  0  0  0  0  0  0  0  0  0
  1  2  1  0
  1 40  1  0
  1 41  1  0
  1 42  1  0
  2 37  1  0
  2  3  1  0
  2 43  1  1
  3 21  1  6
  3  4  1  0
  3 22  1  0
  4  5  1  0
  4 44  1  0
  4 45  1  0
  5  6  1  0
  5 46  1  0
  5 47  1  0
  6 18  1  0
  6  7  1  0
  6 48  1  6
  7  8  1  0
  7 21  1  0
  7 49  1  6
  8  9  1  0
  8 50  1  0
  8 51  1  0
  9 10  1  0
  9 52  1  0
  9 53  1  0
 10 11  1  0
 10 18  1  0
 10 54  1  6
 11 12  1  0
 12 17  1  0
 12 13  1  0
 12 55  1  1
 13 14  1  0
 13 56  1  0
 13 57  1  0
 14 15  1  0
 14 58  1  0
 14 59  1  0
 15 16  1  0
 15 60  1  0
 15 61  1  0
 16 17  1  0
 16 62  1  0
 16 63  1  0
 18 19  1  0
 18 20  1  0
 19 64  1  0
 19 65  1  0
 19 66  1  0
 20 67  1  0
 20 68  1  0
 20 69  1  0
 21 70  1  0
 21 71  1  0
 22 23  1  0
 23 29  1  0
 23 24  1  0
 23 72  1  6
 24 39  1  0
 24 25  1  6
 24 26  1  0
 25 73  1  0
 26 27  1  0
 26 74  1  0
 26 75  1  0
 27 33  1  0
 27 28  1  0
 27 76  1  1
 28 29  1  0
 29 30  1  1
 29 33  1  0
 30 31  1  0
 30 32  1  0
 30 77  1  0
 31 78  1  0
 31 79  1  0
 31 80  1  0
 32 81  1  0
 32 82  1  0
 32 83  1  0
 33 34  1  1
 33 35  1  0
 34 84  1  0
 34 85  1  0
 34 86  1  0
 35 37  1  0
 35 36  1  0
 35 87  1  6
 37 36  1  1
 36 88  1  0
 36 89  1  0
 37 38  1  0
 38 39  1  0
 38 90  1  0
 38 91  1  0
M  END
>  <i_m_ct_stereo_status>  (86) 
1

>  <s_m_source_file>  (86) 
/var/tmp/pbs.5076255.sched01/tmpscvaj2_a/3886avry94.sdf

>  <i_m_source_file_index>  (86) 
4

>  <i_lp_mmshare_version>  (86) 
48012

>  <i_f3d_flags>  (86) 
0

>  <s_epik_input>  (86) 
W0NIM11bQ0hdKFtDSDNdKVtDQF0xKE8yKVtDQEhdKE8zKVtDQF0oW09IXSkoT1tDSDJdNClbQ0gyXVtDQEBIXTJbQ0BdMShbQ0gzXSlbQ0BIXShbQ0gyXTUpW0NAQF00NVtDQEhdKFtDSDNdKVtDQEBdMzZbQ0gyXVtDSDJdW0NASF03W0NAQEhdKFtDSDJdNilbQ0gyXVtDSDJdW0NASF0oQzcoW0NIM10pW0NIM10pT1tDQEBIXThbQ0gyXVtDSDJdW0NIMl1bQ0gyXU84

>  <s_epik_cmdline>  (86) 
J2VwaWtfcHl0aG9uJywgJy1waHQnLCAnMi4wJywgJy1waCcsICc3LjAnLCAnLXRuJywgJzgnLCAnLW1hJywgJzIwMCcsICctaW1hZScsICc8aW5maWxlLm1hZT4nLCAnLW9tYWUnLCAnPG91dGZpbGUubWFlPic=

>  <r_lp_tautomer_probability>  (86) 
1

>  <r_epik_Ionization_Penalty>  (86) 
1.71792e-07

>  <r_epik_Ionization_Penalty_Charging>  (86) 
0

>  <r_epik_Ionization_Penalty_Neutral>  (86) 
1.71792e-07

>  <r_epik_State_Penalty>  (86) 
-0

>  <r_epik_Charging_Adjusted_Penalty>  (86) 
0

>  <i_epik_Tot_Q>  (86) 
0

>  <i_epik_Tot_abs_Q>  (86) 
0

>  <s_epik_Chemistry_Notes>  (86) 
This compound contains an acetal/aminal-like group ( X-CH(R)-Y where X, Y are N, S, or O) that may be acid/base labile, releasing an aldehyde.

>  <s_lp_Force_Field>  (86) 
OPLS3e

>  <r_lp_Energy>  (86) 
128.457

>  <b_lp_Chiralities_Consistent>  (86) 
1

>  <s_lp_Variant>  (86) 
33:0-1

>  <s_i_glide_gridfile>  (86) 
pfpi4k_grid

>  <i_i_glide_lignum>  (86) 
4

>  <i_i_glide_rotatable_bonds>  (86) 
4

>  <r_i_docking_score>  (86) 
-1.41997

>  <r_i_glide_ligand_efficiency>  (86) 
-0.0364094

>  <r_i_glide_ligand_efficiency_sa>  (86) 
-0.123472

>  <r_i_glide_ligand_efficiency_ln>  (86) 
-0.304481

>  <r_i_glide_gscore>  (86) 
-1.41997

>  <r_i_glide_lipo>  (86) 
-0.299945

>  <r_i_glide_hbond>  (86) 
0

>  <r_i_glide_metal>  (86) 
-0

>  <r_i_glide_rewards>  (86) 
0

>  <r_i_glide_evdw>  (86) 
-20.7935

>  <r_i_glide_ecoul>  (86) 
-1.38545

>  <r_i_glide_erotb>  (86) 
0.139505

>  <r_i_glide_esite>  (86) 
-0.0120349

>  <r_i_glide_emodel>  (86) 
-19.5265

>  <r_i_glide_energy>  (86) 
-22.1789

>  <r_i_glide_einternal>  (86) 
2.5502

>  <r_i_glide_intrahb_reward>  (86) 
-0

>  <i_i_glide_confnum>  (86) 
5

>  <i_i_glide_posenum>  (86) 
14

>  <r_i_glide_eff_state_penalty>  (86) 
0

>  <ligand_id>  (86) 
33

>  <original_smiles>  (86) 
CC1C2(CCC3C(CCC(OC4CCCCO4)C3(C)C)C2)OC2C3(O)CC4OC2(C(C)C)C4(C)C2CC12CO3

>  <smiles>  (86) 
[H]OC12OC([H])([H])C34C([H])([H])C3([H])C3(C([H])([H])[H])C([H])(OC3(C([H])(C([H])([H])[H])C([H])([H])[H])C1([H])OC1(C([H])([H])C([H])([H])C3([H])C([H])(C([H])([H])C([H])([H])C([H])(OC5([H])OC([H])([H])C([H])([H])C([H])([H])C5([H])[H])C3(C([H])([H])[H])C([H])([H])[H])C1([H])[H])C4([H])C([H])([H])[H])C2([H])[H]

$$$$
33:0:1
     RDKit          3D

 91 98  0  0  1  0  0  0  0  0999 V2000
    4.6032    2.6789    5.9793 C   0  0  0  0  0  0  0  0  0  0  0  0
    3.2788    2.0553    6.4688 C   0  0  2  0  0  0  0  0  0  0  0  0
    2.4311    1.3180    5.3665 C   0  0  2  0  0  0  0  0  0  0  0  0
    2.2687   -0.1327    5.8312 C   0  0  0  0  0  0  0  0  0  0  0  0
    1.5401   -1.0326    4.7915 C   0  0  0  0  0  0  0  0  0  0  0  0
    2.1919   -1.0190    3.4039 C   0  0  1  0  0  0  0  0  0  0  0  0
    2.4187    0.4491    2.9467 C   0  0  2  0  0  0  0  0  0  0  0  0
    3.0927    0.4814    1.5740 C   0  0  0  0  0  0  0  0  0  0  0  0
    4.3749   -0.3598    1.5123 C   0  0  0  0  0  0  0  0  0  0  0  0
    4.0994   -1.8274    1.9185 C   0  0  1  0  0  0  0  0  0  0  0  0
    5.3255   -2.5610    1.9130 O   0  0  0  0  0  0  0  0  0  0  0  0
    5.6190   -3.2987    0.7662 C   0  0  2  0  0  0  0  0  0  0  0  0
    5.7926   -2.3571   -0.4513 C   0  0  0  0  0  0  0  0  0  0  0  0
    6.0850   -3.1571   -1.7119 C   0  0  0  0  0  0  0  0  0  0  0  0
    5.0115   -4.2359   -1.8853 C   0  0  0  0  0  0  0  0  0  0  0  0
    4.9010   -5.0812   -0.6087 C   0  0  0  0  0  0  0  0  0  0  0  0
    4.6176   -4.2413    0.5022 O   0  0  0  0  0  0  0  0  0  0  0  0
    3.4836   -1.9038    3.3471 C   0  0  0  0  0  0  0  0  0  0  0  0
    4.5587   -1.5224    4.3850 C   0  0  0  0  0  0  0  0  0  0  0  0
    3.0951   -3.3569    3.6924 C   0  0  0  0  0  0  0  0  0  0  0  0
    3.1392    1.3334    3.9980 C   0  0  0  0  0  0  0  0  0  0  0  0
    1.1536    1.8324    4.8727 O   0  0  0  0  0  0  0  0  0  0  0  0
    0.0689    2.5768    5.4548 C   0  0  2  0  0  0  0  0  0  0  0  0
    0.3262    4.1226    5.4597 C   0  0  1  0  0  0  0  0  0  0  0  0
   -0.1594    4.6455    4.2514 O   0  0  0  0  0  0  0  0  0  0  0  0
   -0.4558    4.8088    6.5967 C   0  0  0  0  0  0  0  0  0  0  0  0
   -0.8948    3.8040    7.6602 C   0  0  1  0  0  0  0  0  0  0  0  0
   -1.8060    2.9696    6.8844 O   0  0  0  0  0  0  0  0  0  0  0  0
   -0.7210    2.0181    6.6998 C   0  0  1  0  0  0  0  0  0  0  0  0
   -1.3731    0.5806    6.5092 C   0  0  0  0  0  0  0  0  0  0  0  0
   -0.6272   -0.5945    7.1499 C   0  0  0  0  0  0  0  0  0  0  0  0
   -1.7508    0.1935    5.0290 C   0  0  0  0  0  0  0  0  0  0  0  0
   -0.1455    2.4989    8.0646 C   0  0  2  0  0  0  0  0  0  0  0  0
   -0.7216    1.9579    9.3821 C   0  0  0  0  0  0  0  0  0  0  0  0
    1.3631    2.2430    8.1302 C   0  0  2  0  0  0  0  0  0  0  0  0
    2.4491    2.9185    8.8895 C   0  0  0  0  0  0  0  0  0  0  0  0
    2.4438    2.9677    7.3584 C   0  0  1  0  0  0  0  0  0  0  0  0
    2.3359    4.3694    6.7998 C   0  0  0  0  0  0  0  0  0  0  0  0
    1.6856    4.4163    5.5462 O   0  0  0  0  0  0  0  0  0  0  0  0
    4.4359    3.4022    5.1795 H   0  0  0  0  0  0  0  0  0  0  0  0
    5.3096    1.9309    5.6049 H   0  0  0  0  0  0  0  0  0  0  0  0
    5.1115    3.1811    6.7950 H   0  0  0  0  0  0  0  0  0  0  0  0
    3.6602    1.2808    7.1329 H   0  0  0  0  0  0  0  0  0  0  0  0
    3.1568   -0.5477    6.2035 H   0  0  0  0  0  0  0  0  0  0  0  0
    1.8984   -0.1438    6.8275 H   0  0  0  0  0  0  0  0  0  0  0  0
    1.3396   -2.0369    5.1617 H   0  0  0  0  0  0  0  0  0  0  0  0
    0.5430   -0.6846    4.6285 H   0  0  0  0  0  0  0  0  0  0  0  0
    1.4483   -1.4407    2.6988 H   0  0  0  0  0  0  0  0  0  0  0  0
    1.4369    0.9140    2.7814 H   0  0  0  0  0  0  0  0  0  0  0  0
    2.3752    0.1127    0.8360 H   0  0  0  0  0  0  0  0  0  0  0  0
    3.3143    1.5034    1.2925 H   0  0  0  0  0  0  0  0  0  0  0  0
    4.7678   -0.2747    0.5112 H   0  0  0  0  0  0  0  0  0  0  0  0
    5.1657    0.0656    2.1362 H   0  0  0  0  0  0  0  0  0  0  0  0
    3.3785   -2.2708    1.2218 H   0  0  0  0  0  0  0  0  0  0  0  0
    6.5542   -3.8279    0.9751 H   0  0  0  0  0  0  0  0  0  0  0  0
    4.8642   -1.8352   -0.6411 H   0  0  0  0  0  0  0  0  0  0  0  0
    6.5887   -1.6430   -0.2360 H   0  0  0  0  0  0  0  0  0  0  0  0
    6.0686   -2.4818   -2.5691 H   0  0  0  0  0  0  0  0  0  0  0  0
    7.0890   -3.5898   -1.6638 H   0  0  0  0  0  0  0  0  0  0  0  0
    4.0457   -3.7770   -2.1068 H   0  0  0  0  0  0  0  0  0  0  0  0
    5.2503   -4.8605   -2.7401 H   0  0  0  0  0  0  0  0  0  0  0  0
    4.1044   -5.8128   -0.7121 H   0  0  0  0  0  0  0  0  0  0  0  0
    5.8170   -5.6411   -0.4193 H   0  0  0  0  0  0  0  0  0  0  0  0
    5.4251   -2.1537    4.3146 H   0  0  0  0  0  0  0  0  0  0  0  0
    4.2225   -1.7444    5.3711 H   0  0  0  0  0  0  0  0  0  0  0  0
    4.9638   -0.5446    4.2801 H   0  0  0  0  0  0  0  0  0  0  0  0
    3.9886   -3.9729    3.6912 H   0  0  0  0  0  0  0  0  0  0  0  0
    2.3618   -3.7736    2.9984 H   0  0  0  0  0  0  0  0  0  0  0  0
    2.6980   -3.4478    4.7027 H   0  0  0  0  0  0  0  0  0  0  0  0
    3.2118    2.3582    3.6349 H   0  0  0  0  0  0  0  0  0  0  0  0
    4.1590    1.0786    4.0820 H   0  0  0  0  0  0  0  0  0  0  0  0
   -0.6177    2.4510    4.6273 H   0  0  0  0  0  0  0  0  0  0  0  0
    0.2710    4.1773    3.5413 H   0  0  0  0  0  0  0  0  0  0  0  0
    0.0564    5.6799    6.9936 H   0  0  0  0  0  0  0  0  0  0  0  0
   -1.3590    5.2437    6.1765 H   0  0  0  0  0  0  0  0  0  0  0  0
   -1.4229    4.2876    8.4845 H   0  0  0  0  0  0  0  0  0  0  0  0
   -2.3430    0.5926    7.0310 H   0  0  0  0  0  0  0  0  0  0  0  0
    0.2284   -0.6844    6.6478 H   0  0  0  0  0  0  0  0  0  0  0  0
   -1.0334   -1.5782    6.9120 H   0  0  0  0  0  0  0  0  0  0  0  0
   -0.3767   -0.5005    8.1956 H   0  0  0  0  0  0  0  0  0  0  0  0
   -0.9681    0.4173    4.3012 H   0  0  0  0  0  0  0  0  0  0  0  0
   -2.6395    0.7050    4.6587 H   0  0  0  0  0  0  0  0  0  0  0  0
   -1.9322   -0.8881    4.9526 H   0  0  0  0  0  0  0  0  0  0  0  0
   -0.4055    0.9475    9.6056 H   0  0  0  0  0  0  0  0  0  0  0  0
   -1.8113    1.9875    9.3990 H   0  0  0  0  0  0  0  0  0  0  0  0
   -0.3724    2.5642   10.2143 H   0  0  0  0  0  0  0  0  0  0  0  0
    1.4839    1.1764    8.2312 H   0  0  0  0  0  0  0  0  0  0  0  0
    2.1754    3.8106    9.4465 H   0  0  0  0  0  0  0  0  0  0  0  0
    3.1973    2.2864    9.3668 H   0  0  0  0  0  0  0  0  0  0  0  0
    1.9077    5.0296    7.5516 H   0  0  0  0  0  0  0  0  0  0  0  0
    3.3298    4.7930    6.6608 H   0  0  0  0  0  0  0  0  0  0  0  0
  1  2  1  0
  1 40  1  0
  1 41  1  0
  1 42  1  0
  2 37  1  0
  2  3  1  0
  2 43  1  1
  3 21  1  6
  3  4  1  0
  3 22  1  0
  4  5  1  0
  4 44  1  0
  4 45  1  0
  5  6  1  0
  5 46  1  0
  5 47  1  0
  6 18  1  0
  6  7  1  0
  6 48  1  6
  7  8  1  0
  7 21  1  0
  7 49  1  6
  8  9  1  0
  8 50  1  0
  8 51  1  0
  9 10  1  0
  9 52  1  0
  9 53  1  0
 10 11  1  0
 10 18  1  0
 10 54  1  6
 11 12  1  0
 12 17  1  0
 12 13  1  0
 12 55  1  1
 13 14  1  0
 13 56  1  0
 13 57  1  0
 14 15  1  0
 14 58  1  0
 14 59  1  0
 15 16  1  0
 15 60  1  0
 15 61  1  0
 16 17  1  0
 16 62  1  0
 16 63  1  0
 18 19  1  0
 18 20  1  0
 19 64  1  0
 19 65  1  0
 19 66  1  0
 20 67  1  0
 20 68  1  0
 20 69  1  0
 21 70  1  0
 21 71  1  0
 22 23  1  0
 23 29  1  0
 23 24  1  0
 23 72  1  6
 24 39  1  0
 24 25  1  6
 24 26  1  0
 25 73  1  0
 26 27  1  0
 26 74  1  0
 26 75  1  0
 27 33  1  0
 27 28  1  0
 27 76  1  1
 28 29  1  0
 29 30  1  1
 29 33  1  0
 30 31  1  0
 30 32  1  0
 30 77  1  0
 31 78  1  0
 31 79  1  0
 31 80  1  0
 32 81  1  0
 32 82  1  0
 32 83  1  0
 33 34  1  1
 33 35  1  0
 34 84  1  0
 34 85  1  0
 34 86  1  0
 35 37  1  0
 35 36  1  0
 35 87  1  6
 37 36  1  1
 36 88  1  0
 36 89  1  0
 37 38  1  0
 38 39  1  0
 38 90  1  0
 38 91  1  0
M  END
>  <i_m_ct_stereo_status>  (87) 
1

>  <s_m_source_file>  (87) 
/var/tmp/pbs.5076255.sched01/tmpscvaj2_a/3886avry94.sdf

>  <i_m_source_file_index>  (87) 
4

>  <i_lp_mmshare_version>  (87) 
48012

>  <i_f3d_flags>  (87) 
0

>  <s_epik_input>  (87) 
W0NIM11bQ0hdKFtDSDNdKVtDQF0xKE8yKVtDQEhdKE8zKVtDQF0oW09IXSkoT1tDSDJdNClbQ0gyXVtDQEBIXTJbQ0BdMShbQ0gzXSlbQ0BIXShbQ0gyXTUpW0NAQF00NVtDQEhdKFtDSDNdKVtDQEBdMzZbQ0gyXVtDSDJdW0NASF03W0NAQEhdKFtDSDJdNilbQ0gyXVtDSDJdW0NASF0oQzcoW0NIM10pW0NIM10pT1tDQEBIXThbQ0gyXVtDSDJdW0NIMl1bQ0gyXU84

>  <s_epik_cmdline>  (87) 
J2VwaWtfcHl0aG9uJywgJy1waHQnLCAnMi4wJywgJy1waCcsICc3LjAnLCAnLXRuJywgJzgnLCAnLW1hJywgJzIwMCcsICctaW1hZScsICc8aW5maWxlLm1hZT4nLCAnLW9tYWUnLCAnPG91dGZpbGUubWFlPic=

>  <r_lp_tautomer_probability>  (87) 
1

>  <r_epik_Ionization_Penalty>  (87) 
1.71792e-07

>  <r_epik_Ionization_Penalty_Charging>  (87) 
0

>  <r_epik_Ionization_Penalty_Neutral>  (87) 
1.71792e-07

>  <r_epik_State_Penalty>  (87) 
-0

>  <r_epik_Charging_Adjusted_Penalty>  (87) 
0

>  <i_epik_Tot_Q>  (87) 
0

>  <i_epik_Tot_abs_Q>  (87) 
0

>  <s_epik_Chemistry_Notes>  (87) 
This compound contains an acetal/aminal-like group ( X-CH(R)-Y where X, Y are N, S, or O) that may be acid/base labile, releasing an aldehyde.

>  <s_lp_Force_Field>  (87) 
OPLS3e

>  <r_lp_Energy>  (87) 
128.457

>  <b_lp_Chiralities_Consistent>  (87) 
1

>  <s_lp_Variant>  (87) 
33:0-1

>  <s_i_glide_gridfile>  (87) 
pfpi4k_grid

>  <i_i_glide_lignum>  (87) 
4

>  <i_i_glide_rotatable_bonds>  (87) 
4

>  <r_i_docking_score>  (87) 
0.431259

>  <r_i_glide_ligand_efficiency>  (87) 
0.0110579

>  <r_i_glide_ligand_efficiency_sa>  (87) 
0.0374997

>  <r_i_glide_ligand_efficiency_ln>  (87) 
0.0924741

>  <r_i_glide_gscore>  (87) 
0.431259

>  <r_i_glide_lipo>  (87) 
-0.405685

>  <r_i_glide_hbond>  (87) 
0

>  <r_i_glide_metal>  (87) 
-0

>  <r_i_glide_rewards>  (87) 
-0.0786099

>  <r_i_glide_evdw>  (87) 
-19.1063

>  <r_i_glide_ecoul>  (87) 
-1.33179

>  <r_i_glide_erotb>  (87) 
0.139505

>  <r_i_glide_esite>  (87) 
-0.00800532

>  <r_i_glide_emodel>  (87) 
-9.75837

>  <r_i_glide_energy>  (87) 
-20.4381

>  <r_i_glide_einternal>  (87) 
2.34395

>  <r_i_glide_intrahb_reward>  (87) 
-0

>  <i_i_glide_confnum>  (87) 
5

>  <i_i_glide_posenum>  (87) 
4

>  <r_i_glide_eff_state_penalty>  (87) 
0

>  <ligand_id>  (87) 
33

>  <original_smiles>  (87) 
CC1C2(CCC3C(CCC(OC4CCCCO4)C3(C)C)C2)OC2C3(O)CC4OC2(C(C)C)C4(C)C2CC12CO3

>  <smiles>  (87) 
[H]OC12OC([H])([H])C34C([H])([H])C3([H])C3(C([H])([H])[H])C([H])(OC3(C([H])(C([H])([H])[H])C([H])([H])[H])C1([H])OC1(C([H])([H])C([H])([H])C3([H])C([H])(C([H])([H])C([H])([H])C([H])(OC5([H])OC([H])([H])C([H])([H])C([H])([H])C5([H])[H])C3(C([H])([H])[H])C([H])([H])[H])C1([H])[H])C4([H])C([H])([H])[H])C2([H])[H]

$$$$
33:0:2
     RDKit          3D

 91 98  0  0  1  0  0  0  0  0999 V2000
    4.1702    2.2200    7.0188 C   0  0  0  0  0  0  0  0  0  0  0  0
    2.6507    1.9974    7.2052 C   0  0  2  0  0  0  0  0  0  0  0  0
    1.8245    1.8543    5.8861 C   0  0  2  0  0  0  0  0  0  0  0  0
    1.1175    0.5092    5.9074 C   0  0  0  0  0  0  0  0  0  0  0  0
    0.3460    0.1822    4.6135 C   0  0  0  0  0  0  0  0  0  0  0  0
    1.1980    0.2748    3.3402 C   0  0  1  0  0  0  0  0  0  0  0  0
    1.9629    1.6211    3.3338 C   0  0  2  0  0  0  0  0  0  0  0  0
    2.8409    1.7194    2.0778 C   0  0  0  0  0  0  0  0  0  0  0  0
    3.7717    0.5061    1.8793 C   0  0  0  0  0  0  0  0  0  0  0  0
    2.9779   -0.8130    1.8921 C   0  0  1  0  0  0  0  0  0  0  0  0
    3.8978   -1.9060    1.8005 O   0  0  0  0  0  0  0  0  0  0  0  0
    3.8974   -2.6184    0.6007 C   0  0  2  0  0  0  0  0  0  0  0  0
    4.3626   -1.7018   -0.5623 C   0  0  0  0  0  0  0  0  0  0  0  0
    4.3393   -2.4783   -1.8810 C   0  0  0  0  0  0  0  0  0  0  0  0
    2.9672   -3.1314   -2.0784 C   0  0  0  0  0  0  0  0  0  0  0  0
    2.5922   -3.9639   -0.8452 C   0  0  0  0  0  0  0  0  0  0  0  0
    2.6330   -3.1504    0.3217 O   0  0  0  0  0  0  0  0  0  0  0  0
    2.1299   -0.9589    3.1911 C   0  0  0  0  0  0  0  0  0  0  0  0
    3.0627   -1.2079    4.3615 C   0  0  0  0  0  0  0  0  0  0  0  0
    1.2674   -2.2362    3.1087 C   0  0  0  0  0  0  0  0  0  0  0  0
    2.7067    1.9343    4.6388 C   0  0  0  0  0  0  0  0  0  0  0  0
    0.8805    2.8845    5.4383 O   0  0  0  0  0  0  0  0  0  0  0  0
    0.0019    3.8067    6.0994 C   0  0  2  0  0  0  0  0  0  0  0  0
    0.7192    5.1375    6.5440 C   0  0  1  0  0  0  0  0  0  0  0  0
    0.6336    6.0480    5.4835 O   0  0  0  0  0  0  0  0  0  0  0  0
    0.0061    5.7950    7.7516 C   0  0  0  0  0  0  0  0  0  0  0  0
   -0.8932    4.7910    8.4677 C   0  0  1  0  0  0  0  0  0  0  0  0
   -1.8625    4.5107    7.4285 O   0  0  0  0  0  0  0  0  0  0  0  0
   -1.1267    3.3132    7.0814 C   0  0  1  0  0  0  0  0  0  0  0  0
   -2.1596    2.2769    6.4454 C   0  0  0  0  0  0  0  0  0  0  0  0
   -1.9124    0.8140    6.7510 C   0  0  0  0  0  0  0  0  0  0  0  0
   -2.4445    2.4414    4.9182 C   0  0  0  0  0  0  0  0  0  0  0  0
   -0.6729    3.2477    8.5664 C   0  0  2  0  0  0  0  0  0  0  0  0
   -1.6068    2.6588    9.6340 C   0  0  0  0  0  0  0  0  0  0  0  0
    0.6437    2.4712    8.6867 C   0  0  2  0  0  0  0  0  0  0  0  0
    1.7386    2.5425    9.6913 C   0  0  0  0  0  0  0  0  0  0  0  0
    2.0126    2.9260    8.2340 C   0  0  1  0  0  0  0  0  0  0  0  0
    2.4455    4.3716    8.0677 C   0  0  0  0  0  0  0  0  0  0  0  0
    2.0679    4.9242    6.8265 O   0  0  0  0  0  0  0  0  0  0  0  0
    4.3775    3.1177    6.4329 H   0  0  0  0  0  0  0  0  0  0  0  0
    4.6639    1.3803    6.5195 H   0  0  0  0  0  0  0  0  0  0  0  0
    4.6583    2.3227    7.9798 H   0  0  0  0  0  0  0  0  0  0  0  0
    2.6512    1.0074    7.6720 H   0  0  0  0  0  0  0  0  0  0  0  0
    1.7444   -0.2687    6.2646 H   0  0  0  0  0  0  0  0  0  0  0  0
    0.6144    0.3869    6.8572 H   0  0  0  0  0  0  0  0  0  0  0  0
   -0.2210   -0.7437    4.6781 H   0  0  0  0  0  0  0  0  0  0  0  0
   -0.4435    0.9115    4.4461 H   0  0  0  0  0  0  0  0  0  0  0  0
    0.4995    0.2959    2.5046 H   0  0  0  0  0  0  0  0  0  0  0  0
    1.2193    2.4285    3.2276 H   0  0  0  0  0  0  0  0  0  0  0  0
    2.1640    1.7999    1.2348 H   0  0  0  0  0  0  0  0  0  0  0  0
    3.4063    2.6522    2.1057 H   0  0  0  0  0  0  0  0  0  0  0  0
    4.3203    0.5876    0.9383 H   0  0  0  0  0  0  0  0  0  0  0  0
    4.5418    0.4942    2.6517 H   0  0  0  0  0  0  0  0  0  0  0  0
    2.2918   -0.8098    1.0459 H   0  0  0  0  0  0  0  0  0  0  0  0
    4.6041   -3.4424    0.7309 H   0  0  0  0  0  0  0  0  0  0  0  0
    3.7086   -0.8382   -0.6357 H   0  0  0  0  0  0  0  0  0  0  0  0
    5.3678   -1.3394   -0.3494 H   0  0  0  0  0  0  0  0  0  0  0  0
    4.5414   -1.7940   -2.7054 H   0  0  0  0  0  0  0  0  0  0  0  0
    5.1267   -3.2318   -1.8968 H   0  0  0  0  0  0  0  0  0  0  0  0
    2.2124   -2.3631   -2.2435 H   0  0  0  0  0  0  0  0  0  0  0  0
    2.9728   -3.7602   -2.9697 H   0  0  0  0  0  0  0  0  0  0  0  0
    1.5900   -4.3774   -0.9639 H   0  0  0  0  0  0  0  0  0  0  0  0
    3.2686   -4.8135   -0.7206 H   0  0  0  0  0  0  0  0  0  0  0  0
    3.6884   -2.0488    4.2460 H   0  0  0  0  0  0  0  0  0  0  0  0
    2.5306   -1.4996    5.2278 H   0  0  0  0  0  0  0  0  0  0  0  0
    3.7725   -0.4482    4.5670 H   0  0  0  0  0  0  0  0  0  0  0  0
    1.9050   -3.1071    3.0182 H   0  0  0  0  0  0  0  0  0  0  0  0
    0.5980   -2.2069    2.2618 H   0  0  0  0  0  0  0  0  0  0  0  0
    0.6828   -2.3987    4.0123 H   0  0  0  0  0  0  0  0  0  0  0  0
    3.1907    2.8998    4.5902 H   0  0  0  0  0  0  0  0  0  0  0  0
    3.5752    1.3356    4.7565 H   0  0  0  0  0  0  0  0  0  0  0  0
   -0.5340    4.1177    5.2093 H   0  0  0  0  0  0  0  0  0  0  0  0
    1.0226    5.6243    4.7227 H   0  0  0  0  0  0  0  0  0  0  0  0
    0.6982    6.3189    8.4066 H   0  0  0  0  0  0  0  0  0  0  0  0
   -0.6293    6.6128    7.3951 H   0  0  0  0  0  0  0  0  0  0  0  0
   -1.3818    5.2397    9.3419 H   0  0  0  0  0  0  0  0  0  0  0  0
   -3.1259    2.4198    6.9442 H   0  0  0  0  0  0  0  0  0  0  0  0
   -1.0530    0.6472    6.2507 H   0  0  0  0  0  0  0  0  0  0  0  0
   -2.4842    0.0838    6.1891 H   0  0  0  0  0  0  0  0  0  0  0  0
   -1.6992    0.5439    7.7544 H   0  0  0  0  0  0  0  0  0  0  0  0
   -1.5478    2.5564    4.3180 H   0  0  0  0  0  0  0  0  0  0  0  0
   -3.0930    3.2807    4.7111 H   0  0  0  0  0  0  0  0  0  0  0  0
   -2.9275    1.5721    4.4728 H   0  0  0  0  0  0  0  0  0  0  0  0
   -1.6711    1.5795    9.5887 H   0  0  0  0  0  0  0  0  0  0  0  0
   -2.6192    3.0638    9.5708 H   0  0  0  0  0  0  0  0  0  0  0  0
   -1.2373    2.9044   10.6283 H   0  0  0  0  0  0  0  0  0  0  0  0
    0.4053    1.4359    8.5032 H   0  0  0  0  0  0  0  0  0  0  0  0
    1.6660    3.3240   10.4441 H   0  0  0  0  0  0  0  0  0  0  0  0
    2.1556    1.6050   10.0573 H   0  0  0  0  0  0  0  0  0  0  0  0
    2.1242    4.9569    8.9317 H   0  0  0  0  0  0  0  0  0  0  0  0
    3.5289    4.4482    8.1350 H   0  0  0  0  0  0  0  0  0  0  0  0
  1  2  1  0
  1 40  1  0
  1 41  1  0
  1 42  1  0
  2 37  1  0
  2  3  1  0
  2 43  1  1
  3 21  1  6
  3  4  1  0
  3 22  1  0
  4  5  1  0
  4 44  1  0
  4 45  1  0
  5  6  1  0
  5 46  1  0
  5 47  1  0
  6 18  1  0
  6  7  1  0
  6 48  1  6
  7  8  1  0
  7 21  1  0
  7 49  1  6
  8  9  1  0
  8 50  1  0
  8 51  1  0
  9 10  1  0
  9 52  1  0
  9 53  1  0
 10 11  1  0
 10 18  1  0
 10 54  1  6
 11 12  1  0
 12 17  1  0
 12 13  1  0
 12 55  1  1
 13 14  1  0
 13 56  1  0
 13 57  1  0
 14 15  1  0
 14 58  1  0
 14 59  1  0
 15 16  1  0
 15 60  1  0
 15 61  1  0
 16 17  1  0
 16 62  1  0
 16 63  1  0
 18 19  1  0
 18 20  1  0
 19 64  1  0
 19 65  1  0
 19 66  1  0
 20 67  1  0
 20 68  1  0
 20 69  1  0
 21 70  1  0
 21 71  1  0
 22 23  1  0
 23 29  1  0
 23 24  1  0
 23 72  1  6
 24 39  1  0
 24 25  1  6
 24 26  1  0
 25 73  1  0
 26 27  1  0
 26 74  1  0
 26 75  1  0
 27 33  1  0
 27 28  1  0
 27 76  1  1
 28 29  1  0
 29 30  1  6
 29 33  1  0
 30 31  1  0
 30 32  1  0
 30 77  1  0
 31 78  1  0
 31 79  1  0
 31 80  1  0
 32 81  1  0
 32 82  1  0
 32 83  1  0
 33 34  1  1
 33 35  1  0
 34 84  1  0
 34 85  1  0
 34 86  1  0
 35 37  1  0
 35 36  1  0
 35 87  1  6
 37 36  1  1
 36 88  1  0
 36 89  1  0
 37 38  1  0
 38 39  1  0
 38 90  1  0
 38 91  1  0
M  END
>  <i_m_ct_stereo_status>  (88) 
1

>  <s_m_source_file>  (88) 
/var/tmp/pbs.5076255.sched01/tmpscvaj2_a/3886avry94.sdf

>  <i_m_source_file_index>  (88) 
4

>  <i_lp_mmshare_version>  (88) 
48012

>  <i_f3d_flags>  (88) 
0

>  <s_epik_input>  (88) 
W0NIM11bQ0hdKFtDSDNdKVtDQF0xKE8yKVtDQEhdKE8zKVtDQF0oW09IXSkoT1tDSDJdNClbQ0gyXVtDQEBIXTJbQ0BdMShbQ0gzXSlbQ0BIXShbQ0gyXTUpW0NAQF00NVtDQEhdKFtDSDNdKVtDQEBdMzZbQ0gyXVtDSDJdW0NASF03W0NAQEhdKFtDSDJdNilbQ0gyXVtDSDJdW0NASF0oQzcoW0NIM10pW0NIM10pT1tDQEBIXThbQ0gyXVtDSDJdW0NIMl1bQ0gyXU84

>  <s_epik_cmdline>  (88) 
J2VwaWtfcHl0aG9uJywgJy1waHQnLCAnMi4wJywgJy1waCcsICc3LjAnLCAnLXRuJywgJzgnLCAnLW1hJywgJzIwMCcsICctaW1hZScsICc8aW5maWxlLm1hZT4nLCAnLW9tYWUnLCAnPG91dGZpbGUubWFlPic=

>  <r_lp_tautomer_probability>  (88) 
1

>  <r_epik_Ionization_Penalty>  (88) 
1.71792e-07

>  <r_epik_Ionization_Penalty_Charging>  (88) 
0

>  <r_epik_Ionization_Penalty_Neutral>  (88) 
1.71792e-07

>  <r_epik_State_Penalty>  (88) 
-0

>  <r_epik_Charging_Adjusted_Penalty>  (88) 
0

>  <i_epik_Tot_Q>  (88) 
0

>  <i_epik_Tot_abs_Q>  (88) 
0

>  <s_epik_Chemistry_Notes>  (88) 
This compound contains an acetal/aminal-like group ( X-CH(R)-Y where X, Y are N, S, or O) that may be acid/base labile, releasing an aldehyde.

>  <s_lp_Force_Field>  (88) 
OPLS3e

>  <r_lp_Energy>  (88) 
128.457

>  <b_lp_Chiralities_Consistent>  (88) 
1

>  <s_lp_Variant>  (88) 
33:0-1

>  <s_i_glide_gridfile>  (88) 
pfpi4k_grid

>  <i_i_glide_lignum>  (88) 
4

>  <i_i_glide_rotatable_bonds>  (88) 
4

>  <r_i_docking_score>  (88) 
0.931173

>  <r_i_glide_ligand_efficiency>  (88) 
0.0238762

>  <r_i_glide_ligand_efficiency_sa>  (88) 
0.0809694

>  <r_i_glide_ligand_efficiency_ln>  (88) 
0.19967

>  <r_i_glide_gscore>  (88) 
0.931173

>  <r_i_glide_lipo>  (88) 
-0.105303

>  <r_i_glide_hbond>  (88) 
0

>  <r_i_glide_metal>  (88) 
-0

>  <r_i_glide_rewards>  (88) 
0

>  <r_i_glide_evdw>  (88) 
-16.3859

>  <r_i_glide_ecoul>  (88) 
-1.62542

>  <r_i_glide_erotb>  (88) 
0.139505

>  <r_i_glide_esite>  (88) 
-0.0118228

>  <r_i_glide_emodel>  (88) 
-6.6664

>  <r_i_glide_energy>  (88) 
-18.0113

>  <r_i_glide_einternal>  (88) 
2.01881

>  <r_i_glide_intrahb_reward>  (88) 
-0

>  <i_i_glide_confnum>  (88) 
5

>  <i_i_glide_posenum>  (88) 
17

>  <r_i_glide_eff_state_penalty>  (88) 
0

>  <ligand_id>  (88) 
33

>  <original_smiles>  (88) 
CC1C2(CCC3C(CCC(OC4CCCCO4)C3(C)C)C2)OC2C3(O)CC4OC2(C(C)C)C4(C)C2CC12CO3

>  <smiles>  (88) 
[H]OC12OC([H])([H])C34C([H])([H])C3([H])C3(C([H])([H])[H])C([H])(OC3(C([H])(C([H])([H])[H])C([H])([H])[H])C1([H])OC1(C([H])([H])C([H])([H])C3([H])C([H])(C([H])([H])C([H])([H])C([H])(OC5([H])OC([H])([H])C([H])([H])C([H])([H])C5([H])[H])C3(C([H])([H])[H])C([H])([H])[H])C1([H])[H])C4([H])C([H])([H])[H])C2([H])[H]

$$$$
34:0:0
     RDKit          3D

 70 77  0  0  1  0  0  0  0  0999 V2000
    6.9760   -8.4751    1.3691 C   0  0  0  0  0  0  0  0  0  0  0  0
    5.6984   -7.6146    1.5181 C   0  0  2  0  0  0  0  0  0  0  0  0
    6.0215   -6.1509    1.9529 C   0  0  0  0  0  0  0  0  0  0  0  0
    7.2364   -5.8455    2.0789 O   0  0  0  0  0  0  0  0  0  0  0  0
    5.0185   -5.2380    2.1274 N   0  0  0  0  0  0  0  0  0  0  0  0
    5.2985   -3.8167    1.7628 C   0  0  2  0  0  0  0  0  0  0  0  0
    4.0495   -2.9071    1.6810 C   0  0  1  0  0  0  0  0  0  0  0  0
    4.4663   -1.4335    1.5132 C   0  0  0  0  0  0  0  0  0  0  0  0
    5.1896   -1.2662    0.1675 C   0  0  2  0  0  0  0  0  0  0  0  0
    4.2611   -1.7011   -0.9935 C   0  0  0  0  0  0  0  0  0  0  0  0
    3.8875   -3.1875   -0.8240 C   0  0  2  0  0  0  0  0  0  0  0  0
    3.1456   -3.3732    0.5032 C   0  0  0  0  0  0  0  0  0  0  0  0
    5.1416   -4.0820   -0.7825 C   0  0  0  0  0  0  0  0  0  0  0  0
    6.0506   -3.6373    0.3883 C   0  0  1  0  0  0  0  0  0  0  0  0
    6.4468   -2.1551    0.1817 C   0  0  0  0  0  0  0  0  0  0  0  0
    3.8812   -5.5995    3.0970 C   0  0  1  0  0  0  0  0  0  0  0  0
    2.3304   -5.3528    2.8154 C   0  0  0  0  0  0  0  0  0  0  0  0
    1.4109   -6.5091    3.5739 C   0  0  2  0  0  0  0  0  0  0  0  0
    2.0608   -7.3493    4.6285 C   0  0  0  0  0  0  0  0  0  0  0  0
    3.3094   -7.6496    4.3192 C   0  0  0  0  0  0  0  0  0  0  0  0
    3.7778   -7.1264    2.9564 C   0  0  1  0  0  0  0  0  0  0  0  0
    3.1460   -7.1973    1.5567 O   0  0  0  0  0  0  0  0  0  0  0  0
    1.6544   -7.2726    1.3883 O   0  0  0  0  0  0  0  0  0  0  0  0
    1.1392   -7.7603    2.5572 C   0  0  1  0  0  0  0  0  0  0  0  0
    1.9763   -9.2063    2.5307 C   0  0  0  0  0  0  0  0  0  0  0  0
    3.5956   -9.3893    2.1662 C   0  0  0  0  0  0  0  0  0  0  0  0
    4.6844   -8.2119    2.5355 C   0  0  1  0  0  0  0  0  0  0  0  0
    0.5080   -5.6310    4.4634 C   0  0  0  0  0  0  0  0  0  0  0  0
    1.3727   -4.6696    5.3881 C   0  0  0  0  0  0  0  0  0  0  0  0
    0.8022   -3.7292    5.9363 O   0  0  0  0  0  0  0  0  0  0  0  0
    2.9268   -4.8739    5.6503 C   0  0  0  0  0  0  0  0  0  0  0  0
    4.0790   -4.9007    4.5242 C   0  0  1  0  0  0  0  0  0  0  0  0
    5.4317   -5.2534    5.1665 C   0  0  0  0  0  0  0  0  0  0  0  0
    7.6872   -8.0420    0.6520 H   0  0  0  0  0  0  0  0  0  0  0  0
    6.7442   -9.4771    1.0171 H   0  0  0  0  0  0  0  0  0  0  0  0
    7.5230   -8.5633    2.3073 H   0  0  0  0  0  0  0  0  0  0  0  0
    5.2542   -7.5313    0.5177 H   0  0  0  0  0  0  0  0  0  0  0  0
    5.9567   -3.4262    2.5442 H   0  0  0  0  0  0  0  0  0  0  0  0
    3.4849   -2.8792    2.6095 H   0  0  0  0  0  0  0  0  0  0  0  0
    3.5719   -0.8153    1.5554 H   0  0  0  0  0  0  0  0  0  0  0  0
    5.0950   -1.1188    2.3509 H   0  0  0  0  0  0  0  0  0  0  0  0
    5.4660   -0.2164    0.0376 H   0  0  0  0  0  0  0  0  0  0  0  0
    3.3432   -1.1154   -0.9772 H   0  0  0  0  0  0  0  0  0  0  0  0
    4.7411   -1.5593   -1.9618 H   0  0  0  0  0  0  0  0  0  0  0  0
    3.2253   -3.5140   -1.6183 H   0  0  0  0  0  0  0  0  0  0  0  0
    2.9436   -4.4054    0.4996 H   0  0  0  0  0  0  0  0  0  0  0  0
    2.2152   -2.8012    0.5163 H   0  0  0  0  0  0  0  0  0  0  0  0
    4.8526   -5.1229   -0.6436 H   0  0  0  0  0  0  0  0  0  0  0  0
    5.6716   -4.0436   -1.7333 H   0  0  0  0  0  0  0  0  0  0  0  0
    6.9914   -4.1804    0.3148 H   0  0  0  0  0  0  0  0  0  0  0  0
    6.9873   -2.0498   -0.7603 H   0  0  0  0  0  0  0  0  0  0  0  0
    7.1265   -1.8377    0.9708 H   0  0  0  0  0  0  0  0  0  0  0  0
    2.1038   -4.3468    3.0963 H   0  0  0  0  0  0  0  0  0  0  0  0
    1.9669   -5.2199    1.8208 H   0  0  0  0  0  0  0  0  0  0  0  0
    1.5639   -7.6289    5.5411 H   0  0  0  0  0  0  0  0  0  0  0  0
    3.9670   -8.2030    4.9503 H   0  0  0  0  0  0  0  0  0  0  0  0
    0.0746   -7.9395    2.4515 H   0  0  0  0  0  0  0  0  0  0  0  0
    1.8093   -9.6872    3.4828 H   0  0  0  0  0  0  0  0  0  0  0  0
    1.4574   -9.8479    1.8318 H   0  0  0  0  0  0  0  0  0  0  0  0
    3.9384  -10.2864    2.6594 H   0  0  0  0  0  0  0  0  0  0  0  0
    3.6806   -9.6072    1.0937 H   0  0  0  0  0  0  0  0  0  0  0  0
    5.2933   -8.5410    3.3623 H   0  0  0  0  0  0  0  0  0  0  0  0
   -0.1432   -4.9990    3.8601 H   0  0  0  0  0  0  0  0  0  0  0  0
   -0.1356   -6.2308    5.0960 H   0  0  0  0  0  0  0  0  0  0  0  0
    3.2066   -4.0636    6.3220 H   0  0  0  0  0  0  0  0  0  0  0  0
    3.0278   -5.7704    6.2675 H   0  0  0  0  0  0  0  0  0  0  0  0
    4.2184   -3.8424    4.3296 H   0  0  0  0  0  0  0  0  0  0  0  0
    5.5330   -6.3239    5.3556 H   0  0  0  0  0  0  0  0  0  0  0  0
    5.5577   -4.7217    6.1193 H   0  0  0  0  0  0  0  0  0  0  0  0
    6.2713   -4.9442    4.5422 H   0  0  0  0  0  0  0  0  0  0  0  0
  1  2  1  0
  1 34  1  0
  1 35  1  0
  1 36  1  0
  2 27  1  0
  2  3  1  0
  2 37  1  6
  3  4  2  0
  3  5  1  0
  5  6  1  0
 16  5  1  6
  6 14  1  0
  6  7  1  0
  6 38  1  1
  7 12  1  0
  7  8  1  0
  7 39  1  1
  8  9  1  0
  8 40  1  0
  8 41  1  0
  9 15  1  0
  9 10  1  0
  9 42  1  6
 10 11  1  0
 10 43  1  0
 10 44  1  0
 11 12  1  0
 11 13  1  0
 11 45  1  6
 12 46  1  0
 12 47  1  0
 13 14  1  0
 13 48  1  0
 13 49  1  0
 14 15  1  0
 14 50  1  1
 15 51  1  0
 15 52  1  0
 16 21  1  0
 16 32  1  0
 16 17  1  0
 17 18  1  0
 17 53  1  0
 17 54  1  0
 18 24  1  0
 18 19  1  0
 18 28  1  1
 19 20  2  0
 19 55  1  0
 21 20  1  1
 20 56  1  0
 21 27  1  0
 21 22  1  0
 22 23  1  0
 23 24  1  0
 24 25  1  0
 24 57  1  6
 25 26  1  0
 25 58  1  0
 25 59  1  0
 26 27  1  0
 26 60  1  0
 26 61  1  0
 27 62  1  1
 28 29  1  0
 28 63  1  0
 28 64  1  0
 29 30  2  0
 29 31  1  0
 31 32  1  0
 31 65  1  0
 31 66  1  0
 32 33  1  0
 32 67  1  6
 33 68  1  0
 33 69  1  0
 33 70  1  0
M  END
>  <i_m_ct_stereo_status>  (89) 
1

>  <s_m_source_file>  (89) 
/var/tmp/pbs.5076255.sched01/tmpscvaj2_a/3886avry94.sdf

>  <i_m_source_file_index>  (89) 
5

>  <i_lp_mmshare_version>  (89) 
48012

>  <i_f3d_flags>  (89) 
0

>  <s_epik_input>  (89) 
W0NIMl0xW0NAQEhdKFtDSDJdMilbQ0gyXVtDQEhdKFtDSDJdMylbQ0gyXVtDQEBIXTJbQ0BASF0oW0NAQEhdMTMpTjRDKD1PKVtDQEBIXShbQ0gzXSlbQ0BASF0oW0NAXTU2W0NAQF00NzgpW0NIMl1bQ0gyXVtDQEhdKE9PNilbQ0BdKFtDSDJdNykoW0NIXT1bQ0hdNSlbQ0gyXUMoPU8pW0NIMl1bQ0BIXThbQ0gzXQ==

>  <s_epik_cmdline>  (89) 
J2VwaWtfcHl0aG9uJywgJy1waHQnLCAnMi4wJywgJy1waCcsICc3LjAnLCAnLXRuJywgJzgnLCAnLW1hJywgJzIwMCcsICctaW1hZScsICc8aW5maWxlLm1hZT4nLCAnLW9tYWUnLCAnPG91dGZpbGUubWFlPic=

>  <r_lp_tautomer_probability>  (89) 
1

>  <r_epik_Ionization_Penalty>  (89) 
5.71581e-09

>  <r_epik_Ionization_Penalty_Charging>  (89) 
0

>  <r_epik_Ionization_Penalty_Neutral>  (89) 
5.71581e-09

>  <r_epik_State_Penalty>  (89) 
-0

>  <r_epik_Charging_Adjusted_Penalty>  (89) 
0

>  <i_epik_Tot_Q>  (89) 
0

>  <i_epik_Tot_abs_Q>  (89) 
0

>  <s_lp_Force_Field>  (89) 
OPLS3e

>  <r_lp_Energy>  (89) 
289.547

>  <b_lp_Chiralities_Consistent>  (89) 
1

>  <s_lp_Variant>  (89) 
34:0-1

>  <s_i_glide_gridfile>  (89) 
pfpi4k_grid

>  <i_i_glide_lignum>  (89) 
5

>  <i_i_glide_rotatable_bonds>  (89) 
1

>  <r_i_docking_score>  (89) 
-2.58082

>  <r_i_glide_ligand_efficiency>  (89) 
-0.0782066

>  <r_i_glide_ligand_efficiency_sa>  (89) 
-0.25085

>  <r_i_glide_ligand_efficiency_ln>  (89) 
-0.573961

>  <r_i_glide_gscore>  (89) 
-2.58082

>  <r_i_glide_lipo>  (89) 
-0.556077

>  <r_i_glide_hbond>  (89) 
0

>  <r_i_glide_metal>  (89) 
-0

>  <r_i_glide_rewards>  (89) 
-0.417108

>  <r_i_glide_evdw>  (89) 
-31.3865

>  <r_i_glide_ecoul>  (89) 
-0.911079

>  <r_i_glide_erotb>  (89) 
0.098354

>  <r_i_glide_esite>  (89) 
0

>  <r_i_glide_emodel>  (89) 
-35.4977

>  <r_i_glide_energy>  (89) 
-32.2976

>  <r_i_glide_einternal>  (89) 
9.46541e-05

>  <r_i_glide_intrahb_reward>  (89) 
-0

>  <i_i_glide_confnum>  (89) 
2

>  <i_i_glide_posenum>  (89) 
10

>  <r_i_glide_eff_state_penalty>  (89) 
0

>  <ligand_id>  (89) 
34

>  <original_smiles>  (89) 
CC1C(=O)N(C2C3CC4CC(C3)CC2C4)C23CC4(C=CC25OOC4CCC15)CC(=O)CC3C

>  <smiles>  (89) 
[H]C1=C([H])C23C([H])([H])C(=O)C([H])([H])C([H])(C([H])([H])[H])C4(N(C5([H])C6([H])C([H])([H])C7([H])C([H])([H])C([H])(C6([H])[H])C([H])([H])C5([H])C7([H])[H])C(=O)C([H])(C([H])([H])[H])C5([H])C([H])([H])C([H])([H])C2([H])OOC154)C3([H])[H]

$$$$
34:0:1
     RDKit          3D

 70 77  0  0  1  0  0  0  0  0999 V2000
    5.8030   -9.3274    1.2727 C   0  0  0  0  0  0  0  0  0  0  0  0
    4.7705   -8.1911    1.4932 C   0  0  2  0  0  0  0  0  0  0  0  0
    5.4597   -6.8571    1.9173 C   0  0  0  0  0  0  0  0  0  0  0  0
    6.7067   -6.8431    1.9643 O   0  0  0  0  0  0  0  0  0  0  0  0
    4.6956   -5.7373    2.1616 N   0  0  0  0  0  0  0  0  0  0  0  0
    5.2928   -4.4108    1.7832 C   0  0  2  0  0  0  0  0  0  0  0  0
    4.2930   -3.2284    1.7890 C   0  0  1  0  0  0  0  0  0  0  0  0
    5.0335   -1.8987    1.6074 C   0  0  0  0  0  0  0  0  0  0  0  0
    5.6879   -1.8727    0.2137 C   0  0  2  0  0  0  0  0  0  0  0  0
    4.6059   -2.0522   -0.8839 C   0  0  0  0  0  0  0  0  0  0  0  0
    3.9086   -3.4020   -0.6975 C   0  0  2  0  0  0  0  0  0  0  0  0
    3.2456   -3.4154    0.6636 C   0  0  0  0  0  0  0  0  0  0  0  0
    4.9128   -4.5725   -0.7422 C   0  0  0  0  0  0  0  0  0  0  0  0
    5.9748   -4.3833    0.3618 C   0  0  1  0  0  0  0  0  0  0  0  0
    6.6977   -3.0353    0.1345 C   0  0  0  0  0  0  0  0  0  0  0  0
    3.5727   -5.8387    3.1814 C   0  0  1  0  0  0  0  0  0  0  0  0
    2.1018   -5.2415    3.0315 C   0  0  0  0  0  0  0  0  0  0  0  0
    0.9890   -6.1497    3.8089 C   0  0  2  0  0  0  0  0  0  0  0  0
    1.4867   -7.1390    4.8083 C   0  0  0  0  0  0  0  0  0  0  0  0
    2.5880   -7.7016    4.4221 C   0  0  0  0  0  0  0  0  0  0  0  0
    3.0911   -7.2871    3.0406 C   0  0  1  0  0  0  0  0  0  0  0  0
    2.4072   -7.1758    1.6795 O   0  0  0  0  0  0  0  0  0  0  0  0
    0.9029   -6.9309    1.5955 O   0  0  0  0  0  0  0  0  0  0  0  0
    0.3756   -7.2900    2.8023 C   0  0  1  0  0  0  0  0  0  0  0  0
    0.8434   -8.8837    2.7218 C   0  0  0  0  0  0  0  0  0  0  0  0
    2.3496   -9.4301    2.2598 C   0  0  0  0  0  0  0  0  0  0  0  0
    3.7002   -8.5581    2.5606 C   0  0  1  0  0  0  0  0  0  0  0  0
    0.3647   -5.0941    4.7471 C   0  0  0  0  0  0  0  0  0  0  0  0
    1.4838   -4.3800    5.6276 C   0  0  0  0  0  0  0  0  0  0  0  0
    1.1825   -3.3458    6.2132 O   0  0  0  0  0  0  0  0  0  0  0  0
    2.9556   -4.9535    5.7950 C   0  0  0  0  0  0  0  0  0  0  0  0
    4.0067   -5.2325    4.6081 C   0  0  1  0  0  0  0  0  0  0  0  0
    5.2745   -5.9021    5.1655 C   0  0  0  0  0  0  0  0  0  0  0  0
    6.5342   -9.0585    0.5046 H   0  0  0  0  0  0  0  0  0  0  0  0
    5.3249  -10.2433    0.9365 H   0  0  0  0  0  0  0  0  0  0  0  0
    6.3681   -9.5551    2.1774 H   0  0  0  0  0  0  0  0  0  0  0  0
    4.3113   -7.9968    0.5172 H   0  0  0  0  0  0  0  0  0  0  0  0
    6.0744   -4.2133    2.5208 H   0  0  0  0  0  0  0  0  0  0  0  0
    3.8110   -3.0845    2.7463 H   0  0  0  0  0  0  0  0  0  0  0  0
    4.3149   -1.0862    1.7149 H   0  0  0  0  0  0  0  0  0  0  0  0
    5.7727   -1.7584    2.4010 H   0  0  0  0  0  0  0  0  0  0  0  0
    6.1922   -0.9111    0.0732 H   0  0  0  0  0  0  0  0  0  0  0  0
    3.8533   -1.2639   -0.7993 H   0  0  0  0  0  0  0  0  0  0  0  0
    5.0395   -2.0062   -1.8817 H   0  0  0  0  0  0  0  0  0  0  0  0
    3.1326   -3.5563   -1.4465 H   0  0  0  0  0  0  0  0  0  0  0  0
    2.8007   -4.4074    0.6384 H   0  0  0  0  0  0  0  0  0  0  0  0
    2.4534   -2.6718    0.7584 H   0  0  0  0  0  0  0  0  0  0  0  0
    4.3971   -5.5239   -0.5932 H   0  0  0  0  0  0  0  0  0  0  0  0
    5.3679   -4.6372   -1.7281 H   0  0  0  0  0  0  0  0  0  0  0  0
    6.7490   -5.1394    0.2239 H   0  0  0  0  0  0  0  0  0  0  0  0
    7.1848   -3.0356   -0.8408 H   0  0  0  0  0  0  0  0  0  0  0  0
    7.4818   -2.9064    0.8776 H   0  0  0  0  0  0  0  0  0  0  0  0
    2.1351   -4.1990    3.2994 H   0  0  0  0  0  0  0  0  0  0  0  0
    1.6813   -5.0015    2.0501 H   0  0  0  0  0  0  0  0  0  0  0  0
    0.9842   -7.3065    5.7524 H   0  0  0  0  0  0  0  0  0  0  0  0
    3.1465   -8.4171    5.0203 H   0  0  0  0  0  0  0  0  0  0  0  0
   -0.7126   -7.2107    2.7555 H   0  0  0  0  0  0  0  0  0  0  0  0
    0.6171   -9.3319    3.6829 H   0  0  0  0  0  0  0  0  0  0  0  0
    0.1480   -9.3844    2.0630 H   0  0  0  0  0  0  0  0  0  0  0  0
    2.5026  -10.4010    2.7309 H   0  0  0  0  0  0  0  0  0  0  0  0
    2.3213   -9.6535    1.1862 H   0  0  0  0  0  0  0  0  0  0  0  0
    4.2660   -9.0291    3.3585 H   0  0  0  0  0  0  0  0  0  0  0  0
   -0.1516   -4.3158    4.1834 H   0  0  0  0  0  0  0  0  0  0  0  0
   -0.3656   -5.5386    5.4148 H   0  0  0  0  0  0  0  0  0  0  0  0
    3.4586   -4.2416    6.4543 H   0  0  0  0  0  0  0  0  0  0  0  0
    2.8777   -5.8553    6.4007 H   0  0  0  0  0  0  0  0  0  0  0  0
    4.3884   -4.2321    4.4174 H   0  0  0  0  0  0  0  0  0  0  0  0
    5.1290   -6.9679    5.3418 H   0  0  0  0  0  0  0  0  0  0  0  0
    5.5717   -5.4305    6.1094 H   0  0  0  0  0  0  0  0  0  0  0  0
    6.1277   -5.7843    4.4933 H   0  0  0  0  0  0  0  0  0  0  0  0
  1  2  1  0
  1 34  1  0
  1 35  1  0
  1 36  1  0
  2 27  1  0
  2  3  1  0
  2 37  1  6
  3  4  2  0
  3  5  1  0
  5  6  1  0
 16  5  1  6
  6 14  1  0
  6  7  1  0
  6 38  1  1
  7 12  1  0
  7  8  1  0
  7 39  1  1
  8  9  1  0
  8 40  1  0
  8 41  1  0
  9 15  1  0
  9 10  1  0
  9 42  1  6
 10 11  1  0
 10 43  1  0
 10 44  1  0
 11 12  1  0
 11 13  1  0
 11 45  1  6
 12 46  1  0
 12 47  1  0
 13 14  1  0
 13 48  1  0
 13 49  1  0
 14 15  1  0
 14 50  1  1
 15 51  1  0
 15 52  1  0
 16 21  1  0
 16 32  1  0
 16 17  1  0
 17 18  1  0
 17 53  1  0
 17 54  1  0
 18 24  1  0
 18 19  1  0
 18 28  1  1
 19 20  2  0
 19 55  1  0
 21 20  1  1
 20 56  1  0
 21 27  1  0
 21 22  1  0
 22 23  1  0
 23 24  1  0
 24 25  1  0
 24 57  1  6
 25 26  1  0
 25 58  1  0
 25 59  1  0
 26 27  1  0
 26 60  1  0
 26 61  1  0
 27 62  1  1
 28 29  1  0
 28 63  1  0
 28 64  1  0
 29 30  2  0
 29 31  1  0
 31 32  1  0
 31 65  1  0
 31 66  1  0
 32 33  1  0
 32 67  1  6
 33 68  1  0
 33 69  1  0
 33 70  1  0
M  END
>  <i_m_ct_stereo_status>  (90) 
1

>  <s_m_source_file>  (90) 
/var/tmp/pbs.5076255.sched01/tmpscvaj2_a/3886avry94.sdf

>  <i_m_source_file_index>  (90) 
5

>  <i_lp_mmshare_version>  (90) 
48012

>  <i_f3d_flags>  (90) 
0

>  <s_epik_input>  (90) 
W0NIMl0xW0NAQEhdKFtDSDJdMilbQ0gyXVtDQEhdKFtDSDJdMylbQ0gyXVtDQEBIXTJbQ0BASF0oW0NAQEhdMTMpTjRDKD1PKVtDQEBIXShbQ0gzXSlbQ0BASF0oW0NAXTU2W0NAQF00NzgpW0NIMl1bQ0gyXVtDQEhdKE9PNilbQ0BdKFtDSDJdNykoW0NIXT1bQ0hdNSlbQ0gyXUMoPU8pW0NIMl1bQ0BIXThbQ0gzXQ==

>  <s_epik_cmdline>  (90) 
J2VwaWtfcHl0aG9uJywgJy1waHQnLCAnMi4wJywgJy1waCcsICc3LjAnLCAnLXRuJywgJzgnLCAnLW1hJywgJzIwMCcsICctaW1hZScsICc8aW5maWxlLm1hZT4nLCAnLW9tYWUnLCAnPG91dGZpbGUubWFlPic=

>  <r_lp_tautomer_probability>  (90) 
1

>  <r_epik_Ionization_Penalty>  (90) 
5.71581e-09

>  <r_epik_Ionization_Penalty_Charging>  (90) 
0

>  <r_epik_Ionization_Penalty_Neutral>  (90) 
5.71581e-09

>  <r_epik_State_Penalty>  (90) 
-0

>  <r_epik_Charging_Adjusted_Penalty>  (90) 
0

>  <i_epik_Tot_Q>  (90) 
0

>  <i_epik_Tot_abs_Q>  (90) 
0

>  <s_lp_Force_Field>  (90) 
OPLS3e

>  <r_lp_Energy>  (90) 
289.547

>  <b_lp_Chiralities_Consistent>  (90) 
1

>  <s_lp_Variant>  (90) 
34:0-1

>  <s_i_glide_gridfile>  (90) 
pfpi4k_grid

>  <i_i_glide_lignum>  (90) 
5

>  <i_i_glide_rotatable_bonds>  (90) 
1

>  <r_i_docking_score>  (90) 
-2.56462

>  <r_i_glide_ligand_efficiency>  (90) 
-0.0777157

>  <r_i_glide_ligand_efficiency_sa>  (90) 
-0.249276

>  <r_i_glide_ligand_efficiency_ln>  (90) 
-0.570358

>  <r_i_glide_gscore>  (90) 
-2.56462

>  <r_i_glide_lipo>  (90) 
-0.444422

>  <r_i_glide_hbond>  (90) 
0

>  <r_i_glide_metal>  (90) 
-0

>  <r_i_glide_rewards>  (90) 
-0.410299

>  <r_i_glide_evdw>  (90) 
-32.1671

>  <r_i_glide_ecoul>  (90) 
-1.33265

>  <r_i_glide_erotb>  (90) 
0.098354

>  <r_i_glide_esite>  (90) 
0

>  <r_i_glide_emodel>  (90) 
-37.274

>  <r_i_glide_energy>  (90) 
-33.4997

>  <r_i_glide_einternal>  (90) 
0.0065408

>  <r_i_glide_intrahb_reward>  (90) 
-0

>  <i_i_glide_confnum>  (90) 
2

>  <i_i_glide_posenum>  (90) 
1

>  <r_i_glide_eff_state_penalty>  (90) 
0

>  <ligand_id>  (90) 
34

>  <original_smiles>  (90) 
CC1C(=O)N(C2C3CC4CC(C3)CC2C4)C23CC4(C=CC25OOC4CCC15)CC(=O)CC3C

>  <smiles>  (90) 
[H]C1=C([H])C23C([H])([H])C(=O)C([H])([H])C([H])(C([H])([H])[H])C4(N(C5([H])C6([H])C([H])([H])C7([H])C([H])([H])C([H])(C6([H])[H])C([H])([H])C5([H])C7([H])[H])C(=O)C([H])(C([H])([H])[H])C5([H])C([H])([H])C([H])([H])C2([H])OOC154)C3([H])[H]

$$$$
35:0:0
     RDKit          3D

 58 62  0  0  1  0  0  0  0  0999 V2000
    2.1566   -6.0603    0.8689 C   0  0  0  0  0  0  0  0  0  0  0  0
    3.1071   -5.6950    1.7662 C   0  0  0  0  0  0  0  0  0  0  0  0
    3.0122   -6.1995    3.1732 C   0  0  2  0  0  0  0  0  0  0  0  0
    2.5000   -5.1038    4.1059 C   0  0  0  0  0  0  0  0  0  0  0  0
    3.5155   -3.9537    4.2783 C   0  0  1  0  0  0  0  0  0  0  0  0
    3.8988   -3.9077    5.6423 O   0  0  0  0  0  0  0  0  0  0  0  0
    4.7760   -4.0054    3.3577 C   0  0  1  0  0  0  0  0  0  0  0  0
    5.2043   -5.4680    2.7465 C   0  0  2  0  0  0  0  0  0  0  0  0
    6.6978   -5.8117    2.3074 C   0  0  0  0  0  0  0  0  0  0  0  0
    7.0796   -5.4410    0.7765 C   0  0  0  0  0  0  0  0  0  0  0  0
    6.4687   -4.0520    0.2709 C   0  0  1  0  0  0  0  0  0  0  0  0
    7.6626   -3.0332    0.3684 C   0  0  0  0  0  0  0  0  0  0  0  0
    5.7386   -3.8580   -1.0454 C   0  0  0  0  0  0  0  0  0  0  0  0
    5.2736   -2.6130   -1.2695 C   0  0  0  0  0  0  0  0  0  0  0  0
    3.8095   -2.1814   -1.2083 C   0  0  0  0  0  0  0  0  0  0  0  0
    3.6040   -1.1722   -2.3570 C   0  0  0  0  0  0  0  0  0  0  0  0
    2.8471   -3.3543   -1.4638 C   0  0  0  0  0  0  0  0  0  0  0  0
    3.6144   -1.5098    0.2216 C   0  0  0  0  0  0  0  0  0  0  0  0
    3.8352   -0.3187    0.3666 O   0  0  0  0  0  0  0  0  0  0  0  0
    3.3925   -2.2848    1.5730 C   0  0  1  0  0  0  0  0  0  0  0  0
    2.2505   -3.0821    1.5300 O   0  0  0  0  0  0  0  0  0  0  0  0
    4.6963   -2.9357    2.1532 C   0  0  1  0  0  0  0  0  0  0  0  0
    5.5817   -1.6863    2.4854 C   0  0  0  0  0  0  0  0  0  0  0  0
    5.1721   -3.9291    1.1185 C   0  0  1  0  0  0  0  0  0  0  0  0
    4.5468   -5.3733    1.4116 C   0  0  2  0  0  0  0  0  0  0  0  0
    4.4541   -6.5739    3.4984 C   0  0  0  0  0  0  0  0  0  0  0  0
    2.3166   -5.9827   -0.1904 H   0  0  0  0  0  0  0  0  0  0  0  0
    1.2673   -6.5547    1.2308 H   0  0  0  0  0  0  0  0  0  0  0  0
    2.3525   -7.0663    3.2162 H   0  0  0  0  0  0  0  0  0  0  0  0
    1.5651   -4.7066    3.7056 H   0  0  0  0  0  0  0  0  0  0  0  0
    2.2420   -5.5349    5.0752 H   0  0  0  0  0  0  0  0  0  0  0  0
    2.9975   -3.0105    4.1151 H   0  0  0  0  0  0  0  0  0  0  0  0
    4.3290   -4.7107    5.8625 H   0  0  0  0  0  0  0  0  0  0  0  0
    5.6023   -3.7034    3.9977 H   0  0  0  0  0  0  0  0  0  0  0  0
    7.3992   -5.3427    2.9946 H   0  0  0  0  0  0  0  0  0  0  0  0
    6.8592   -6.8826    2.4199 H   0  0  0  0  0  0  0  0  0  0  0  0
    8.1645   -5.4556    0.6715 H   0  0  0  0  0  0  0  0  0  0  0  0
    6.7532   -6.2327    0.1065 H   0  0  0  0  0  0  0  0  0  0  0  0
    8.2920   -3.2366    1.2361 H   0  0  0  0  0  0  0  0  0  0  0  0
    7.4093   -1.9755    0.3816 H   0  0  0  0  0  0  0  0  0  0  0  0
    8.3112   -3.1870   -0.4918 H   0  0  0  0  0  0  0  0  0  0  0  0
    5.0942   -4.7081   -1.2600 H   0  0  0  0  0  0  0  0  0  0  0  0
    5.8652   -1.7776   -0.9384 H   0  0  0  0  0  0  0  0  0  0  0  0
    4.2714   -0.3149   -2.2901 H   0  0  0  0  0  0  0  0  0  0  0  0
    2.5849   -0.7946   -2.3521 H   0  0  0  0  0  0  0  0  0  0  0  0
    3.7608   -1.6373   -3.3301 H   0  0  0  0  0  0  0  0  0  0  0  0
    3.0174   -4.1610   -0.7626 H   0  0  0  0  0  0  0  0  0  0  0  0
    2.9764   -3.7760   -2.4653 H   0  0  0  0  0  0  0  0  0  0  0  0
    1.8049   -3.0573   -1.3786 H   0  0  0  0  0  0  0  0  0  0  0  0
    3.1155   -1.4965    2.2691 H   0  0  0  0  0  0  0  0  0  0  0  0
    2.4517   -3.7700    0.9300 H   0  0  0  0  0  0  0  0  0  0  0  0
    5.7454   -0.9889    1.6710 H   0  0  0  0  0  0  0  0  0  0  0  0
    6.5783   -1.9747    2.7596 H   0  0  0  0  0  0  0  0  0  0  0  0
    5.1588   -1.1232    3.3210 H   0  0  0  0  0  0  0  0  0  0  0  0
    6.0471   -3.7146    1.7041 H   0  0  0  0  0  0  0  0  0  0  0  0
    4.7725   -6.1701    0.6882 H   0  0  0  0  0  0  0  0  0  0  0  0
    4.6709   -6.6031    4.5644 H   0  0  0  0  0  0  0  0  0  0  0  0
    4.6823   -7.5532    3.0728 H   0  0  0  0  0  0  0  0  0  0  0  0
  1  2  2  0
  1 27  1  0
  1 28  1  0
  2 25  1  0
  2  3  1  0
  3 26  1  0
  3  4  1  0
  3 29  1  6
  4  5  1  0
  4 30  1  0
  4 31  1  0
  5  6  1  0
  5  7  1  0
  5 32  1  6
  6 33  1  0
  7 22  1  0
  7  8  1  0
  7 34  1  1
  8 25  1  0
  8  9  1  6
  8 26  1  0
  9 10  1  0
  9 35  1  0
  9 36  1  0
 10 11  1  0
 10 37  1  0
 10 38  1  0
 11 24  1  0
 11 12  1  1
 11 13  1  0
 12 39  1  0
 12 40  1  0
 12 41  1  0
 13 14  2  3
 13 42  1  0
 14 15  1  0
 14 43  1  0
 15 16  1  0
 15 17  1  0
 15 18  1  0
 16 44  1  0
 16 45  1  0
 16 46  1  0
 17 47  1  0
 17 48  1  0
 17 49  1  0
 18 19  2  0
 18 20  1  0
 20 21  1  0
 20 22  1  0
 20 50  1  1
 21 51  1  0
 22 23  1  1
 22 24  1  0
 23 52  1  0
 23 53  1  0
 23 54  1  0
 24 25  1  0
 24 55  1  6
 25 56  1  6
 26 57  1  0
 26 58  1  0
M  END
>  <i_m_ct_stereo_status>  (91) 
1

>  <s_m_source_file>  (91) 
/var/tmp/pbs.5076255.sched01/tmpscvaj2_a/3886avry94.sdf

>  <i_m_source_file_index>  (91) 
6

>  <i_lp_mmshare_version>  (91) 
48012

>  <i_f3d_flags>  (91) 
0

>  <s_epik_input>  (91) 
W09IXVtDQEBIXTFbQ0gyXVtDQEhdKFtDSDJdMilDKD1bQ0gyXSlbQ0BIXTNbQ0BIXShbQ0BAXTQoW0NAQEhdMVtDQEBdMjM1KVtDSDNdKVtDQEBdKFtDSDNdKShbQ0gyXVtDSDJdNSkvW0NIXT1bQ0hdXEMoW0NIM10pKFtDSDNdKUMoPU8pW0NASF00W09IXQ==

>  <s_epik_cmdline>  (91) 
J2VwaWtfcHl0aG9uJywgJy1waHQnLCAnMi4wJywgJy1waCcsICc3LjAnLCAnLXRuJywgJzgnLCAnLW1hJywgJzIwMCcsICctaW1hZScsICc8aW5maWxlLm1hZT4nLCAnLW9tYWUnLCAnPG91dGZpbGUubWFlPic=

>  <r_lp_tautomer_probability>  (91) 
1

>  <r_epik_Ionization_Penalty>  (91) 
6.17638e-07

>  <r_epik_Ionization_Penalty_Charging>  (91) 
0

>  <r_epik_Ionization_Penalty_Neutral>  (91) 
6.17638e-07

>  <r_epik_State_Penalty>  (91) 
-0

>  <r_epik_Charging_Adjusted_Penalty>  (91) 
0

>  <i_epik_Tot_Q>  (91) 
0

>  <i_epik_Tot_abs_Q>  (91) 
0

>  <s_lp_Force_Field>  (91) 
OPLS3e

>  <r_lp_Energy>  (91) 
226.09

>  <b_lp_Chiralities_Consistent>  (91) 
1

>  <s_lp_Variant>  (91) 
35:0-1

>  <s_i_glide_gridfile>  (91) 
pfpi4k_grid

>  <i_i_glide_lignum>  (91) 
6

>  <i_i_glide_rotatable_bonds>  (91) 
2

>  <r_i_docking_score>  (91) 
-2.89956

>  <r_i_glide_ligand_efficiency>  (91) 
-0.111521

>  <r_i_glide_ligand_efficiency_sa>  (91) 
-0.330382

>  <r_i_glide_ligand_efficiency_ln>  (91) 
-0.680952

>  <r_i_glide_gscore>  (91) 
-2.89956

>  <r_i_glide_lipo>  (91) 
-0.819766

>  <r_i_glide_hbond>  (91) 
0

>  <r_i_glide_metal>  (91) 
-0

>  <r_i_glide_rewards>  (91) 
-0.97842

>  <r_i_glide_evdw>  (91) 
-22.5592

>  <r_i_glide_ecoul>  (91) 
0.59696

>  <r_i_glide_erotb>  (91) 
0

>  <r_i_glide_esite>  (91) 
-0.0629594

>  <r_i_glide_emodel>  (91) 
-23.8208

>  <r_i_glide_energy>  (91) 
-21.9622

>  <r_i_glide_einternal>  (91) 
1.24325

>  <r_i_glide_intrahb_reward>  (91) 
-0

>  <i_i_glide_confnum>  (91) 
2

>  <i_i_glide_posenum>  (91) 
11

>  <r_i_glide_eff_state_penalty>  (91) 
0

>  <ligand_id>  (91) 
35

>  <original_smiles>  (91) 
C=C1C2CC(O)C3C4(CCC5(C)C=CC(C)(C)C(=O)C(O)C3(C)C5C14)C2

>  <smiles>  (91) 
[H]OC1([H])C(=O)C(C([H])([H])[H])(C([H])([H])[H])C([H])=C([H])C2(C([H])([H])[H])C([H])([H])C([H])([H])C34C([H])([H])C5([H])C(=C([H])[H])C3([H])C2([H])C1(C([H])([H])[H])C4([H])C([H])(O[H])C5([H])[H]

$$$$
35:0:1
     RDKit          3D

 58 62  0  0  1  0  0  0  0  0999 V2000
    2.1434   -6.0918    0.9101 C   0  0  0  0  0  0  0  0  0  0  0  0
    3.0969   -5.7125    1.7736 C   0  0  0  0  0  0  0  0  0  0  0  0
    3.0471   -6.1643    3.2191 C   0  0  2  0  0  0  0  0  0  0  0  0
    2.5525   -5.0474    4.1507 C   0  0  0  0  0  0  0  0  0  0  0  0
    3.5560   -3.8881    4.2890 C   0  0  1  0  0  0  0  0  0  0  0  0
    4.0118   -3.8574    5.6226 O   0  0  0  0  0  0  0  0  0  0  0  0
    4.7925   -3.9458    3.3330 C   0  0  1  0  0  0  0  0  0  0  0  0
    5.2192   -5.4113    2.7344 C   0  0  2  0  0  0  0  0  0  0  0  0
    6.7125   -5.7497    2.2629 C   0  0  0  0  0  0  0  0  0  0  0  0
    7.0575   -5.4106    0.7186 C   0  0  0  0  0  0  0  0  0  0  0  0
    6.4227   -4.0240    0.2168 C   0  0  1  0  0  0  0  0  0  0  0  0
    7.6181   -2.9952    0.2567 C   0  0  0  0  0  0  0  0  0  0  0  0
    5.6692   -3.8670   -1.0953 C   0  0  0  0  0  0  0  0  0  0  0  0
    5.1762   -2.6202   -1.3290 C   0  0  0  0  0  0  0  0  0  0  0  0
    3.7105   -2.2024   -1.2255 C   0  0  0  0  0  0  0  0  0  0  0  0
    3.4636   -1.2012   -2.3804 C   0  0  0  0  0  0  0  0  0  0  0  0
    2.7432   -3.3777   -1.4466 C   0  0  0  0  0  0  0  0  0  0  0  0
    3.5405   -1.5117    0.1950 C   0  0  0  0  0  0  0  0  0  0  0  0
    3.7522   -0.3107    0.3079 O   0  0  0  0  0  0  0  0  0  0  0  0
    3.3526   -2.2641    1.5591 C   0  0  1  0  0  0  0  0  0  0  0  0
    2.2151   -3.0803    1.5571 O   0  0  0  0  0  0  0  0  0  0  0  0
    4.6822   -2.8946    2.1310 C   0  0  1  0  0  0  0  0  0  0  0  0
    5.5580   -1.6463    2.4542 C   0  0  0  0  0  0  0  0  0  0  0  0
    5.1497   -3.8908    1.0857 C   0  0  1  0  0  0  0  0  0  0  0  0
    4.5278   -5.3263    1.4150 C   0  0  2  0  0  0  0  0  0  0  0  0
    4.4985   -6.5225    3.5142 C   0  0  0  0  0  0  0  0  0  0  0  0
    2.2657   -5.9885   -0.1573 H   0  0  0  0  0  0  0  0  0  0  0  0
    1.2433   -6.5473    1.3018 H   0  0  0  0  0  0  0  0  0  0  0  0
    2.3963   -7.0342    3.3026 H   0  0  0  0  0  0  0  0  0  0  0  0
    1.6018   -4.6674    3.7771 H   0  0  0  0  0  0  0  0  0  0  0  0
    2.3327   -5.4688    5.1320 H   0  0  0  0  0  0  0  0  0  0  0  0
    3.0307   -2.9531    4.1324 H   0  0  0  0  0  0  0  0  0  0  0  0
    4.4866   -3.0557    5.7449 H   0  0  0  0  0  0  0  0  0  0  0  0
    5.6481   -3.6529    3.9378 H   0  0  0  0  0  0  0  0  0  0  0  0
    7.4187   -5.2666    2.9283 H   0  0  0  0  0  0  0  0  0  0  0  0
    6.8874   -6.8248    2.3916 H   0  0  0  0  0  0  0  0  0  0  0  0
    8.1390   -5.4167    0.5846 H   0  0  0  0  0  0  0  0  0  0  0  0
    6.7140   -6.2244    0.0837 H   0  0  0  0  0  0  0  0  0  0  0  0
    8.2561   -3.1670    1.1209 H   0  0  0  0  0  0  0  0  0  0  0  0
    7.3413   -1.9414    0.2756 H   0  0  0  0  0  0  0  0  0  0  0  0
    8.2460   -3.1555   -0.6216 H   0  0  0  0  0  0  0  0  0  0  0  0
    5.0176   -4.7106   -1.2843 H   0  0  0  0  0  0  0  0  0  0  0  0
    5.7697   -1.7771   -1.0231 H   0  0  0  0  0  0  0  0  0  0  0  0
    4.1323   -0.3408   -2.3401 H   0  0  0  0  0  0  0  0  0  0  0  0
    2.4436   -0.8243   -2.3626 H   0  0  0  0  0  0  0  0  0  0  0  0
    3.6089   -1.6752   -3.3515 H   0  0  0  0  0  0  0  0  0  0  0  0
    2.9347   -4.1633   -0.7373 H   0  0  0  0  0  0  0  0  0  0  0  0
    2.8529   -3.8112   -2.4416 H   0  0  0  0  0  0  0  0  0  0  0  0
    1.7075   -3.0599   -1.3423 H   0  0  0  0  0  0  0  0  0  0  0  0
    3.0803   -1.4758    2.2626 H   0  0  0  0  0  0  0  0  0  0  0  0
    2.4199   -3.8260    1.0224 H   0  0  0  0  0  0  0  0  0  0  0  0
    5.7245   -0.9817    1.6130 H   0  0  0  0  0  0  0  0  0  0  0  0
    6.5319   -1.9233    2.8443 H   0  0  0  0  0  0  0  0  0  0  0  0
    5.0862   -1.0399    3.2329 H   0  0  0  0  0  0  0  0  0  0  0  0
    6.0462   -3.6582    1.6479 H   0  0  0  0  0  0  0  0  0  0  0  0
    4.7467   -6.1213    0.7067 H   0  0  0  0  0  0  0  0  0  0  0  0
    4.7405   -6.5246    4.5708 H   0  0  0  0  0  0  0  0  0  0  0  0
    4.7285   -7.5038    3.0957 H   0  0  0  0  0  0  0  0  0  0  0  0
  1  2  2  0
  1 27  1  0
  1 28  1  0
  2 25  1  0
  2  3  1  0
  3 26  1  0
  3  4  1  0
  3 29  1  6
  4  5  1  0
  4 30  1  0
  4 31  1  0
  5  6  1  0
  5  7  1  0
  5 32  1  6
  6 33  1  0
  7 22  1  0
  7  8  1  0
  7 34  1  1
  8 25  1  0
  8  9  1  6
  8 26  1  0
  9 10  1  0
  9 35  1  0
  9 36  1  0
 10 11  1  0
 10 37  1  0
 10 38  1  0
 11 24  1  0
 11 12  1  1
 11 13  1  0
 12 39  1  0
 12 40  1  0
 12 41  1  0
 13 14  2  3
 13 42  1  0
 14 15  1  0
 14 43  1  0
 15 16  1  0
 15 17  1  0
 15 18  1  0
 16 44  1  0
 16 45  1  0
 16 46  1  0
 17 47  1  0
 17 48  1  0
 17 49  1  0
 18 19  2  0
 18 20  1  0
 20 21  1  0
 20 22  1  0
 20 50  1  1
 21 51  1  0
 22 23  1  1
 22 24  1  0
 23 52  1  0
 23 53  1  0
 23 54  1  0
 24 25  1  0
 24 55  1  6
 25 56  1  6
 26 57  1  0
 26 58  1  0
M  END
>  <i_m_ct_stereo_status>  (92) 
1

>  <s_m_source_file>  (92) 
/var/tmp/pbs.5076255.sched01/tmpscvaj2_a/3886avry94.sdf

>  <i_m_source_file_index>  (92) 
6

>  <i_lp_mmshare_version>  (92) 
48012

>  <i_f3d_flags>  (92) 
0

>  <s_epik_input>  (92) 
W09IXVtDQEBIXTFbQ0gyXVtDQEhdKFtDSDJdMilDKD1bQ0gyXSlbQ0BIXTNbQ0BIXShbQ0BAXTQoW0NAQEhdMVtDQEBdMjM1KVtDSDNdKVtDQEBdKFtDSDNdKShbQ0gyXVtDSDJdNSkvW0NIXT1bQ0hdXEMoW0NIM10pKFtDSDNdKUMoPU8pW0NASF00W09IXQ==

>  <s_epik_cmdline>  (92) 
J2VwaWtfcHl0aG9uJywgJy1waHQnLCAnMi4wJywgJy1waCcsICc3LjAnLCAnLXRuJywgJzgnLCAnLW1hJywgJzIwMCcsICctaW1hZScsICc8aW5maWxlLm1hZT4nLCAnLW9tYWUnLCAnPG91dGZpbGUubWFlPic=

>  <r_lp_tautomer_probability>  (92) 
1

>  <r_epik_Ionization_Penalty>  (92) 
6.17638e-07

>  <r_epik_Ionization_Penalty_Charging>  (92) 
0

>  <r_epik_Ionization_Penalty_Neutral>  (92) 
6.17638e-07

>  <r_epik_State_Penalty>  (92) 
-0

>  <r_epik_Charging_Adjusted_Penalty>  (92) 
0

>  <i_epik_Tot_Q>  (92) 
0

>  <i_epik_Tot_abs_Q>  (92) 
0

>  <s_lp_Force_Field>  (92) 
OPLS3e

>  <r_lp_Energy>  (92) 
226.09

>  <b_lp_Chiralities_Consistent>  (92) 
1

>  <s_lp_Variant>  (92) 
35:0-1

>  <s_i_glide_gridfile>  (92) 
pfpi4k_grid

>  <i_i_glide_lignum>  (92) 
6

>  <i_i_glide_rotatable_bonds>  (92) 
2

>  <r_i_docking_score>  (92) 
-2.78971

>  <r_i_glide_ligand_efficiency>  (92) 
-0.107297

>  <r_i_glide_ligand_efficiency_sa>  (92) 
-0.317866

>  <r_i_glide_ligand_efficiency_ln>  (92) 
-0.655155

>  <r_i_glide_gscore>  (92) 
-2.78971

>  <r_i_glide_lipo>  (92) 
-0.789331

>  <r_i_glide_hbond>  (92) 
0

>  <r_i_glide_metal>  (92) 
-0

>  <r_i_glide_rewards>  (92) 
-0.97842

>  <r_i_glide_evdw>  (92) 
-21.2575

>  <r_i_glide_ecoul>  (92) 
0.735467

>  <r_i_glide_erotb>  (92) 
0

>  <r_i_glide_esite>  (92) 
-0.0694085

>  <r_i_glide_emodel>  (92) 
-22.6544

>  <r_i_glide_energy>  (92) 
-20.522

>  <r_i_glide_einternal>  (92) 
1.56832

>  <r_i_glide_intrahb_reward>  (92) 
-0

>  <i_i_glide_confnum>  (92) 
1

>  <i_i_glide_posenum>  (92) 
14

>  <r_i_glide_eff_state_penalty>  (92) 
0

>  <ligand_id>  (92) 
35

>  <original_smiles>  (92) 
C=C1C2CC(O)C3C4(CCC5(C)C=CC(C)(C)C(=O)C(O)C3(C)C5C14)C2

>  <smiles>  (92) 
[H]OC1([H])C(=O)C(C([H])([H])[H])(C([H])([H])[H])C([H])=C([H])C2(C([H])([H])[H])C([H])([H])C([H])([H])C34C([H])([H])C5([H])C(=C([H])[H])C3([H])C2([H])C1(C([H])([H])[H])C4([H])C([H])(O[H])C5([H])[H]

$$$$
35:0:2
     RDKit          3D

 58 62  0  0  1  0  0  0  0  0999 V2000
    1.5919   -5.7427    0.2981 C   0  0  0  0  0  0  0  0  0  0  0  0
    2.3483   -5.5104    1.3780 C   0  0  0  0  0  0  0  0  0  0  0  0
    1.8645   -5.9654    2.7376 C   0  0  2  0  0  0  0  0  0  0  0  0
    1.4146   -4.7740    3.5912 C   0  0  0  0  0  0  0  0  0  0  0  0
    2.5781   -3.8551    4.0206 C   0  0  1  0  0  0  0  0  0  0  0  0
    2.6658   -3.8872    5.4347 O   0  0  0  0  0  0  0  0  0  0  0  0
    3.9660   -4.1703    3.3767 C   0  0  1  0  0  0  0  0  0  0  0  0
    4.2028   -5.6897    2.8062 C   0  0  2  0  0  0  0  0  0  0  0  0
    5.6538   -6.3437    2.6633 C   0  0  0  0  0  0  0  0  0  0  0  0
    6.4127   -6.0701    1.2592 C   0  0  0  0  0  0  0  0  0  0  0  0
    6.2215   -4.5825    0.6994 C   0  0  1  0  0  0  0  0  0  0  0  0
    7.5661   -3.8582    1.0508 C   0  0  0  0  0  0  0  0  0  0  0  0
    5.8094   -4.2544   -0.7228 C   0  0  0  0  0  0  0  0  0  0  0  0
    5.6945   -2.9248   -0.9986 C   0  0  0  0  0  0  0  0  0  0  0  0
    4.3816   -2.1845   -1.2256 C   0  0  0  0  0  0  0  0  0  0  0  0
    4.6143   -1.1483   -2.3474 C   0  0  0  0  0  0  0  0  0  0  0  0
    3.2579   -3.1076   -1.7158 C   0  0  0  0  0  0  0  0  0  0  0  0
    4.0385   -1.4581    0.1400 C   0  0  0  0  0  0  0  0  0  0  0  0
    4.2971   -0.2675    0.2470 O   0  0  0  0  0  0  0  0  0  0  0  0
    3.4363   -2.1552    1.4083 C   0  0  1  0  0  0  0  0  0  0  0  0
    2.2143   -2.6873    1.0695 O   0  0  0  0  0  0  0  0  0  0  0  0
    4.3860   -3.0972    2.2472 C   0  0  1  0  0  0  0  0  0  0  0  0
    5.4108   -2.1000    2.8748 C   0  0  0  0  0  0  0  0  0  0  0  0
    4.8474   -4.1723    1.2967 C   0  0  1  0  0  0  0  0  0  0  0  0
    3.8792   -5.4472    1.3733 C   0  0  2  0  0  0  0  0  0  0  0  0
    3.1058   -6.6244    3.3334 C   0  0  0  0  0  0  0  0  0  0  0  0
    1.9619   -5.6202   -0.7096 H   0  0  0  0  0  0  0  0  0  0  0  0
    0.5552   -6.0504    0.4106 H   0  0  0  0  0  0  0  0  0  0  0  0
    1.0452   -6.6821    2.6368 H   0  0  0  0  0  0  0  0  0  0  0  0
    0.6883   -4.1864    3.0277 H   0  0  0  0  0  0  0  0  0  0  0  0
    0.8681   -5.1366    4.4668 H   0  0  0  0  0  0  0  0  0  0  0  0
    2.3013   -2.8269    3.7914 H   0  0  0  0  0  0  0  0  0  0  0  0
    2.9511   -4.7412    5.7026 H   0  0  0  0  0  0  0  0  0  0  0  0
    4.6789   -4.0814    4.1946 H   0  0  0  0  0  0  0  0  0  0  0  0
    6.2703   -6.0162    3.4968 H   0  0  0  0  0  0  0  0  0  0  0  0
    5.5673   -7.4252    2.7697 H   0  0  0  0  0  0  0  0  0  0  0  0
    7.4693   -6.3191    1.3716 H   0  0  0  0  0  0  0  0  0  0  0  0
    6.0727   -6.7787    0.5109 H   0  0  0  0  0  0  0  0  0  0  0  0
    7.9527   -4.1974    2.0132 H   0  0  0  0  0  0  0  0  0  0  0  0
    7.5285   -2.7690    1.0810 H   0  0  0  0  0  0  0  0  0  0  0  0
    8.3385   -4.1335    0.3304 H   0  0  0  0  0  0  0  0  0  0  0  0
    5.0569   -4.9324   -1.0887 H   0  0  0  0  0  0  0  0  0  0  0  0
    6.3738   -2.2476   -0.5195 H   0  0  0  0  0  0  0  0  0  0  0  0
    5.4130   -0.4498   -2.1003 H   0  0  0  0  0  0  0  0  0  0  0  0
    3.7092   -0.5673   -2.5362 H   0  0  0  0  0  0  0  0  0  0  0  0
    4.8863   -1.6413   -3.2829 H   0  0  0  0  0  0  0  0  0  0  0  0
    3.0944   -3.9187   -1.0196 H   0  0  0  0  0  0  0  0  0  0  0  0
    3.4994   -3.5661   -2.6768 H   0  0  0  0  0  0  0  0  0  0  0  0
    2.3117   -2.5792   -1.8341 H   0  0  0  0  0  0  0  0  0  0  0  0
    3.1563   -1.3408    2.0657 H   0  0  0  0  0  0  0  0  0  0  0  0
    1.7383   -2.0059    0.6143 H   0  0  0  0  0  0  0  0  0  0  0  0
    5.9271   -1.4830    2.1384 H   0  0  0  0  0  0  0  0  0  0  0  0
    6.1698   -2.6082    3.4642 H   0  0  0  0  0  0  0  0  0  0  0  0
    4.9060   -1.4144    3.5624 H   0  0  0  0  0  0  0  0  0  0  0  0
    5.6164   -4.1511    2.0540 H   0  0  0  0  0  0  0  0  0  0  0  0
    4.0926   -6.2495    0.6665 H   0  0  0  0  0  0  0  0  0  0  0  0
    3.0829   -6.7001    4.4187 H   0  0  0  0  0  0  0  0  0  0  0  0
    3.2174   -7.6278    2.9170 H   0  0  0  0  0  0  0  0  0  0  0  0
  1  2  2  0
  1 27  1  0
  1 28  1  0
  2 25  1  0
  2  3  1  0
  3 26  1  0
  3  4  1  0
  3 29  1  6
  4  5  1  0
  4 30  1  0
  4 31  1  0
  5  6  1  0
  5  7  1  0
  5 32  1  1
  6 33  1  0
  7 22  1  0
  7  8  1  0
  7 34  1  1
  8 25  1  0
  8  9  1  6
  8 26  1  0
  9 10  1  0
  9 35  1  0
  9 36  1  0
 10 11  1  0
 10 37  1  0
 10 38  1  0
 11 24  1  0
 11 12  1  1
 11 13  1  0
 12 39  1  0
 12 40  1  0
 12 41  1  0
 13 14  2  3
 13 42  1  0
 14 15  1  0
 14 43  1  0
 15 16  1  0
 15 17  1  0
 15 18  1  0
 16 44  1  0
 16 45  1  0
 16 46  1  0
 17 47  1  0
 17 48  1  0
 17 49  1  0
 18 19  2  0
 18 20  1  0
 20 21  1  0
 20 22  1  0
 20 50  1  1
 21 51  1  0
 22 23  1  1
 22 24  1  0
 23 52  1  0
 23 53  1  0
 23 54  1  0
 24 25  1  0
 24 55  1  6
 25 56  1  6
 26 57  1  0
 26 58  1  0
M  END
>  <i_m_ct_stereo_status>  (93) 
1

>  <s_m_source_file>  (93) 
/var/tmp/pbs.5076255.sched01/tmpscvaj2_a/3886avry94.sdf

>  <i_m_source_file_index>  (93) 
6

>  <i_lp_mmshare_version>  (93) 
48012

>  <i_f3d_flags>  (93) 
0

>  <s_epik_input>  (93) 
W09IXVtDQEBIXTFbQ0gyXVtDQEhdKFtDSDJdMilDKD1bQ0gyXSlbQ0BIXTNbQ0BIXShbQ0BAXTQoW0NAQEhdMVtDQEBdMjM1KVtDSDNdKVtDQEBdKFtDSDNdKShbQ0gyXVtDSDJdNSkvW0NIXT1bQ0hdXEMoW0NIM10pKFtDSDNdKUMoPU8pW0NASF00W09IXQ==

>  <s_epik_cmdline>  (93) 
J2VwaWtfcHl0aG9uJywgJy1waHQnLCAnMi4wJywgJy1waCcsICc3LjAnLCAnLXRuJywgJzgnLCAnLW1hJywgJzIwMCcsICctaW1hZScsICc8aW5maWxlLm1hZT4nLCAnLW9tYWUnLCAnPG91dGZpbGUubWFlPic=

>  <r_lp_tautomer_probability>  (93) 
1

>  <r_epik_Ionization_Penalty>  (93) 
6.17638e-07

>  <r_epik_Ionization_Penalty_Charging>  (93) 
0

>  <r_epik_Ionization_Penalty_Neutral>  (93) 
6.17638e-07

>  <r_epik_State_Penalty>  (93) 
-0

>  <r_epik_Charging_Adjusted_Penalty>  (93) 
0

>  <i_epik_Tot_Q>  (93) 
0

>  <i_epik_Tot_abs_Q>  (93) 
0

>  <s_lp_Force_Field>  (93) 
OPLS3e

>  <r_lp_Energy>  (93) 
226.09

>  <b_lp_Chiralities_Consistent>  (93) 
1

>  <s_lp_Variant>  (93) 
35:0-1

>  <s_i_glide_gridfile>  (93) 
pfpi4k_grid

>  <i_i_glide_lignum>  (93) 
6

>  <i_i_glide_rotatable_bonds>  (93) 
2

>  <r_i_docking_score>  (93) 
-2.75658

>  <r_i_glide_ligand_efficiency>  (93) 
-0.106022

>  <r_i_glide_ligand_efficiency_sa>  (93) 
-0.31409

>  <r_i_glide_ligand_efficiency_ln>  (93) 
-0.647373

>  <r_i_glide_gscore>  (93) 
-2.75658

>  <r_i_glide_lipo>  (93) 
-0.484443

>  <r_i_glide_hbond>  (93) 
0

>  <r_i_glide_metal>  (93) 
-0

>  <r_i_glide_rewards>  (93) 
-0.97842

>  <r_i_glide_evdw>  (93) 
-20.5369

>  <r_i_glide_ecoul>  (93) 
-1.54736

>  <r_i_glide_erotb>  (93) 
0

>  <r_i_glide_esite>  (93) 
-0.0347626

>  <r_i_glide_emodel>  (93) 
-23.1742

>  <r_i_glide_energy>  (93) 
-22.0843

>  <r_i_glide_einternal>  (93) 
1.93058

>  <r_i_glide_intrahb_reward>  (93) 
-0

>  <i_i_glide_confnum>  (93) 
1

>  <i_i_glide_posenum>  (93) 
9

>  <r_i_glide_eff_state_penalty>  (93) 
0

>  <ligand_id>  (93) 
35

>  <original_smiles>  (93) 
C=C1C2CC(O)C3C4(CCC5(C)C=CC(C)(C)C(=O)C(O)C3(C)C5C14)C2

>  <smiles>  (93) 
[H]OC1([H])C(=O)C(C([H])([H])[H])(C([H])([H])[H])C([H])=C([H])C2(C([H])([H])[H])C([H])([H])C([H])([H])C34C([H])([H])C5([H])C(=C([H])[H])C3([H])C2([H])C1(C([H])([H])[H])C4([H])C([H])(O[H])C5([H])[H]

$$$$
36:0:0
     RDKit          3D

 45 48  0  0  1  0  0  0  0  0999 V2000
   -2.9729    3.0807    2.7767 C   0  0  0  0  0  0  0  0  0  0  0  0
   -1.5972    2.8082    3.3368 C   0  0  0  0  0  0  0  0  0  0  0  0
   -0.8360    1.7254    3.1632 C   0  0  0  0  0  0  0  0  0  0  0  0
    0.5043    1.8504    3.8727 C   0  0  1  0  0  0  0  0  0  0  0  0
    0.5551    3.3705    4.1606 C   0  0  0  0  0  0  0  0  0  0  0  0
   -0.9203    3.8056    4.2400 C   0  0  2  0  0  0  0  0  0  0  0  0
   -1.4787    3.6973    5.6698 C   0  0  0  0  0  0  0  0  0  0  0  0
   -1.6423    2.2547    6.1987 C   0  0  2  0  0  0  0  0  0  0  0  0
   -2.1138    2.3290    7.5353 O   0  0  0  0  0  0  0  0  0  0  0  0
   -1.2331    1.8034    8.4109 C   0  0  0  0  0  0  0  0  0  0  0  0
   -1.3639    1.7673    9.6274 O   0  0  0  0  0  0  0  0  0  0  0  0
   -0.1238    1.2518    7.6444 C   0  0  0  0  0  0  0  0  0  0  0  0
   -0.3518    1.4925    6.3522 C   0  0  0  0  0  0  0  0  0  0  0  0
    0.5657    1.0574    5.2119 C   0  0  1  0  0  0  0  0  0  0  0  0
    0.5258   -0.4636    4.9735 C   0  0  0  0  0  0  0  0  0  0  0  0
    1.7339   -0.9486    4.1363 C   0  0  0  0  0  0  0  0  0  0  0  0
    3.0669   -0.7791    4.9096 C   0  0  0  0  0  0  0  0  0  0  0  0
    1.5555   -2.4492    3.8430 C   0  0  0  0  0  0  0  0  0  0  0  0
    1.7552   -0.1575    2.8084 C   0  0  0  0  0  0  0  0  0  0  0  0
    1.6895    1.3771    2.9845 C   0  0  1  0  0  0  0  0  0  0  0  0
    1.6196    1.9244    1.6838 O   0  0  0  0  0  0  0  0  0  0  0  0
   -2.9400    3.9756    2.1599 H   0  0  0  0  0  0  0  0  0  0  0  0
   -3.6961    3.2286    3.5779 H   0  0  0  0  0  0  0  0  0  0  0  0
   -3.2975    2.2571    2.1442 H   0  0  0  0  0  0  0  0  0  0  0  0
   -1.1060    0.8790    2.5528 H   0  0  0  0  0  0  0  0  0  0  0  0
    1.1537    3.6436    5.0312 H   0  0  0  0  0  0  0  0  0  0  0  0
    1.0017    3.8907    3.3128 H   0  0  0  0  0  0  0  0  0  0  0  0
   -1.0378    4.8122    3.8354 H   0  0  0  0  0  0  0  0  0  0  0  0
   -0.8471    4.2749    6.3454 H   0  0  0  0  0  0  0  0  0  0  0  0
   -2.4657    4.1475    5.6932 H   0  0  0  0  0  0  0  0  0  0  0  0
   -2.3461    1.6762    5.5982 H   0  0  0  0  0  0  0  0  0  0  0  0
    0.7098    0.7234    8.0797 H   0  0  0  0  0  0  0  0  0  0  0  0
    1.5390    1.2899    5.6403 H   0  0  0  0  0  0  0  0  0  0  0  0
    0.5035   -1.0014    5.9241 H   0  0  0  0  0  0  0  0  0  0  0  0
   -0.4037   -0.7163    4.4594 H   0  0  0  0  0  0  0  0  0  0  0  0
    3.8948   -1.2706    4.3923 H   0  0  0  0  0  0  0  0  0  0  0  0
    2.9996   -1.2111    5.9108 H   0  0  0  0  0  0  0  0  0  0  0  0
    3.3545    0.2652    5.0295 H   0  0  0  0  0  0  0  0  0  0  0  0
    2.3781   -2.8365    3.2396 H   0  0  0  0  0  0  0  0  0  0  0  0
    0.6292   -2.6392    3.3013 H   0  0  0  0  0  0  0  0  0  0  0  0
    1.5244   -3.0283    4.7674 H   0  0  0  0  0  0  0  0  0  0  0  0
    2.6455   -0.4195    2.2377 H   0  0  0  0  0  0  0  0  0  0  0  0
    0.9134   -0.4703    2.1921 H   0  0  0  0  0  0  0  0  0  0  0  0
    2.6179    1.7230    3.4429 H   0  0  0  0  0  0  0  0  0  0  0  0
    1.1533    2.7558    1.6941 H   0  0  0  0  0  0  0  0  0  0  0  0
  1  2  1  0
  1 22  1  0
  1 23  1  0
  1 24  1  0
  2  6  1  0
  2  3  2  0
  4  3  1  6
  3 25  1  0
  4 14  1  0
  4 20  1  0
  4  5  1  0
  5  6  1  0
  5 26  1  0
  5 27  1  0
  6  7  1  0
  6 28  1  6
  7  8  1  0
  7 29  1  0
  7 30  1  0
  8 13  1  0
  8  9  1  0
  8 31  1  6
  9 10  1  0
 10 11  2  0
 10 12  1  0
 12 13  2  0
 12 32  1  0
 13 14  1  0
 14 15  1  0
 14 33  1  1
 15 16  1  0
 15 34  1  0
 15 35  1  0
 16 17  1  0
 16 18  1  0
 16 19  1  0
 17 36  1  0
 17 37  1  0
 17 38  1  0
 18 39  1  0
 18 40  1  0
 18 41  1  0
 19 20  1  0
 19 42  1  0
 19 43  1  0
 20 21  1  0
 20 44  1  1
 21 45  1  0
M  END
>  <i_m_ct_stereo_status>  (94) 
1

>  <s_m_source_file>  (94) 
/var/tmp/pbs.5076255.sched01/tmpscvaj2_a/3886avry94.sdf

>  <i_m_source_file_index>  (94) 
7

>  <i_lp_mmshare_version>  (94) 
48012

>  <i_f3d_flags>  (94) 
0

>  <s_epik_input>  (94) 
W0NIM11DKD1bQ0hdMSlbQ0BIXShbQ0gyXTIpW0NIMl1bQ0BIXShPQyg9TylbQ0hdPTMpQzNbQ0BIXShbQ0BAXTEyNClbQ0gyXUMoW0NIM10pKFtDSDNdKVtDSDJdW0NASF00W09IXQ==

>  <s_epik_cmdline>  (94) 
J2VwaWtfcHl0aG9uJywgJy1waHQnLCAnMi4wJywgJy1waCcsICc3LjAnLCAnLXRuJywgJzgnLCAnLW1hJywgJzIwMCcsICctaW1hZScsICc8aW5maWxlLm1hZT4nLCAnLW9tYWUnLCAnPG91dGZpbGUubWFlPic=

>  <r_lp_tautomer_probability>  (94) 
1

>  <r_epik_Ionization_Penalty>  (94) 
1.95487e-07

>  <r_epik_Ionization_Penalty_Charging>  (94) 
0

>  <r_epik_Ionization_Penalty_Neutral>  (94) 
1.95487e-07

>  <r_epik_State_Penalty>  (94) 
-0

>  <r_epik_Charging_Adjusted_Penalty>  (94) 
0

>  <i_epik_Tot_Q>  (94) 
0

>  <i_epik_Tot_abs_Q>  (94) 
0

>  <s_epik_Chemistry_Notes>  (94) 
This compound has an ester and may undergo hydrolysis at high or low pH.

>  <s_lp_Force_Field>  (94) 
OPLS3e

>  <r_lp_Energy>  (94) 
19.802

>  <b_lp_Chiralities_Consistent>  (94) 
1

>  <s_lp_Variant>  (94) 
36:0-1

>  <s_i_glide_gridfile>  (94) 
pfpi4k_grid

>  <i_i_glide_lignum>  (94) 
7

>  <i_i_glide_rotatable_bonds>  (94) 
1

>  <r_i_docking_score>  (94) 
-2.89122

>  <r_i_glide_ligand_efficiency>  (94) 
-0.137677

>  <r_i_glide_ligand_efficiency_sa>  (94) 
-0.379841

>  <r_i_glide_ligand_efficiency_ln>  (94) 
-0.714848

>  <r_i_glide_gscore>  (94) 
-2.89122

>  <r_i_glide_lipo>  (94) 
-0.0244783

>  <r_i_glide_hbond>  (94) 
-0.12946

>  <r_i_glide_metal>  (94) 
-0

>  <r_i_glide_rewards>  (94) 
-1.44285

>  <r_i_glide_evdw>  (94) 
-20.4559

>  <r_i_glide_ecoul>  (94) 
-1.58326

>  <r_i_glide_erotb>  (94) 
0

>  <r_i_glide_esite>  (94) 
-0.0341431

>  <r_i_glide_emodel>  (94) 
-24.8622

>  <r_i_glide_energy>  (94) 
-22.0392

>  <r_i_glide_einternal>  (94) 
1.17673

>  <r_i_glide_intrahb_reward>  (94) 
-0

>  <i_i_glide_confnum>  (94) 
1

>  <i_i_glide_posenum>  (94) 
8

>  <r_i_glide_eff_state_penalty>  (94) 
0

>  <ligand_id>  (94) 
36

>  <original_smiles>  (94) 
CC1=CC23CC1CC1OC(=O)C=C1C2CC(C)(C)CC3O

>  <smiles>  (94) 
[H]OC1([H])C([H])([H])C(C([H])([H])[H])(C([H])([H])[H])C([H])([H])C2([H])C3=C([H])C(=O)OC3([H])C([H])([H])C3([H])C(C([H])([H])[H])=C([H])C12C3([H])[H]

$$$$
36:0:1
     RDKit          3D

 45 48  0  0  1  0  0  0  0  0999 V2000
   -2.6438    3.2717    3.0840 C   0  0  0  0  0  0  0  0  0  0  0  0
   -1.3868    2.6341    3.6299 C   0  0  0  0  0  0  0  0  0  0  0  0
   -1.1918    1.3557    3.9579 C   0  0  0  0  0  0  0  0  0  0  0  0
    0.2280    1.0972    4.4381 C   0  0  1  0  0  0  0  0  0  0  0  0
    0.9487    2.3789    3.9534 C   0  0  0  0  0  0  0  0  0  0  0  0
   -0.1529    3.4567    3.8996 C   0  0  2  0  0  0  0  0  0  0  0  0
   -0.2813    4.2160    5.2325 C   0  0  0  0  0  0  0  0  0  0  0  0
   -0.8543    3.3801    6.4022 C   0  0  2  0  0  0  0  0  0  0  0  0
   -0.8675    4.1983    7.5640 O   0  0  0  0  0  0  0  0  0  0  0  0
   -0.0829    3.7007    8.5443 C   0  0  0  0  0  0  0  0  0  0  0  0
    0.1229    4.2190    9.6360 O   0  0  0  0  0  0  0  0  0  0  0  0
    0.4639    2.4330    8.0672 C   0  0  0  0  0  0  0  0  0  0  0  0
    0.0124    2.2214    6.8304 C   0  0  0  0  0  0  0  0  0  0  0  0
    0.3345    0.9856    5.9866 C   0  0  1  0  0  0  0  0  0  0  0  0
   -0.3692   -0.2810    6.5063 C   0  0  0  0  0  0  0  0  0  0  0  0
    0.2619   -1.5774    5.9431 C   0  0  0  0  0  0  0  0  0  0  0  0
    1.7100   -1.7761    6.4612 C   0  0  0  0  0  0  0  0  0  0  0  0
   -0.5697   -2.7838    6.4178 C   0  0  0  0  0  0  0  0  0  0  0  0
    0.2284   -1.5002    4.4028 C   0  0  0  0  0  0  0  0  0  0  0  0
    0.8353   -0.1997    3.8273 C   0  0  1  0  0  0  0  0  0  0  0  0
    0.6458   -0.2525    2.4310 O   0  0  0  0  0  0  0  0  0  0  0  0
   -2.4343    3.7001    2.1051 H   0  0  0  0  0  0  0  0  0  0  0  0
   -2.9755    4.0715    3.7409 H   0  0  0  0  0  0  0  0  0  0  0  0
   -3.4455    2.5408    2.9819 H   0  0  0  0  0  0  0  0  0  0  0  0
   -1.9284    0.5770    3.8524 H   0  0  0  0  0  0  0  0  0  0  0  0
    1.8208    2.6529    4.5470 H   0  0  0  0  0  0  0  0  0  0  0  0
    1.3074    2.2391    2.9341 H   0  0  0  0  0  0  0  0  0  0  0  0
    0.0312    4.1463    3.0740 H   0  0  0  0  0  0  0  0  0  0  0  0
    0.6951    4.6179    5.5064 H   0  0  0  0  0  0  0  0  0  0  0  0
   -0.9286    5.0783    5.0780 H   0  0  0  0  0  0  0  0  0  0  0  0
   -1.8671    3.0281    6.2013 H   0  0  0  0  0  0  0  0  0  0  0  0
    1.1011    1.7893    8.6535 H   0  0  0  0  0  0  0  0  0  0  0  0
    1.3968    0.8676    6.1947 H   0  0  0  0  0  0  0  0  0  0  0  0
   -0.3398   -0.3084    7.5969 H   0  0  0  0  0  0  0  0  0  0  0  0
   -1.4235   -0.2371    6.2255 H   0  0  0  0  0  0  0  0  0  0  0  0
    2.0987   -2.7627    6.1973 H   0  0  0  0  0  0  0  0  0  0  0  0
    1.7583   -1.6815    7.5482 H   0  0  0  0  0  0  0  0  0  0  0  0
    2.4091   -1.0494    6.0463 H   0  0  0  0  0  0  0  0  0  0  0  0
   -0.1712   -3.7210    6.0258 H   0  0  0  0  0  0  0  0  0  0  0  0
   -1.6057   -2.7035    6.0886 H   0  0  0  0  0  0  0  0  0  0  0  0
   -0.5653   -2.8594    7.5058 H   0  0  0  0  0  0  0  0  0  0  0  0
    0.7417   -2.3628    3.9770 H   0  0  0  0  0  0  0  0  0  0  0  0
   -0.8049   -1.5816    4.0700 H   0  0  0  0  0  0  0  0  0  0  0  0
    1.9103   -0.2003    4.0107 H   0  0  0  0  0  0  0  0  0  0  0  0
    1.0375    0.5086    2.0253 H   0  0  0  0  0  0  0  0  0  0  0  0
  1  2  1  0
  1 22  1  0
  1 23  1  0
  1 24  1  0
  2  6  1  0
  2  3  2  0
  4  3  1  1
  3 25  1  0
  4 14  1  0
  4 20  1  0
  4  5  1  0
  5  6  1  0
  5 26  1  0
  5 27  1  0
  6  7  1  0
  6 28  1  6
  7  8  1  0
  7 29  1  0
  7 30  1  0
  8 13  1  0
  8  9  1  0
  8 31  1  6
  9 10  1  0
 10 11  2  0
 10 12  1  0
 12 13  2  0
 12 32  1  0
 13 14  1  0
 14 15  1  0
 14 33  1  6
 15 16  1  0
 15 34  1  0
 15 35  1  0
 16 17  1  0
 16 18  1  0
 16 19  1  0
 17 36  1  0
 17 37  1  0
 17 38  1  0
 18 39  1  0
 18 40  1  0
 18 41  1  0
 19 20  1  0
 19 42  1  0
 19 43  1  0
 20 21  1  0
 20 44  1  6
 21 45  1  0
M  END
>  <i_m_ct_stereo_status>  (95) 
1

>  <s_m_source_file>  (95) 
/var/tmp/pbs.5076255.sched01/tmpscvaj2_a/3886avry94.sdf

>  <i_m_source_file_index>  (95) 
7

>  <i_lp_mmshare_version>  (95) 
48012

>  <i_f3d_flags>  (95) 
0

>  <s_epik_input>  (95) 
W0NIM11DKD1bQ0hdMSlbQ0BIXShbQ0gyXTIpW0NIMl1bQ0BIXShPQyg9TylbQ0hdPTMpQzNbQ0BIXShbQ0BAXTEyNClbQ0gyXUMoW0NIM10pKFtDSDNdKVtDSDJdW0NASF00W09IXQ==

>  <s_epik_cmdline>  (95) 
J2VwaWtfcHl0aG9uJywgJy1waHQnLCAnMi4wJywgJy1waCcsICc3LjAnLCAnLXRuJywgJzgnLCAnLW1hJywgJzIwMCcsICctaW1hZScsICc8aW5maWxlLm1hZT4nLCAnLW9tYWUnLCAnPG91dGZpbGUubWFlPic=

>  <r_lp_tautomer_probability>  (95) 
1

>  <r_epik_Ionization_Penalty>  (95) 
1.95487e-07

>  <r_epik_Ionization_Penalty_Charging>  (95) 
0

>  <r_epik_Ionization_Penalty_Neutral>  (95) 
1.95487e-07

>  <r_epik_State_Penalty>  (95) 
-0

>  <r_epik_Charging_Adjusted_Penalty>  (95) 
0

>  <i_epik_Tot_Q>  (95) 
0

>  <i_epik_Tot_abs_Q>  (95) 
0

>  <s_epik_Chemistry_Notes>  (95) 
This compound has an ester and may undergo hydrolysis at high or low pH.

>  <s_lp_Force_Field>  (95) 
OPLS3e

>  <r_lp_Energy>  (95) 
19.802

>  <b_lp_Chiralities_Consistent>  (95) 
1

>  <s_lp_Variant>  (95) 
36:0-1

>  <s_i_glide_gridfile>  (95) 
pfpi4k_grid

>  <i_i_glide_lignum>  (95) 
7

>  <i_i_glide_rotatable_bonds>  (95) 
1

>  <r_i_docking_score>  (95) 
-2.14413

>  <r_i_glide_ligand_efficiency>  (95) 
-0.102101

>  <r_i_glide_ligand_efficiency_sa>  (95) 
-0.28169

>  <r_i_glide_ligand_efficiency_ln>  (95) 
-0.530131

>  <r_i_glide_gscore>  (95) 
-2.14413

>  <r_i_glide_lipo>  (95) 
0

>  <r_i_glide_hbond>  (95) 
0

>  <r_i_glide_metal>  (95) 
-0

>  <r_i_glide_rewards>  (95) 
-1.44285

>  <r_i_glide_evdw>  (95) 
-18.359

>  <r_i_glide_ecoul>  (95) 
1.44517

>  <r_i_glide_erotb>  (95) 
0

>  <r_i_glide_esite>  (95) 
-9.92236e-05

>  <r_i_glide_emodel>  (95) 
-19.3217

>  <r_i_glide_energy>  (95) 
-16.9138

>  <r_i_glide_einternal>  (95) 
0.346729

>  <r_i_glide_intrahb_reward>  (95) 
-0

>  <i_i_glide_confnum>  (95) 
1

>  <i_i_glide_posenum>  (95) 
1

>  <r_i_glide_eff_state_penalty>  (95) 
0

>  <ligand_id>  (95) 
36

>  <original_smiles>  (95) 
CC1=CC23CC1CC1OC(=O)C=C1C2CC(C)(C)CC3O

>  <smiles>  (95) 
[H]OC1([H])C([H])([H])C(C([H])([H])[H])(C([H])([H])[H])C([H])([H])C2([H])C3=C([H])C(=O)OC3([H])C([H])([H])C3([H])C(C([H])([H])[H])=C([H])C12C3([H])[H]

$$$$
37:0:0
     RDKit          3D

 47 51  0  0  1  0  0  0  0  0999 V2000
    3.8728   -1.6650   -0.0332 C   0  0  0  0  0  0  0  0  0  0  0  0
    5.0759   -2.2167    0.5827 N   0  0  0  0  0  0  0  0  0  0  0  0
    6.2007   -1.3945    0.5590 C   0  0  0  0  0  0  0  0  0  0  0  0
    7.4395   -1.8599    0.3298 C   0  0  0  0  0  0  0  0  0  0  0  0
    7.6193   -3.2781    0.0897 C   0  0  0  0  0  0  0  0  0  0  0  0
    6.5902   -4.1166    0.3105 C   0  0  0  0  0  0  0  0  0  0  0  0
    5.2830   -3.6061    0.7459 C   0  0  0  0  0  0  0  0  0  0  0  0
    4.3236   -4.4170    1.2782 C   0  0  0  0  0  0  0  0  0  0  0  0
    2.8077   -3.8282    1.9639 S   0  0  0  0  0  0  0  0  0  0  0  0
    2.2102   -5.4803    2.2431 C   0  0  0  0  0  0  0  0  0  0  0  0
    3.2467   -6.3755    2.0017 N   0  0  0  0  0  0  0  0  0  0  0  0
    4.3916   -5.8775    1.4881 C   0  0  0  0  0  0  0  0  0  0  0  0
    5.3555   -6.6063    1.2536 O   0  0  0  0  0  0  0  0  0  0  0  0
    3.0879   -7.7976    2.4042 C   0  0  1  0  0  0  0  0  0  0  0  0
    3.9146   -8.1183    3.6461 C   0  0  0  0  0  0  0  0  0  0  0  0
    3.7623   -7.3368    4.8123 C   0  0  0  0  0  0  0  0  0  0  0  0
    4.5043   -7.6301    5.9704 C   0  0  0  0  0  0  0  0  0  0  0  0
    5.4052   -8.7115    5.9710 C   0  0  0  0  0  0  0  0  0  0  0  0
    5.5593   -9.5000    4.8134 C   0  0  0  0  0  0  0  0  0  0  0  0
    4.8162   -9.2053    3.6519 C   0  0  0  0  0  0  0  0  0  0  0  0
    1.6164   -8.1523    2.6367 C   0  0  0  0  0  0  0  0  0  0  0  0
    0.6763   -7.1851    2.7499 C   0  0  0  0  0  0  0  0  0  0  0  0
   -0.7979   -7.4702    2.9620 C   0  0  0  0  0  0  0  0  0  0  0  0
   -1.1980   -8.8219    2.3733 C   0  0  0  0  0  0  0  0  0  0  0  0
   -0.2547   -9.9268    2.8803 C   0  0  0  0  0  0  0  0  0  0  0  0
    1.2266   -9.5837    2.6834 C   0  0  0  0  0  0  0  0  0  0  0  0
    2.0311  -10.5073    2.5922 O   0  0  0  0  0  0  0  0  0  0  0  0
    1.0258   -5.8479    2.6111 N   0  0  0  0  0  0  0  0  0  0  0  0
    4.1415   -1.0363   -0.8812 H   0  0  0  0  0  0  0  0  0  0  0  0
    3.3077   -1.0563    0.6735 H   0  0  0  0  0  0  0  0  0  0  0  0
    3.2207   -2.4468   -0.4178 H   0  0  0  0  0  0  0  0  0  0  0  0
    5.9992   -0.3500    0.7680 H   0  0  0  0  0  0  0  0  0  0  0  0
    8.2941   -1.1988    0.3453 H   0  0  0  0  0  0  0  0  0  0  0  0
    8.5611   -3.6573   -0.2754 H   0  0  0  0  0  0  0  0  0  0  0  0
    6.7456   -5.1580    0.0915 H   0  0  0  0  0  0  0  0  0  0  0  0
    3.4383   -8.4049    1.5680 H   0  0  0  0  0  0  0  0  0  0  0  0
    3.0650   -6.5125    4.8238 H   0  0  0  0  0  0  0  0  0  0  0  0
    4.3795   -7.0205    6.8528 H   0  0  0  0  0  0  0  0  0  0  0  0
    5.9717   -8.9370    6.8614 H   0  0  0  0  0  0  0  0  0  0  0  0
    6.2442  -10.3355    4.8157 H   0  0  0  0  0  0  0  0  0  0  0  0
    4.9338   -9.8254    2.7742 H   0  0  0  0  0  0  0  0  0  0  0  0
   -1.0017   -7.4568    4.0338 H   0  0  0  0  0  0  0  0  0  0  0  0
   -1.3932   -6.6873    2.5017 H   0  0  0  0  0  0  0  0  0  0  0  0
   -2.2291   -9.0630    2.6416 H   0  0  0  0  0  0  0  0  0  0  0  0
   -1.1715   -8.7559    1.2842 H   0  0  0  0  0  0  0  0  0  0  0  0
   -0.4112  -10.0943    3.9485 H   0  0  0  0  0  0  0  0  0  0  0  0
   -0.4634  -10.8558    2.3513 H   0  0  0  0  0  0  0  0  0  0  0  0
  1  2  1  0
  1 29  1  0
  1 30  1  0
  1 31  1  0
  2  7  1  0
  2  3  1  0
  3  4  2  0
  3 32  1  0
  4  5  1  0
  4 33  1  0
  5  6  2  0
  5 34  1  0
  6  7  1  0
  6 35  1  0
  7  8  2  3
  8 12  1  0
  8  9  1  0
  9 10  1  0
 10 28  2  0
 10 11  1  0
 11 12  1  0
 11 14  1  0
 12 13  2  0
 14 15  1  0
 14 21  1  0
 14 36  1  6
 15 20  1  0
 15 16  2  0
 16 17  1  0
 16 37  1  0
 17 18  2  0
 17 38  1  0
 18 19  1  0
 18 39  1  0
 19 20  2  0
 19 40  1  0
 20 41  1  0
 21 26  1  0
 21 22  2  0
 22 23  1  0
 22 28  1  0
 23 24  1  0
 23 42  1  0
 23 43  1  0
 24 25  1  0
 24 44  1  0
 24 45  1  0
 25 26  1  0
 25 46  1  0
 25 47  1  0
 26 27  2  0
M  END
>  <i_m_ct_stereo_status>  (96) 
1

>  <s_m_source_file>  (96) 
/var/tmp/pbs.5076255.sched01/tmpscvaj2_a/3886avry94.sdf

>  <i_m_source_file_index>  (96) 
8

>  <i_lp_mmshare_version>  (96) 
48012

>  <i_f3d_flags>  (96) 
0

>  <s_epik_input>  (96) 
W0NIM11OMVtDSF09W0NIXVtDSF09W0NIXUNcMT1jKFxzMiljKD1PKW4oYzI9MylbQ0BASF0oYzRbY0hdW2NIXVtjSF1bY0hdW2NIXTQpQzU9QyhOMylbQ0gyXVtDSDJdW0NIMl1DNT1P

>  <s_epik_cmdline>  (96) 
J2VwaWtfcHl0aG9uJywgJy1waHQnLCAnMi4wJywgJy1waCcsICc3LjAnLCAnLXRuJywgJzgnLCAnLW1hJywgJzIwMCcsICctaW1hZScsICc8aW5maWxlLm1hZT4nLCAnLW9tYWUnLCAnPG91dGZpbGUubWFlPic=

>  <r_lp_tautomer_probability>  (96) 
1

>  <r_epik_Ionization_Penalty>  (96) 
5.11525e-09

>  <r_epik_Ionization_Penalty_Charging>  (96) 
0

>  <r_epik_Ionization_Penalty_Neutral>  (96) 
5.11525e-09

>  <r_epik_State_Penalty>  (96) 
-0

>  <r_epik_Charging_Adjusted_Penalty>  (96) 
0

>  <i_epik_Tot_Q>  (96) 
0

>  <i_epik_Tot_abs_Q>  (96) 
0

>  <s_epik_Chemistry_Notes>  (96) 
This compound has an imine and may undergo hydrolysis.

>  <s_lp_Force_Field>  (96) 
OPLS3e

>  <r_lp_Energy>  (96) 
70.2391

>  <b_lp_Chiralities_Consistent>  (96) 
1

>  <s_lp_Variant>  (96) 
37:0-1

>  <s_i_glide_gridfile>  (96) 
pfpi4k_grid

>  <i_i_glide_lignum>  (96) 
8

>  <i_i_glide_rotatable_bonds>  (96) 
1

>  <r_i_docking_score>  (96) 
-3.03498

>  <r_i_glide_ligand_efficiency>  (96) 
-0.108392

>  <r_i_glide_ligand_efficiency_sa>  (96) 
-0.329142

>  <r_i_glide_ligand_efficiency_ln>  (96) 
-0.700562

>  <r_i_glide_gscore>  (96) 
-3.03498

>  <r_i_glide_lipo>  (96) 
-0.628903

>  <r_i_glide_hbond>  (96) 
0

>  <r_i_glide_metal>  (96) 
-0

>  <r_i_glide_rewards>  (96) 
-0.927702

>  <r_i_glide_evdw>  (96) 
-28.1334

>  <r_i_glide_ecoul>  (96) 
-1.33479

>  <r_i_glide_erotb>  (96) 
0.128518

>  <r_i_glide_esite>  (96) 
0

>  <r_i_glide_emodel>  (96) 
-35.1342

>  <r_i_glide_energy>  (96) 
-29.4682

>  <r_i_glide_einternal>  (96) 
0.00773883

>  <r_i_glide_intrahb_reward>  (96) 
-0

>  <i_i_glide_confnum>  (96) 
3

>  <i_i_glide_posenum>  (96) 
40

>  <r_i_glide_eff_state_penalty>  (96) 
0

>  <ligand_id>  (96) 
37

>  <original_smiles>  (96) 
CN1C=CC=CC1=c1sc2n(c1=O)C(c1ccccc1)C1=C(CCCC1=O)N=2

>  <smiles>  (96) 
[H]C1=C([H])C(=c2sc3n(c2=O)C([H])(c2c([H])c([H])c([H])c([H])c2[H])C2=C(N=3)C([H])([H])C([H])([H])C([H])([H])C2=O)N(C([H])([H])[H])C([H])=C1[H]

$$$$
37:0:1
     RDKit          3D

 47 51  0  0  1  0  0  0  0  0999 V2000
    2.3053   -7.9962    2.1589 C   0  0  0  0  0  0  0  0  0  0  0  0
    2.1361   -8.2495    3.5852 N   0  0  0  0  0  0  0  0  0  0  0  0
    2.5063   -9.5204    4.0212 C   0  0  0  0  0  0  0  0  0  0  0  0
    1.8089  -10.2087    4.9398 C   0  0  0  0  0  0  0  0  0  0  0  0
    0.6166   -9.6104    5.5042 C   0  0  0  0  0  0  0  0  0  0  0  0
    0.3504   -8.3171    5.2545 C   0  0  0  0  0  0  0  0  0  0  0  0
    1.2359   -7.5190    4.3913 C   0  0  0  0  0  0  0  0  0  0  0  0
    1.2030   -6.1545    4.3670 C   0  0  0  0  0  0  0  0  0  0  0  0
    2.3403   -5.1485    3.4665 S   0  0  0  0  0  0  0  0  0  0  0  0
    1.4889   -3.6530    3.9214 C   0  0  0  0  0  0  0  0  0  0  0  0
    0.5254   -3.9588    4.8774 N   0  0  0  0  0  0  0  0  0  0  0  0
    0.3085   -5.2687    5.1367 C   0  0  0  0  0  0  0  0  0  0  0  0
   -0.5694   -5.6310    5.9207 O   0  0  0  0  0  0  0  0  0  0  0  0
   -0.1887   -2.8466    5.5623 C   0  0  1  0  0  0  0  0  0  0  0  0
    0.2832   -2.7013    7.0053 C   0  0  0  0  0  0  0  0  0  0  0  0
    1.3564   -1.8358    7.3123 C   0  0  0  0  0  0  0  0  0  0  0  0
    1.8090   -1.7041    8.6350 C   0  0  0  0  0  0  0  0  0  0  0  0
    1.2088   -2.4574    9.6615 C   0  0  0  0  0  0  0  0  0  0  0  0
    0.1453   -3.3322    9.3639 C   0  0  0  0  0  0  0  0  0  0  0  0
   -0.3222   -3.4490    8.0410 C   0  0  0  0  0  0  0  0  0  0  0  0
   -0.0665   -1.5272    4.7875 C   0  0  0  0  0  0  0  0  0  0  0  0
    0.8639   -1.3875    3.8155 C   0  0  0  0  0  0  0  0  0  0  0  0
    1.0627   -0.1047    3.0310 C   0  0  0  0  0  0  0  0  0  0  0  0
   -0.2250    0.7199    2.9626 C   0  0  0  0  0  0  0  0  0  0  0  0
   -0.8165    0.9242    4.3691 C   0  0  0  0  0  0  0  0  0  0  0  0
   -0.9809   -0.3999    5.1270 C   0  0  0  0  0  0  0  0  0  0  0  0
   -1.8403   -0.4604    6.0119 O   0  0  0  0  0  0  0  0  0  0  0  0
    1.6728   -2.4607    3.4559 N   0  0  0  0  0  0  0  0  0  0  0  0
    2.1177   -8.9089    1.5940 H   0  0  0  0  0  0  0  0  0  0  0  0
    3.3183   -7.6578    1.9357 H   0  0  0  0  0  0  0  0  0  0  0  0
    1.5998   -7.2516    1.7980 H   0  0  0  0  0  0  0  0  0  0  0  0
    3.4138   -9.9044    3.5720 H   0  0  0  0  0  0  0  0  0  0  0  0
    2.1254  -11.1902    5.2649 H   0  0  0  0  0  0  0  0  0  0  0  0
   -0.0647  -10.2084    6.0921 H   0  0  0  0  0  0  0  0  0  0  0  0
   -0.5677   -7.9268    5.6516 H   0  0  0  0  0  0  0  0  0  0  0  0
   -1.2525   -3.0726    5.5779 H   0  0  0  0  0  0  0  0  0  0  0  0
    1.8420   -1.2609    6.5366 H   0  0  0  0  0  0  0  0  0  0  0  0
    2.6257   -1.0318    8.8468 H   0  0  0  0  0  0  0  0  0  0  0  0
    1.5712   -2.3655   10.6736 H   0  0  0  0  0  0  0  0  0  0  0  0
   -0.3061   -3.9245   10.1471 H   0  0  0  0  0  0  0  0  0  0  0  0
   -1.1378   -4.1268    7.8334 H   0  0  0  0  0  0  0  0  0  0  0  0
    1.8488    0.4754    3.5175 H   0  0  0  0  0  0  0  0  0  0  0  0
    1.4039   -0.3427    2.0256 H   0  0  0  0  0  0  0  0  0  0  0  0
   -0.0270    1.6851    2.4897 H   0  0  0  0  0  0  0  0  0  0  0  0
   -0.9451    0.2078    2.3238 H   0  0  0  0  0  0  0  0  0  0  0  0
   -0.1586    1.5659    4.9612 H   0  0  0  0  0  0  0  0  0  0  0  0
   -1.7866    1.4209    4.2949 H   0  0  0  0  0  0  0  0  0  0  0  0
  1  2  1  0
  1 29  1  0
  1 30  1  0
  1 31  1  0
  2  7  1  0
  2  3  1  0
  3  4  2  0
  3 32  1  0
  4  5  1  0
  4 33  1  0
  5  6  2  0
  5 34  1  0
  6  7  1  0
  6 35  1  0
  7  8  2  3
  8 12  1  0
  8  9  1  0
  9 10  1  0
 10 28  2  0
 10 11  1  0
 11 12  1  0
 11 14  1  0
 12 13  2  0
 14 15  1  0
 14 21  1  0
 14 36  1  1
 15 20  1  0
 15 16  2  0
 16 17  1  0
 16 37  1  0
 17 18  2  0
 17 38  1  0
 18 19  1  0
 18 39  1  0
 19 20  2  0
 19 40  1  0
 20 41  1  0
 21 26  1  0
 21 22  2  0
 22 23  1  0
 22 28  1  0
 23 24  1  0
 23 42  1  0
 23 43  1  0
 24 25  1  0
 24 44  1  0
 24 45  1  0
 25 26  1  0
 25 46  1  0
 25 47  1  0
 26 27  2  0
M  END
>  <i_m_ct_stereo_status>  (97) 
1

>  <s_m_source_file>  (97) 
/var/tmp/pbs.5076255.sched01/tmpscvaj2_a/3886avry94.sdf

>  <i_m_source_file_index>  (97) 
8

>  <i_lp_mmshare_version>  (97) 
48012

>  <i_f3d_flags>  (97) 
0

>  <s_epik_input>  (97) 
W0NIM11OMVtDSF09W0NIXVtDSF09W0NIXUNcMT1jKFxzMiljKD1PKW4oYzI9MylbQ0BASF0oYzRbY0hdW2NIXVtjSF1bY0hdW2NIXTQpQzU9QyhOMylbQ0gyXVtDSDJdW0NIMl1DNT1P

>  <s_epik_cmdline>  (97) 
J2VwaWtfcHl0aG9uJywgJy1waHQnLCAnMi4wJywgJy1waCcsICc3LjAnLCAnLXRuJywgJzgnLCAnLW1hJywgJzIwMCcsICctaW1hZScsICc8aW5maWxlLm1hZT4nLCAnLW9tYWUnLCAnPG91dGZpbGUubWFlPic=

>  <r_lp_tautomer_probability>  (97) 
1

>  <r_epik_Ionization_Penalty>  (97) 
5.11525e-09

>  <r_epik_Ionization_Penalty_Charging>  (97) 
0

>  <r_epik_Ionization_Penalty_Neutral>  (97) 
5.11525e-09

>  <r_epik_State_Penalty>  (97) 
-0

>  <r_epik_Charging_Adjusted_Penalty>  (97) 
0

>  <i_epik_Tot_Q>  (97) 
0

>  <i_epik_Tot_abs_Q>  (97) 
0

>  <s_epik_Chemistry_Notes>  (97) 
This compound has an imine and may undergo hydrolysis.

>  <s_lp_Force_Field>  (97) 
OPLS3e

>  <r_lp_Energy>  (97) 
70.2391

>  <b_lp_Chiralities_Consistent>  (97) 
1

>  <s_lp_Variant>  (97) 
37:0-1

>  <s_i_glide_gridfile>  (97) 
pfpi4k_grid

>  <i_i_glide_lignum>  (97) 
8

>  <i_i_glide_rotatable_bonds>  (97) 
1

>  <r_i_docking_score>  (97) 
-2.77439

>  <r_i_glide_ligand_efficiency>  (97) 
-0.0990853

>  <r_i_glide_ligand_efficiency_sa>  (97) 
-0.300881

>  <r_i_glide_ligand_efficiency_ln>  (97) 
-0.64041

>  <r_i_glide_gscore>  (97) 
-2.77439

>  <r_i_glide_lipo>  (97) 
-0.014483

>  <r_i_glide_hbond>  (97) 
-0.124997

>  <r_i_glide_metal>  (97) 
-0

>  <r_i_glide_rewards>  (97) 
-0.753606

>  <r_i_glide_evdw>  (97) 
-23.663

>  <r_i_glide_ecoul>  (97) 
-5.24275

>  <r_i_glide_erotb>  (97) 
0.128518

>  <r_i_glide_esite>  (97) 
-0.0402579

>  <r_i_glide_emodel>  (97) 
-33.4785

>  <r_i_glide_energy>  (97) 
-28.9058

>  <r_i_glide_einternal>  (97) 
1.03869

>  <r_i_glide_intrahb_reward>  (97) 
-0

>  <i_i_glide_confnum>  (97) 
4

>  <i_i_glide_posenum>  (97) 
37

>  <r_i_glide_eff_state_penalty>  (97) 
0

>  <ligand_id>  (97) 
37

>  <original_smiles>  (97) 
CN1C=CC=CC1=c1sc2n(c1=O)C(c1ccccc1)C1=C(CCCC1=O)N=2

>  <smiles>  (97) 
[H]C1=C([H])C(=c2sc3n(c2=O)C([H])(c2c([H])c([H])c([H])c([H])c2[H])C2=C(N=3)C([H])([H])C([H])([H])C([H])([H])C2=O)N(C([H])([H])[H])C([H])=C1[H]

$$$$
37:0:2
     RDKit          3D

 47 51  0  0  1  0  0  0  0  0999 V2000
    3.9528   -1.3137    0.9503 C   0  0  0  0  0  0  0  0  0  0  0  0
    5.1585   -2.1256    1.0784 N   0  0  0  0  0  0  0  0  0  0  0  0
    6.3622   -1.4592    0.8615 C   0  0  0  0  0  0  0  0  0  0  0  0
    7.3959   -2.0118    0.2066 C   0  0  0  0  0  0  0  0  0  0  0  0
    7.2532   -3.3590   -0.3105 C   0  0  0  0  0  0  0  0  0  0  0  0
    6.1881   -4.0922    0.0599 C   0  0  0  0  0  0  0  0  0  0  0  0
    5.1538   -3.5314    0.9384 C   0  0  0  0  0  0  0  0  0  0  0  0
    4.2385   -4.3162    1.5786 C   0  0  0  0  0  0  0  0  0  0  0  0
    3.0741   -3.7086    2.7570 S   0  0  0  0  0  0  0  0  0  0  0  0
    2.2974   -5.3001    2.9170 C   0  0  0  0  0  0  0  0  0  0  0  0
    3.0581   -6.2423    2.2325 N   0  0  0  0  0  0  0  0  0  0  0  0
    4.1004   -5.7860    1.5036 C   0  0  0  0  0  0  0  0  0  0  0  0
    4.8274   -6.5608    0.8780 O   0  0  0  0  0  0  0  0  0  0  0  0
    2.7745   -7.6912    2.4235 C   0  0  1  0  0  0  0  0  0  0  0  0
    3.8351   -8.3511    3.3019 C   0  0  0  0  0  0  0  0  0  0  0  0
    4.4800   -9.5429    2.9004 C   0  0  0  0  0  0  0  0  0  0  0  0
    5.4476  -10.1357    3.7387 C   0  0  0  0  0  0  0  0  0  0  0  0
    5.7743   -9.5428    4.9762 C   0  0  0  0  0  0  0  0  0  0  0  0
    5.1275   -8.3607    5.3809 C   0  0  0  0  0  0  0  0  0  0  0  0
    4.1615   -7.7728    4.5483 C   0  0  0  0  0  0  0  0  0  0  0  0
    1.3790   -7.9117    3.0200 C   0  0  0  0  0  0  0  0  0  0  0  0
    0.6920   -6.8833    3.5700 C   0  0  0  0  0  0  0  0  0  0  0  0
   -0.6966   -7.0312    4.1615 C   0  0  0  0  0  0  0  0  0  0  0  0
   -1.4766   -8.1620    3.4844 C   0  0  0  0  0  0  0  0  0  0  0  0
   -0.6498   -9.4569    3.4974 C   0  0  0  0  0  0  0  0  0  0  0  0
    0.7619   -9.2638    2.9375 C   0  0  0  0  0  0  0  0  0  0  0  0
    1.3333  -10.2491    2.4810 O   0  0  0  0  0  0  0  0  0  0  0  0
    1.2137   -5.5955    3.5579 N   0  0  0  0  0  0  0  0  0  0  0  0
    4.0923   -0.5550    0.1819 H   0  0  0  0  0  0  0  0  0  0  0  0
    3.7155   -0.8100    1.8879 H   0  0  0  0  0  0  0  0  0  0  0  0
    3.0942   -1.9102    0.6459 H   0  0  0  0  0  0  0  0  0  0  0  0
    6.4089   -0.4679    1.2946 H   0  0  0  0  0  0  0  0  0  0  0  0
    8.3276   -1.4758    0.0861 H   0  0  0  0  0  0  0  0  0  0  0  0
    7.9807   -3.7628   -0.9993 H   0  0  0  0  0  0  0  0  0  0  0  0
    6.0851   -5.0712   -0.3673 H   0  0  0  0  0  0  0  0  0  0  0  0
    2.7794   -8.1506    1.4330 H   0  0  0  0  0  0  0  0  0  0  0  0
    4.2303  -10.0179    1.9607 H   0  0  0  0  0  0  0  0  0  0  0  0
    5.9377  -11.0490    3.4324 H   0  0  0  0  0  0  0  0  0  0  0  0
    6.5150   -9.9952    5.6189 H   0  0  0  0  0  0  0  0  0  0  0  0
    5.3660   -7.8979    6.3275 H   0  0  0  0  0  0  0  0  0  0  0  0
    3.6633   -6.8744    4.8776 H   0  0  0  0  0  0  0  0  0  0  0  0
   -0.5965   -7.2285    5.2294 H   0  0  0  0  0  0  0  0  0  0  0  0
   -1.2370   -6.0964    4.0671 H   0  0  0  0  0  0  0  0  0  0  0  0
   -2.4222   -8.3277    4.0030 H   0  0  0  0  0  0  0  0  0  0  0  0
   -1.7251   -7.8794    2.4592 H   0  0  0  0  0  0  0  0  0  0  0  0
   -0.5320   -9.8123    4.5241 H   0  0  0  0  0  0  0  0  0  0  0  0
   -1.1642  -10.2397    2.9385 H   0  0  0  0  0  0  0  0  0  0  0  0
  1  2  1  0
  1 29  1  0
  1 30  1  0
  1 31  1  0
  2  7  1  0
  2  3  1  0
  3  4  2  0
  3 32  1  0
  4  5  1  0
  4 33  1  0
  5  6  2  0
  5 34  1  0
  6  7  1  0
  6 35  1  0
  7  8  2  3
  8 12  1  0
  8  9  1  0
  9 10  1  0
 10 28  2  0
 10 11  1  0
 11 12  1  0
 11 14  1  0
 12 13  2  0
 14 15  1  0
 14 21  1  0
 14 36  1  6
 15 20  1  0
 15 16  2  0
 16 17  1  0
 16 37  1  0
 17 18  2  0
 17 38  1  0
 18 19  1  0
 18 39  1  0
 19 20  2  0
 19 40  1  0
 20 41  1  0
 21 26  1  0
 21 22  2  0
 22 23  1  0
 22 28  1  0
 23 24  1  0
 23 42  1  0
 23 43  1  0
 24 25  1  0
 24 44  1  0
 24 45  1  0
 25 26  1  0
 25 46  1  0
 25 47  1  0
 26 27  2  0
M  END
>  <i_m_ct_stereo_status>  (98) 
1

>  <s_m_source_file>  (98) 
/var/tmp/pbs.5076255.sched01/tmpscvaj2_a/3886avry94.sdf

>  <i_m_source_file_index>  (98) 
8

>  <i_lp_mmshare_version>  (98) 
48012

>  <i_f3d_flags>  (98) 
0

>  <s_epik_input>  (98) 
W0NIM11OMVtDSF09W0NIXVtDSF09W0NIXUNcMT1jKFxzMiljKD1PKW4oYzI9MylbQ0BASF0oYzRbY0hdW2NIXVtjSF1bY0hdW2NIXTQpQzU9QyhOMylbQ0gyXVtDSDJdW0NIMl1DNT1P

>  <s_epik_cmdline>  (98) 
J2VwaWtfcHl0aG9uJywgJy1waHQnLCAnMi4wJywgJy1waCcsICc3LjAnLCAnLXRuJywgJzgnLCAnLW1hJywgJzIwMCcsICctaW1hZScsICc8aW5maWxlLm1hZT4nLCAnLW9tYWUnLCAnPG91dGZpbGUubWFlPic=

>  <r_lp_tautomer_probability>  (98) 
1

>  <r_epik_Ionization_Penalty>  (98) 
5.11525e-09

>  <r_epik_Ionization_Penalty_Charging>  (98) 
0

>  <r_epik_Ionization_Penalty_Neutral>  (98) 
5.11525e-09

>  <r_epik_State_Penalty>  (98) 
-0

>  <r_epik_Charging_Adjusted_Penalty>  (98) 
0

>  <i_epik_Tot_Q>  (98) 
0

>  <i_epik_Tot_abs_Q>  (98) 
0

>  <s_epik_Chemistry_Notes>  (98) 
This compound has an imine and may undergo hydrolysis.

>  <s_lp_Force_Field>  (98) 
OPLS3e

>  <r_lp_Energy>  (98) 
70.2391

>  <b_lp_Chiralities_Consistent>  (98) 
1

>  <s_lp_Variant>  (98) 
37:0-1

>  <s_i_glide_gridfile>  (98) 
pfpi4k_grid

>  <i_i_glide_lignum>  (98) 
8

>  <i_i_glide_rotatable_bonds>  (98) 
1

>  <r_i_docking_score>  (98) 
-2.65391

>  <r_i_glide_ligand_efficiency>  (98) 
-0.0947826

>  <r_i_glide_ligand_efficiency_sa>  (98) 
-0.287816

>  <r_i_glide_ligand_efficiency_ln>  (98) 
-0.612601

>  <r_i_glide_gscore>  (98) 
-2.65391

>  <r_i_glide_lipo>  (98) 
-0.43073

>  <r_i_glide_hbond>  (98) 
0

>  <r_i_glide_metal>  (98) 
-0

>  <r_i_glide_rewards>  (98) 
-0.826232

>  <r_i_glide_evdw>  (98) 
-28.4123

>  <r_i_glide_ecoul>  (98) 
-0.627366

>  <r_i_glide_erotb>  (98) 
0.128518

>  <r_i_glide_esite>  (98) 
-0.0107467

>  <r_i_glide_emodel>  (98) 
-33.8516

>  <r_i_glide_energy>  (98) 
-29.0397

>  <r_i_glide_einternal>  (98) 
0.152084

>  <r_i_glide_intrahb_reward>  (98) 
-0

>  <i_i_glide_confnum>  (98) 
2

>  <i_i_glide_posenum>  (98) 
11

>  <r_i_glide_eff_state_penalty>  (98) 
0

>  <ligand_id>  (98) 
37

>  <original_smiles>  (98) 
CN1C=CC=CC1=c1sc2n(c1=O)C(c1ccccc1)C1=C(CCCC1=O)N=2

>  <smiles>  (98) 
[H]C1=C([H])C(=c2sc3n(c2=O)C([H])(c2c([H])c([H])c([H])c([H])c2[H])C2=C(N=3)C([H])([H])C([H])([H])C([H])([H])C2=O)N(C([H])([H])[H])C([H])=C1[H]

$$$$
37:1:0
     RDKit          3D

 47 51  0  0  1  0  0  0  0  0999 V2000
    0.4578   -8.5343    5.9554 C   0  0  0  0  0  0  0  0  0  0  0  0
    0.6846   -8.4650    4.5186 N   0  0  0  0  0  0  0  0  0  0  0  0
    0.4639   -9.6557    3.8352 C   0  0  0  0  0  0  0  0  0  0  0  0
    1.3476  -10.1764    2.9684 C   0  0  0  0  0  0  0  0  0  0  0  0
    2.5868   -9.4669    2.7139 C   0  0  0  0  0  0  0  0  0  0  0  0
    2.7311   -8.2209    3.1987 C   0  0  0  0  0  0  0  0  0  0  0  0
    1.6624   -7.6006    3.9935 C   0  0  0  0  0  0  0  0  0  0  0  0
    1.6748   -6.2552    4.1800 C   0  0  0  0  0  0  0  0  0  0  0  0
    2.9695   -5.1940    3.6311 S   0  0  0  0  0  0  0  0  0  0  0  0
    2.1308   -3.7424    4.2409 C   0  0  0  0  0  0  0  0  0  0  0  0
    0.9331   -4.1284    4.8414 N   0  0  0  0  0  0  0  0  0  0  0  0
    0.6089   -5.4383    4.7812 C   0  0  0  0  0  0  0  0  0  0  0  0
   -0.4886   -5.8547    5.1591 O   0  0  0  0  0  0  0  0  0  0  0  0
    0.0891   -3.1106    5.5202 C   0  0  1  0  0  0  0  0  0  0  0  0
    0.0576   -3.3574    7.0272 C   0  0  0  0  0  0  0  0  0  0  0  0
    1.1599   -2.9790    7.8250 C   0  0  0  0  0  0  0  0  0  0  0  0
    1.1524   -3.2220    9.2101 C   0  0  0  0  0  0  0  0  0  0  0  0
    0.0478   -3.8568    9.8086 C   0  0  0  0  0  0  0  0  0  0  0  0
   -1.0524   -4.2456    9.0188 C   0  0  0  0  0  0  0  0  0  0  0  0
   -1.0480   -3.9961    7.6317 C   0  0  0  0  0  0  0  0  0  0  0  0
    0.5354   -1.6824    5.1886 C   0  0  0  0  0  0  0  0  0  0  0  0
    1.7126   -1.4522    4.5610 C   0  0  0  0  0  0  0  0  0  0  0  0
    2.2607   -0.0632    4.2954 C   0  0  0  0  0  0  0  0  0  0  0  0
    1.6774    0.9675    5.2677 C   0  0  0  0  0  0  0  0  0  0  0  0
    0.1416    0.8806    5.2850 C   0  0  0  0  0  0  0  0  0  0  0  0
   -0.3430   -0.5449    5.5736 C   0  0  0  0  0  0  0  0  0  0  0  0
   -1.4600   -0.6883    6.0733 O   0  0  0  0  0  0  0  0  0  0  0  0
    2.5131   -2.5122    4.1471 N   0  0  0  0  0  0  0  0  0  0  0  0
    1.0427   -9.3533    6.3740 H   0  0  0  0  0  0  0  0  0  0  0  0
   -0.5921   -8.7313    6.1650 H   0  0  0  0  0  0  0  0  0  0  0  0
    0.7547   -7.6265    6.4791 H   0  0  0  0  0  0  0  0  0  0  0  0
   -0.4852  -10.1262    4.0623 H   0  0  0  0  0  0  0  0  0  0  0  0
    1.1319  -11.1108    2.4770 H   0  0  0  0  0  0  0  0  0  0  0  0
    3.3784   -9.9426    2.1517 H   0  0  0  0  0  0  0  0  0  0  0  0
    3.6639   -7.7109    3.0129 H   0  0  0  0  0  0  0  0  0  0  0  0
   -0.9240   -3.1967    5.1335 H   0  0  0  0  0  0  0  0  0  0  0  0
    2.0177   -2.5016    7.3727 H   0  0  0  0  0  0  0  0  0  0  0  0
    2.0020   -2.9253    9.8080 H   0  0  0  0  0  0  0  0  0  0  0  0
    0.0497   -4.0464   10.8715 H   0  0  0  0  0  0  0  0  0  0  0  0
   -1.8999   -4.7344    9.4776 H   0  0  0  0  0  0  0  0  0  0  0  0
   -1.8933   -4.3087    7.0352 H   0  0  0  0  0  0  0  0  0  0  0  0
    3.3450   -0.0805    4.3881 H   0  0  0  0  0  0  0  0  0  0  0  0
    2.0268    0.2124    3.2668 H   0  0  0  0  0  0  0  0  0  0  0  0
    2.0770    0.7882    6.2686 H   0  0  0  0  0  0  0  0  0  0  0  0
    1.9962    1.9712    4.9812 H   0  0  0  0  0  0  0  0  0  0  0  0
   -0.2641    1.5592    6.0370 H   0  0  0  0  0  0  0  0  0  0  0  0
   -0.2585    1.1871    4.3140 H   0  0  0  0  0  0  0  0  0  0  0  0
  1  2  1  0
  1 29  1  0
  1 30  1  0
  1 31  1  0
  2  7  1  0
  2  3  1  0
  3  4  2  0
  3 32  1  0
  4  5  1  0
  4 33  1  0
  5  6  2  0
  5 34  1  0
  6  7  1  0
  6 35  1  0
  7  8  2  3
  8 12  1  0
  8  9  1  0
  9 10  1  0
 10 28  2  0
 10 11  1  0
 11 12  1  0
 11 14  1  0
 12 13  2  0
 14 15  1  0
 14 21  1  0
 14 36  1  6
 15 20  1  0
 15 16  2  0
 16 17  1  0
 16 37  1  0
 17 18  2  0
 17 38  1  0
 18 19  1  0
 18 39  1  0
 19 20  2  0
 19 40  1  0
 20 41  1  0
 21 26  1  0
 21 22  2  0
 22 23  1  0
 22 28  1  0
 23 24  1  0
 23 42  1  0
 23 43  1  0
 24 25  1  0
 24 44  1  0
 24 45  1  0
 25 26  1  0
 25 46  1  0
 25 47  1  0
 26 27  2  0
M  END
>  <i_m_ct_stereo_status>  (99) 
1

>  <s_m_source_file>  (99) 
/var/tmp/pbs.5076255.sched01/tmpscvaj2_a/3886avry94.sdf

>  <i_m_source_file_index>  (99) 
9

>  <i_lp_mmshare_version>  (99) 
48012

>  <i_f3d_flags>  (99) 
0

>  <s_epik_input>  (99) 
W0NIM11OMVtDSF09W0NIXVtDSF09W0NIXUNcMT1jKFxzMiljKD1PKW4oYzI9MylbQ0BASF0oYzRbY0hdW2NIXVtjSF1bY0hdW2NIXTQpQzU9QyhOMylbQ0gyXVtDSDJdW0NIMl1DNT1P

>  <s_epik_cmdline>  (99) 
J2VwaWtfcHl0aG9uJywgJy1waHQnLCAnMi4wJywgJy1waCcsICc3LjAnLCAnLXRuJywgJzgnLCAnLW1hJywgJzIwMCcsICctaW1hZScsICc8aW5maWxlLm1hZT4nLCAnLW9tYWUnLCAnPG91dGZpbGUubWFlPic=

>  <r_lp_tautomer_probability>  (99) 
1

>  <r_epik_Ionization_Penalty>  (99) 
5.11525e-09

>  <r_epik_Ionization_Penalty_Charging>  (99) 
0

>  <r_epik_Ionization_Penalty_Neutral>  (99) 
5.11525e-09

>  <r_epik_State_Penalty>  (99) 
-0

>  <r_epik_Charging_Adjusted_Penalty>  (99) 
0

>  <i_epik_Tot_Q>  (99) 
0

>  <i_epik_Tot_abs_Q>  (99) 
0

>  <s_epik_Chemistry_Notes>  (99) 
This compound has an imine and may undergo hydrolysis.

>  <s_lp_Force_Field>  (99) 
OPLS3e

>  <r_lp_Energy>  (99) 
70.1014

>  <b_lp_Chiralities_Consistent>  (99) 
1

>  <s_lp_Variant>  (99) 
37:0-2

>  <s_i_glide_gridfile>  (99) 
pfpi4k_grid

>  <i_i_glide_lignum>  (99) 
9

>  <i_i_glide_rotatable_bonds>  (99) 
1

>  <r_i_docking_score>  (99) 
-2.76383

>  <r_i_glide_ligand_efficiency>  (99) 
-0.0987081

>  <r_i_glide_ligand_efficiency_sa>  (99) 
-0.299736

>  <r_i_glide_ligand_efficiency_ln>  (99) 
-0.637972

>  <r_i_glide_gscore>  (99) 
-2.76383

>  <r_i_glide_lipo>  (99) 
-0.119411

>  <r_i_glide_hbond>  (99) 
-0.090641

>  <r_i_glide_metal>  (99) 
-0

>  <r_i_glide_rewards>  (99) 
-0.756638

>  <r_i_glide_evdw>  (99) 
-22.194

>  <r_i_glide_ecoul>  (99) 
-5.08954

>  <r_i_glide_erotb>  (99) 
0.128518

>  <r_i_glide_esite>  (99) 
-0.0525237

>  <r_i_glide_emodel>  (99) 
-32.0457

>  <r_i_glide_energy>  (99) 
-27.2835

>  <r_i_glide_einternal>  (99) 
0.468467

>  <r_i_glide_intrahb_reward>  (99) 
-0

>  <i_i_glide_confnum>  (99) 
1

>  <i_i_glide_posenum>  (99) 
10

>  <r_i_glide_eff_state_penalty>  (99) 
0

>  <ligand_id>  (99) 
37

>  <original_smiles>  (99) 
CN1C=CC=CC1=c1sc2n(c1=O)C(c1ccccc1)C1=C(CCCC1=O)N=2

>  <smiles>  (99) 
[H]C1=C([H])C(=c2sc3n(c2=O)C([H])(c2c([H])c([H])c([H])c([H])c2[H])C2=C(N=3)C([H])([H])C([H])([H])C([H])([H])C2=O)N(C([H])([H])[H])C([H])=C1[H]

$$$$
37:1:1
     RDKit          3D

 47 51  0  0  1  0  0  0  0  0999 V2000
    4.7594   -6.8481    5.3705 C   0  0  0  0  0  0  0  0  0  0  0  0
    3.3706   -6.4356    5.5219 N   0  0  0  0  0  0  0  0  0  0  0  0
    2.8262   -6.6592    6.7833 C   0  0  0  0  0  0  0  0  0  0  0  0
    1.6446   -7.2762    6.9703 C   0  0  0  0  0  0  0  0  0  0  0  0
    0.8935   -7.7262    5.8111 C   0  0  0  0  0  0  0  0  0  0  0  0
    1.2994   -7.3448    4.5867 C   0  0  0  0  0  0  0  0  0  0  0  0
    2.4921   -6.4988    4.4236 C   0  0  0  0  0  0  0  0  0  0  0  0
    2.6833   -5.8367    3.2503 C   0  0  0  0  0  0  0  0  0  0  0  0
    1.6867   -6.0674    1.8168 S   0  0  0  0  0  0  0  0  0  0  0  0
    2.6162   -4.8484    0.9003 C   0  0  0  0  0  0  0  0  0  0  0  0
    3.6381   -4.3476    1.6994 N   0  0  0  0  0  0  0  0  0  0  0  0
    3.6916   -4.8000    2.9710 C   0  0  0  0  0  0  0  0  0  0  0  0
    4.5242   -4.3676    3.7750 O   0  0  0  0  0  0  0  0  0  0  0  0
    4.6751   -3.4650    1.0908 C   0  0  1  0  0  0  0  0  0  0  0  0
    6.0342   -4.1814    0.9757 C   0  0  0  0  0  0  0  0  0  0  0  0
    6.1154   -5.5979    0.9525 C   0  0  0  0  0  0  0  0  0  0  0  0
    7.3608   -6.2439    0.8770 C   0  0  0  0  0  0  0  0  0  0  0  0
    8.5423   -5.4919    0.7662 C   0  0  0  0  0  0  0  0  0  0  0  0
    8.4768   -4.0868    0.7703 C   0  0  0  0  0  0  0  0  0  0  0  0
    7.2366   -3.4395    0.9017 C   0  0  0  0  0  0  0  0  0  0  0  0
    4.2109   -2.9048   -0.2675 C   0  0  0  0  0  0  0  0  0  0  0  0
    3.1351   -3.4305   -0.8975 C   0  0  0  0  0  0  0  0  0  0  0  0
    2.6773   -3.0038   -2.2880 C   0  0  0  0  0  0  0  0  0  0  0  0
    3.8273   -2.3744   -3.0864 C   0  0  0  0  0  0  0  0  0  0  0  0
    4.4982   -1.2603   -2.2621 C   0  0  0  0  0  0  0  0  0  0  0  0
    4.9247   -1.7400   -0.8751 C   0  0  0  0  0  0  0  0  0  0  0  0
    5.7990   -1.0784   -0.3135 O   0  0  0  0  0  0  0  0  0  0  0  0
    2.3886   -4.4425   -0.3021 N   0  0  0  0  0  0  0  0  0  0  0  0
    4.8603   -7.8905    5.6754 H   0  0  0  0  0  0  0  0  0  0  0  0
    5.4120   -6.2445    6.0044 H   0  0  0  0  0  0  0  0  0  0  0  0
    5.1176   -6.7810    4.3447 H   0  0  0  0  0  0  0  0  0  0  0  0
    3.4340   -6.2882    7.5997 H   0  0  0  0  0  0  0  0  0  0  0  0
    1.2629   -7.4301    7.9704 H   0  0  0  0  0  0  0  0  0  0  0  0
    0.0309   -8.3663    5.9331 H   0  0  0  0  0  0  0  0  0  0  0  0
    0.7353   -7.6990    3.7365 H   0  0  0  0  0  0  0  0  0  0  0  0
    4.7867   -2.6160    1.7665 H   0  0  0  0  0  0  0  0  0  0  0  0
    5.2318   -6.2186    1.0157 H   0  0  0  0  0  0  0  0  0  0  0  0
    7.4018   -7.3246    0.8883 H   0  0  0  0  0  0  0  0  0  0  0  0
    9.4856   -6.0074    0.6973 H   0  0  0  0  0  0  0  0  0  0  0  0
    9.3725   -3.4892    0.7053 H   0  0  0  0  0  0  0  0  0  0  0  0
    7.2385   -2.3648    0.9834 H   0  0  0  0  0  0  0  0  0  0  0  0
    2.2833   -3.8583   -2.8264 H   0  0  0  0  0  0  0  0  0  0  0  0
    1.8722   -2.2781   -2.1952 H   0  0  0  0  0  0  0  0  0  0  0  0
    4.5596   -3.1478   -3.3418 H   0  0  0  0  0  0  0  0  0  0  0  0
    3.4530   -1.9605   -4.0230 H   0  0  0  0  0  0  0  0  0  0  0  0
    5.3833   -0.8813   -2.7747 H   0  0  0  0  0  0  0  0  0  0  0  0
    3.8088   -0.4259   -2.1150 H   0  0  0  0  0  0  0  0  0  0  0  0
  1  2  1  0
  1 29  1  0
  1 30  1  0
  1 31  1  0
  2  7  1  0
  2  3  1  0
  3  4  2  0
  3 32  1  0
  4  5  1  0
  4 33  1  0
  5  6  2  0
  5 34  1  0
  6  7  1  0
  6 35  1  0
  7  8  2  3
  8 12  1  0
  8  9  1  0
  9 10  1  0
 10 28  2  0
 10 11  1  0
 11 12  1  0
 11 14  1  0
 12 13  2  0
 14 15  1  0
 14 21  1  0
 14 36  1  1
 15 20  1  0
 15 16  2  0
 16 17  1  0
 16 37  1  0
 17 18  2  0
 17 38  1  0
 18 19  1  0
 18 39  1  0
 19 20  2  0
 19 40  1  0
 20 41  1  0
 21 26  1  0
 21 22  2  0
 22 23  1  0
 22 28  1  0
 23 24  1  0
 23 42  1  0
 23 43  1  0
 24 25  1  0
 24 44  1  0
 24 45  1  0
 25 26  1  0
 25 46  1  0
 25 47  1  0
 26 27  2  0
M  END
>  <i_m_ct_stereo_status>  (100) 
1

>  <s_m_source_file>  (100) 
/var/tmp/pbs.5076255.sched01/tmpscvaj2_a/3886avry94.sdf

>  <i_m_source_file_index>  (100) 
9

>  <i_lp_mmshare_version>  (100) 
48012

>  <i_f3d_flags>  (100) 
0

>  <s_epik_input>  (100) 
W0NIM11OMVtDSF09W0NIXVtDSF09W0NIXUNcMT1jKFxzMiljKD1PKW4oYzI9MylbQ0BASF0oYzRbY0hdW2NIXVtjSF1bY0hdW2NIXTQpQzU9QyhOMylbQ0gyXVtDSDJdW0NIMl1DNT1P

>  <s_epik_cmdline>  (100) 
J2VwaWtfcHl0aG9uJywgJy1waHQnLCAnMi4wJywgJy1waCcsICc3LjAnLCAnLXRuJywgJzgnLCAnLW1hJywgJzIwMCcsICctaW1hZScsICc8aW5maWxlLm1hZT4nLCAnLW9tYWUnLCAnPG91dGZpbGUubWFlPic=

>  <r_lp_tautomer_probability>  (100) 
1

>  <r_epik_Ionization_Penalty>  (100) 
5.11525e-09

>  <r_epik_Ionization_Penalty_Charging>  (100) 
0

>  <r_epik_Ionization_Penalty_Neutral>  (100) 
5.11525e-09

>  <r_epik_State_Penalty>  (100) 
-0

>  <r_epik_Charging_Adjusted_Penalty>  (100) 
0

>  <i_epik_Tot_Q>  (100) 
0

>  <i_epik_Tot_abs_Q>  (100) 
0

>  <s_epik_Chemistry_Notes>  (100) 
This compound has an imine and may undergo hydrolysis.

>  <s_lp_Force_Field>  (100) 
OPLS3e

>  <r_lp_Energy>  (100) 
70.1014

>  <b_lp_Chiralities_Consistent>  (100) 
1

>  <s_lp_Variant>  (100) 
37:0-2

>  <s_i_glide_gridfile>  (100) 
pfpi4k_grid

>  <i_i_glide_lignum>  (100) 
9

>  <i_i_glide_rotatable_bonds>  (100) 
1

>  <r_i_docking_score>  (100) 
-2.61155

>  <r_i_glide_ligand_efficiency>  (100) 
-0.0932698

>  <r_i_glide_ligand_efficiency_sa>  (100) 
-0.283222

>  <r_i_glide_ligand_efficiency_ln>  (100) 
-0.602823

>  <r_i_glide_gscore>  (100) 
-2.61155

>  <r_i_glide_lipo>  (100) 
-0.574078

>  <r_i_glide_hbond>  (100) 
-0.0014983

>  <r_i_glide_metal>  (100) 
-0

>  <r_i_glide_rewards>  (100) 
-0.762076

>  <r_i_glide_evdw>  (100) 
-26.7966

>  <r_i_glide_ecoul>  (100) 
-0.220632

>  <r_i_glide_erotb>  (100) 
0.128518

>  <r_i_glide_esite>  (100) 
-0.0294976

>  <r_i_glide_emodel>  (100) 
-30.4574

>  <r_i_glide_energy>  (100) 
-27.0172

>  <r_i_glide_einternal>  (100) 
2.00601

>  <r_i_glide_intrahb_reward>  (100) 
-0

>  <i_i_glide_confnum>  (100) 
3

>  <i_i_glide_posenum>  (100) 
17

>  <r_i_glide_eff_state_penalty>  (100) 
0

>  <ligand_id>  (100) 
37

>  <original_smiles>  (100) 
CN1C=CC=CC1=c1sc2n(c1=O)C(c1ccccc1)C1=C(CCCC1=O)N=2

>  <smiles>  (100) 
[H]C1=C([H])C(=c2sc3n(c2=O)C([H])(c2c([H])c([H])c([H])c([H])c2[H])C2=C(N=3)C([H])([H])C([H])([H])C([H])([H])C2=O)N(C([H])([H])[H])C([H])=C1[H]

$$$$
37:1:2
     RDKit          3D

 47 51  0  0  1  0  0  0  0  0999 V2000
    0.3620   -6.1328    5.1402 C   0  0  0  0  0  0  0  0  0  0  0  0
   -0.0287   -6.6696    3.8425 N   0  0  0  0  0  0  0  0  0  0  0  0
   -1.2696   -7.2985    3.8209 C   0  0  0  0  0  0  0  0  0  0  0  0
   -1.4615   -8.5215    3.2976 C   0  0  0  0  0  0  0  0  0  0  0  0
   -0.3296   -9.2259    2.7303 C   0  0  0  0  0  0  0  0  0  0  0  0
    0.8288   -8.5672    2.5565 C   0  0  0  0  0  0  0  0  0  0  0  0
    0.9541   -7.1623    2.9629 C   0  0  0  0  0  0  0  0  0  0  0  0
    1.9926   -6.4278    2.4796 C   0  0  0  0  0  0  0  0  0  0  0  0
    3.2950   -7.0845    1.4893 S   0  0  0  0  0  0  0  0  0  0  0  0
    4.0617   -5.4851    1.3141 C   0  0  0  0  0  0  0  0  0  0  0  0
    3.3157   -4.5455    2.0231 N   0  0  0  0  0  0  0  0  0  0  0  0
    2.1876   -4.9771    2.6221 C   0  0  0  0  0  0  0  0  0  0  0  0
    1.4179   -4.2001    3.1929 O   0  0  0  0  0  0  0  0  0  0  0  0
    3.8169   -3.1514    2.1692 C   0  0  1  0  0  0  0  0  0  0  0  0
    4.2287   -2.8651    3.6141 C   0  0  0  0  0  0  0  0  0  0  0  0
    3.8293   -1.6777    4.2682 C   0  0  0  0  0  0  0  0  0  0  0  0
    4.2316   -1.4312    5.5976 C   0  0  0  0  0  0  0  0  0  0  0  0
    5.0277   -2.3713    6.2824 C   0  0  0  0  0  0  0  0  0  0  0  0
    5.4219   -3.5570    5.6367 C   0  0  0  0  0  0  0  0  0  0  0  0
    5.0258   -3.7993    4.3104 C   0  0  0  0  0  0  0  0  0  0  0  0
    4.9780   -2.8685    1.2070 C   0  0  0  0  0  0  0  0  0  0  0  0
    5.5801   -3.8752    0.5291 C   0  0  0  0  0  0  0  0  0  0  0  0
    6.7765   -3.6751   -0.3827 C   0  0  0  0  0  0  0  0  0  0  0  0
    7.5527   -2.4055   -0.0311 C   0  0  0  0  0  0  0  0  0  0  0  0
    6.6005   -1.2018    0.0605 C   0  0  0  0  0  0  0  0  0  0  0  0
    5.4210   -1.4619    1.0046 C   0  0  0  0  0  0  0  0  0  0  0  0
    4.8692   -0.4859    1.5109 O   0  0  0  0  0  0  0  0  0  0  0  0
    5.1300   -5.1848    0.6510 N   0  0  0  0  0  0  0  0  0  0  0  0
    0.2909   -6.9192    5.8923 H   0  0  0  0  0  0  0  0  0  0  0  0
   -0.2996   -5.3175    5.4337 H   0  0  0  0  0  0  0  0  0  0  0  0
    1.3890   -5.7690    5.1622 H   0  0  0  0  0  0  0  0  0  0  0  0
   -2.0701   -6.7195    4.2637 H   0  0  0  0  0  0  0  0  0  0  0  0
   -2.4394   -8.9815    3.3141 H   0  0  0  0  0  0  0  0  0  0  0  0
   -0.4198  -10.2653    2.4484 H   0  0  0  0  0  0  0  0  0  0  0  0
    1.6584   -9.1154    2.1340 H   0  0  0  0  0  0  0  0  0  0  0  0
    2.9983   -2.4835    1.8910 H   0  0  0  0  0  0  0  0  0  0  0  0
    3.2218   -0.9474    3.7542 H   0  0  0  0  0  0  0  0  0  0  0  0
    3.9284   -0.5217    6.0949 H   0  0  0  0  0  0  0  0  0  0  0  0
    5.3383   -2.1844    7.3002 H   0  0  0  0  0  0  0  0  0  0  0  0
    6.0347   -4.2833    6.1504 H   0  0  0  0  0  0  0  0  0  0  0  0
    5.3490   -4.7062    3.8234 H   0  0  0  0  0  0  0  0  0  0  0  0
    7.4377   -4.5347   -0.2973 H   0  0  0  0  0  0  0  0  0  0  0  0
    6.4258   -3.6294   -1.4136 H   0  0  0  0  0  0  0  0  0  0  0  0
    8.0567   -2.5585    0.9200 H   0  0  0  0  0  0  0  0  0  0  0  0
    8.3437   -2.2318   -0.7636 H   0  0  0  0  0  0  0  0  0  0  0  0
    7.1320   -0.3177    0.4101 H   0  0  0  0  0  0  0  0  0  0  0  0
    6.1854   -0.9833   -0.9266 H   0  0  0  0  0  0  0  0  0  0  0  0
  1  2  1  0
  1 29  1  0
  1 30  1  0
  1 31  1  0
  2  7  1  0
  2  3  1  0
  3  4  2  0
  3 32  1  0
  4  5  1  0
  4 33  1  0
  5  6  2  0
  5 34  1  0
  6  7  1  0
  6 35  1  0
  7  8  2  3
  8 12  1  0
  8  9  1  0
  9 10  1  0
 10 28  2  0
 10 11  1  0
 11 12  1  0
 11 14  1  0
 12 13  2  0
 14 15  1  0
 14 21  1  0
 14 36  1  6
 15 20  1  0
 15 16  2  0
 16 17  1  0
 16 37  1  0
 17 18  2  0
 17 38  1  0
 18 19  1  0
 18 39  1  0
 19 20  2  0
 19 40  1  0
 20 41  1  0
 21 26  1  0
 21 22  2  0
 22 23  1  0
 22 28  1  0
 23 24  1  0
 23 42  1  0
 23 43  1  0
 24 25  1  0
 24 44  1  0
 24 45  1  0
 25 26  1  0
 25 46  1  0
 25 47  1  0
 26 27  2  0
M  END
>  <i_m_ct_stereo_status>  (101) 
1

>  <s_m_source_file>  (101) 
/var/tmp/pbs.5076255.sched01/tmpscvaj2_a/3886avry94.sdf

>  <i_m_source_file_index>  (101) 
9

>  <i_lp_mmshare_version>  (101) 
48012

>  <i_f3d_flags>  (101) 
0

>  <s_epik_input>  (101) 
W0NIM11OMVtDSF09W0NIXVtDSF09W0NIXUNcMT1jKFxzMiljKD1PKW4oYzI9MylbQ0BASF0oYzRbY0hdW2NIXVtjSF1bY0hdW2NIXTQpQzU9QyhOMylbQ0gyXVtDSDJdW0NIMl1DNT1P

>  <s_epik_cmdline>  (101) 
J2VwaWtfcHl0aG9uJywgJy1waHQnLCAnMi4wJywgJy1waCcsICc3LjAnLCAnLXRuJywgJzgnLCAnLW1hJywgJzIwMCcsICctaW1hZScsICc8aW5maWxlLm1hZT4nLCAnLW9tYWUnLCAnPG91dGZpbGUubWFlPic=

>  <r_lp_tautomer_probability>  (101) 
1

>  <r_epik_Ionization_Penalty>  (101) 
5.11525e-09

>  <r_epik_Ionization_Penalty_Charging>  (101) 
0

>  <r_epik_Ionization_Penalty_Neutral>  (101) 
5.11525e-09

>  <r_epik_State_Penalty>  (101) 
-0

>  <r_epik_Charging_Adjusted_Penalty>  (101) 
0

>  <i_epik_Tot_Q>  (101) 
0

>  <i_epik_Tot_abs_Q>  (101) 
0

>  <s_epik_Chemistry_Notes>  (101) 
This compound has an imine and may undergo hydrolysis.

>  <s_lp_Force_Field>  (101) 
OPLS3e

>  <r_lp_Energy>  (101) 
70.1014

>  <b_lp_Chiralities_Consistent>  (101) 
1

>  <s_lp_Variant>  (101) 
37:0-2

>  <s_i_glide_gridfile>  (101) 
pfpi4k_grid

>  <i_i_glide_lignum>  (101) 
9

>  <i_i_glide_rotatable_bonds>  (101) 
1

>  <r_i_docking_score>  (101) 
-2.52827

>  <r_i_glide_ligand_efficiency>  (101) 
-0.0902952

>  <r_i_glide_ligand_efficiency_sa>  (101) 
-0.27419

>  <r_i_glide_ligand_efficiency_ln>  (101) 
-0.583598

>  <r_i_glide_gscore>  (101) 
-2.52827

>  <r_i_glide_lipo>  (101) 
-0.374258

>  <r_i_glide_hbond>  (101) 
0

>  <r_i_glide_metal>  (101) 
-0

>  <r_i_glide_rewards>  (101) 
-0.897557

>  <r_i_glide_evdw>  (101) 
-29.4966

>  <r_i_glide_ecoul>  (101) 
0.929121

>  <r_i_glide_erotb>  (101) 
0.128518

>  <r_i_glide_esite>  (101) 
-0.0495068

>  <r_i_glide_emodel>  (101) 
-33.0444

>  <r_i_glide_energy>  (101) 
-28.5675

>  <r_i_glide_einternal>  (101) 
0.182808

>  <r_i_glide_intrahb_reward>  (101) 
-0

>  <i_i_glide_confnum>  (101) 
2

>  <i_i_glide_posenum>  (101) 
2

>  <r_i_glide_eff_state_penalty>  (101) 
0

>  <ligand_id>  (101) 
37

>  <original_smiles>  (101) 
CN1C=CC=CC1=c1sc2n(c1=O)C(c1ccccc1)C1=C(CCCC1=O)N=2

>  <smiles>  (101) 
[H]C1=C([H])C(=c2sc3n(c2=O)C([H])(c2c([H])c([H])c([H])c([H])c2[H])C2=C(N=3)C([H])([H])C([H])([H])C([H])([H])C2=O)N(C([H])([H])[H])C([H])=C1[H]

$$$$
38:0:0
     RDKit          3D

 72 76  0  0  1  0  0  0  0  0999 V2000
    1.0274   -0.3539    3.1366 C   0  0  0  0  0  0  0  0  0  0  0  0
    2.2817   -1.2420    3.3092 C   0  0  0  0  0  0  0  0  0  0  0  0
    3.0572   -0.6917    4.5233 C   0  0  0  0  0  0  0  0  0  0  0  0
    1.8224   -2.6856    3.5456 C   0  0  0  0  0  0  0  0  0  0  0  0
    2.9592   -3.7090    3.4097 C   0  0  0  0  0  0  0  0  0  0  0  0
    3.6728   -3.7384    2.0080 C   0  0  2  0  0  0  0  0  0  0  0  0
    2.6105   -4.1886    0.9756 C   0  0  0  0  0  0  0  0  0  0  0  0
    1.8490   -5.4755    1.3536 C   0  0  1  0  0  0  0  0  0  0  0  0
    1.1405   -5.8557    0.1888 O   0  0  0  0  0  0  0  0  0  0  0  0
    2.6950   -6.6588    1.9049 C   0  0  2  0  0  0  0  0  0  0  0  0
    2.0440   -7.3423    3.1653 C   0  0  1  0  0  0  0  0  0  0  0  0
    1.0873   -8.5505    2.9181 C   0  0  0  0  0  0  0  0  0  0  0  0
    1.7579   -9.7509    2.2221 C   0  0  0  0  0  0  0  0  0  0  0  0
    0.3958   -9.0327    4.2172 C   0  0  0  0  0  0  0  0  0  0  0  0
    0.0340   -8.1129    2.0873 O   0  0  0  0  0  0  0  0  0  0  0  0
    3.2151   -7.6758    4.1091 C   0  0  0  0  0  0  0  0  0  0  0  0
    4.3238   -6.6914    3.7700 C   0  0  0  0  0  0  0  0  0  0  0  0
    4.2008   -6.3757    2.2583 C   0  0  1  0  0  0  0  0  0  0  0  0
    5.0038   -7.5106    1.5376 C   0  0  0  0  0  0  0  0  0  0  0  0
    4.7735   -4.8994    1.9963 C   0  0  1  0  0  0  0  0  0  0  0  0
    5.8308   -4.8385    0.8424 C   0  0  0  0  0  0  0  0  0  0  0  0
    6.9647   -5.2709    1.0849 O   0  0  0  0  0  0  0  0  0  0  0  0
    5.4819   -4.2891   -0.4668 C   0  0  0  0  0  0  0  0  0  0  0  0
    5.1441   -3.0085   -0.4843 C   0  0  0  0  0  0  0  0  0  0  0  0
    4.1573   -2.0996   -1.0584 C   0  0  0  0  0  0  0  0  0  0  0  0
    4.8375   -1.8830    0.3682 C   0  0  2  0  0  0  0  0  0  0  0  0
    5.8131   -0.7003    0.3676 C   0  0  0  0  0  0  0  0  0  0  0  0
    4.2427   -2.2280    1.7814 C   0  0  2  0  0  0  0  0  0  0  0  0
    5.3968   -1.9737    2.7891 C   0  0  0  0  0  0  0  0  0  0  0  0
    3.1008   -1.1839    1.9955 C   0  0  0  0  0  0  0  0  0  0  0  0
    0.3946   -0.3719    4.0256 H   0  0  0  0  0  0  0  0  0  0  0  0
    0.4198   -0.6832    2.2962 H   0  0  0  0  0  0  0  0  0  0  0  0
    1.3000    0.6859    2.9426 H   0  0  0  0  0  0  0  0  0  0  0  0
    3.7616   -1.4128    4.9357 H   0  0  0  0  0  0  0  0  0  0  0  0
    2.3914   -0.4194    5.3460 H   0  0  0  0  0  0  0  0  0  0  0  0
    3.6280    0.2054    4.2565 H   0  0  0  0  0  0  0  0  0  0  0  0
    1.3785   -2.7779    4.5370 H   0  0  0  0  0  0  0  0  0  0  0  0
    1.0250   -2.9352    2.8476 H   0  0  0  0  0  0  0  0  0  0  0  0
    3.6619   -3.5695    4.2225 H   0  0  0  0  0  0  0  0  0  0  0  0
    2.5178   -4.6621    3.6627 H   0  0  0  0  0  0  0  0  0  0  0  0
    1.8966   -3.3897    0.7863 H   0  0  0  0  0  0  0  0  0  0  0  0
    3.0504   -4.3846    0.0010 H   0  0  0  0  0  0  0  0  0  0  0  0
    1.0870   -5.2185    2.0896 H   0  0  0  0  0  0  0  0  0  0  0  0
    1.7833   -6.0068   -0.5037 H   0  0  0  0  0  0  0  0  0  0  0  0
    2.6932   -7.3861    1.0956 H   0  0  0  0  0  0  0  0  0  0  0  0
    1.4597   -6.5945    3.7011 H   0  0  0  0  0  0  0  0  0  0  0  0
    2.5639  -10.1890    2.8047 H   0  0  0  0  0  0  0  0  0  0  0  0
    2.1583   -9.4986    1.2442 H   0  0  0  0  0  0  0  0  0  0  0  0
    1.0348  -10.5523    2.0785 H   0  0  0  0  0  0  0  0  0  0  0  0
    1.1112   -9.2495    5.0119 H   0  0  0  0  0  0  0  0  0  0  0  0
   -0.1642   -9.9563    4.0536 H   0  0  0  0  0  0  0  0  0  0  0  0
   -0.3136   -8.2987    4.6101 H   0  0  0  0  0  0  0  0  0  0  0  0
   -0.1860   -8.8163    1.4877 H   0  0  0  0  0  0  0  0  0  0  0  0
    2.9346   -7.6262    5.1611 H   0  0  0  0  0  0  0  0  0  0  0  0
    3.6129   -8.6746    3.9425 H   0  0  0  0  0  0  0  0  0  0  0  0
    4.2083   -5.8061    4.3899 H   0  0  0  0  0  0  0  0  0  0  0  0
    5.2981   -7.1068    4.0250 H   0  0  0  0  0  0  0  0  0  0  0  0
    6.0531   -7.5428    1.8404 H   0  0  0  0  0  0  0  0  0  0  0  0
    4.9658   -7.4250    0.4526 H   0  0  0  0  0  0  0  0  0  0  0  0
    4.6007   -8.4969    1.7752 H   0  0  0  0  0  0  0  0  0  0  0  0
    5.4070   -4.6912    2.8573 H   0  0  0  0  0  0  0  0  0  0  0  0
    5.3203   -4.9504   -1.3215 H   0  0  0  0  0  0  0  0  0  0  0  0
    4.4466   -1.4307   -1.8803 H   0  0  0  0  0  0  0  0  0  0  0  0
    3.0862   -2.3079   -1.0445 H   0  0  0  0  0  0  0  0  0  0  0  0
    5.4094    0.1608    0.8807 H   0  0  0  0  0  0  0  0  0  0  0  0
    6.0056   -0.3957   -0.6581 H   0  0  0  0  0  0  0  0  0  0  0  0
    6.7756   -0.9713    0.8019 H   0  0  0  0  0  0  0  0  0  0  0  0
    5.5778   -0.9090    2.9588 H   0  0  0  0  0  0  0  0  0  0  0  0
    6.3259   -2.4105    2.4298 H   0  0  0  0  0  0  0  0  0  0  0  0
    5.2633   -2.4044    3.7709 H   0  0  0  0  0  0  0  0  0  0  0  0
    2.3897   -1.2999    1.1780 H   0  0  0  0  0  0  0  0  0  0  0  0
    3.4757   -0.1678    1.8707 H   0  0  0  0  0  0  0  0  0  0  0  0
  1  2  1  0
  1 31  1  0
  1 32  1  0
  1 33  1  0
  2 30  1  0
  2  3  1  0
  2  4  1  0
  3 34  1  0
  3 35  1  0
  3 36  1  0
  4  5  1  0
  4 37  1  0
  4 38  1  0
  6  5  1  1
  5 39  1  0
  5 40  1  0
  6 20  1  0
  6 28  1  0
  6  7  1  0
  7  8  1  0
  7 41  1  0
  7 42  1  0
  8  9  1  0
  8 10  1  0
  8 43  1  1
  9 44  1  0
 10 18  1  0
 10 11  1  0
 10 45  1  6
 11 12  1  0
 11 16  1  0
 11 46  1  1
 12 13  1  0
 12 14  1  0
 12 15  1  0
 13 47  1  0
 13 48  1  0
 13 49  1  0
 14 50  1  0
 14 51  1  0
 14 52  1  0
 15 53  1  0
 16 17  1  0
 16 54  1  0
 16 55  1  0
 17 18  1  0
 17 56  1  0
 17 57  1  0
 18 19  1  6
 18 20  1  0
 19 58  1  0
 19 59  1  0
 19 60  1  0
 20 21  1  0
 20 61  1  1
 21 22  2  0
 21 23  1  0
 23 24  2  0
 23 62  1  0
 24 26  1  0
 24 25  1  0
 25 26  1  0
 25 63  1  0
 25 64  1  0
 26 27  1  1
 26 28  1  0
 27 65  1  0
 27 66  1  0
 27 67  1  0
 28 29  1  1
 28 30  1  0
 29 68  1  0
 29 69  1  0
 29 70  1  0
 30 71  1  0
 30 72  1  0
M  END
>  <i_m_ct_stereo_status>  (102) 
1

>  <s_m_source_file>  (102) 
/var/tmp/pbs.5076255.sched01/tmpscvaj2_a/3886avry94.sdf

>  <i_m_source_file_index>  (102) 
10

>  <i_lp_mmshare_version>  (102) 
48012

>  <i_f3d_flags>  (102) 
0

>  <s_epik_input>  (102) 
W0NIMl0xW0NIMl1DKFtDSDNdKShbQ0gzXSlbQ0gyXVtDQF0yKFtDSDNdKUMoW0NIMl0zKShbQ0gzXSlDMz1bQ0hdQyg9TylbQ0BASF0oW0NAQF0xMjQpW0NAXTUoW0NIM10pW0NASF0oW0NAQEhdKFtDSDJdNClbT0hdKVtDQEBIXShDKFtDSDNdKShbQ0gzXSlbT0hdKVtDSDJdW0NIMl01

>  <s_epik_cmdline>  (102) 
J2VwaWtfcHl0aG9uJywgJy1waHQnLCAnMi4wJywgJy1waCcsICc3LjAnLCAnLXRuJywgJzgnLCAnLW1hJywgJzIwMCcsICctaW1hZScsICc8aW5maWxlLm1hZT4nLCAnLW9tYWUnLCAnPG91dGZpbGUubWFlPic=

>  <r_lp_tautomer_probability>  (102) 
1

>  <r_epik_Ionization_Penalty>  (102) 
1.32593e-06

>  <r_epik_Ionization_Penalty_Charging>  (102) 
0

>  <r_epik_Ionization_Penalty_Neutral>  (102) 
1.32593e-06

>  <r_epik_State_Penalty>  (102) 
-0

>  <r_epik_Charging_Adjusted_Penalty>  (102) 
0

>  <i_epik_Tot_Q>  (102) 
0

>  <i_epik_Tot_abs_Q>  (102) 
0

>  <s_lp_Force_Field>  (102) 
OPLS3e

>  <r_lp_Energy>  (102) 
104.393

>  <b_lp_Chiralities_Consistent>  (102) 
1

>  <s_lp_Variant>  (102) 
38:0-1

>  <s_i_glide_gridfile>  (102) 
pfpi4k_grid

>  <i_i_glide_lignum>  (102) 
10

>  <i_i_glide_rotatable_bonds>  (102) 
3

>  <r_i_docking_score>  (102) 
-3.89385

>  <r_i_glide_ligand_efficiency>  (102) 
-0.129795

>  <r_i_glide_ligand_efficiency_sa>  (102) 
-0.403303

>  <r_i_glide_ligand_efficiency_ln>  (102) 
-0.884724

>  <r_i_glide_gscore>  (102) 
-3.89385

>  <r_i_glide_lipo>  (102) 
-0.500598

>  <r_i_glide_hbond>  (102) 
0

>  <r_i_glide_metal>  (102) 
-0

>  <r_i_glide_rewards>  (102) 
-0.703726

>  <r_i_glide_evdw>  (102) 
-28.5463

>  <r_i_glide_ecoul>  (102) 
-9.18022

>  <r_i_glide_erotb>  (102) 
0.114823

>  <r_i_glide_esite>  (102) 
0

>  <r_i_glide_emodel>  (102) 
-45.2659

>  <r_i_glide_energy>  (102) 
-37.7265

>  <r_i_glide_einternal>  (102) 
1.81625

>  <r_i_glide_intrahb_reward>  (102) 
-0

>  <i_i_glide_confnum>  (102) 
6

>  <i_i_glide_posenum>  (102) 
28

>  <r_i_glide_eff_state_penalty>  (102) 
0

>  <ligand_id>  (102) 
38

>  <original_smiles>  (102) 
CC1(C)CCC23CC(O)C4C(C(C)(C)O)CCC4(C)C2C(=O)C=C2CC2(C)C3(C)C1

>  <smiles>  (102) 
[H]OC1([H])C([H])([H])C23C([H])([H])C([H])([H])C(C([H])([H])[H])(C([H])([H])[H])C([H])([H])C2(C([H])([H])[H])C2(C([H])([H])[H])C(=C([H])C(=O)C3([H])C3(C([H])([H])[H])C([H])([H])C([H])([H])C([H])(C(O[H])(C([H])([H])[H])C([H])([H])[H])C13[H])C2([H])[H]

$$$$
38:0:1
     RDKit          3D

 72 76  0  0  1  0  0  0  0  0999 V2000
    1.0413   -0.3704    3.2058 C   0  0  0  0  0  0  0  0  0  0  0  0
    2.2904   -1.2661    3.3516 C   0  0  0  0  0  0  0  0  0  0  0  0
    3.0776   -0.7282    4.5727 C   0  0  0  0  0  0  0  0  0  0  0  0
    1.8361   -2.7095    3.5760 C   0  0  0  0  0  0  0  0  0  0  0  0
    2.9683   -3.7368    3.4162 C   0  0  0  0  0  0  0  0  0  0  0  0
    3.6810   -3.7438    2.0123 C   0  0  2  0  0  0  0  0  0  0  0  0
    2.6141   -4.1844    0.9779 C   0  0  0  0  0  0  0  0  0  0  0  0
    1.8530   -5.4801    1.3394 C   0  0  1  0  0  0  0  0  0  0  0  0
    1.1363   -5.8636    0.1738 O   0  0  0  0  0  0  0  0  0  0  0  0
    2.6917   -6.6739    1.8673 C   0  0  2  0  0  0  0  0  0  0  0  0
    2.0504   -7.3569    3.1303 C   0  0  1  0  0  0  0  0  0  0  0  0
    1.0544   -8.5394    2.9014 C   0  0  0  0  0  0  0  0  0  0  0  0
    0.6603   -9.2402    4.2200 C   0  0  0  0  0  0  0  0  0  0  0  0
   -0.2354   -8.1035    2.1807 C   0  0  0  0  0  0  0  0  0  0  0  0
    1.6864   -9.5183    2.1163 O   0  0  0  0  0  0  0  0  0  0  0  0
    3.2307   -7.7313    4.0358 C   0  0  0  0  0  0  0  0  0  0  0  0
    4.3357   -6.7344    3.7199 C   0  0  0  0  0  0  0  0  0  0  0  0
    4.2039   -6.3884    2.2179 C   0  0  1  0  0  0  0  0  0  0  0  0
    5.0041   -7.5098    1.4803 C   0  0  0  0  0  0  0  0  0  0  0  0
    4.7760   -4.9056    1.9760 C   0  0  1  0  0  0  0  0  0  0  0  0
    5.8310   -4.8277    0.8218 C   0  0  0  0  0  0  0  0  0  0  0  0
    6.9644   -5.2663    1.0519 O   0  0  0  0  0  0  0  0  0  0  0  0
    5.4645   -4.2588   -0.4836 C   0  0  0  0  0  0  0  0  0  0  0  0
    5.1374   -2.9829   -0.4741 C   0  0  0  0  0  0  0  0  0  0  0  0
    4.1423   -2.0661   -1.0417 C   0  0  0  0  0  0  0  0  0  0  0  0
    4.8317   -1.8676    0.4006 C   0  0  2  0  0  0  0  0  0  0  0  0
    5.8105   -0.6986    0.4040 C   0  0  0  0  0  0  0  0  0  0  0  0
    4.2397   -2.2320    1.8007 C   0  0  2  0  0  0  0  0  0  0  0  0
    5.3920   -1.9880    2.8079 C   0  0  0  0  0  0  0  0  0  0  0  0
    3.1023   -1.1883    2.0399 C   0  0  0  0  0  0  0  0  0  0  0  0
    0.4111   -0.3985    4.0969 H   0  0  0  0  0  0  0  0  0  0  0  0
    0.4260   -0.6898    2.3665 H   0  0  0  0  0  0  0  0  0  0  0  0
    1.3126    0.6707    3.0225 H   0  0  0  0  0  0  0  0  0  0  0  0
    3.7852   -1.4567    4.9729 H   0  0  0  0  0  0  0  0  0  0  0  0
    2.4188   -0.4710    5.4073 H   0  0  0  0  0  0  0  0  0  0  0  0
    3.6473    0.1711    4.3174 H   0  0  0  0  0  0  0  0  0  0  0  0
    1.3953   -2.8128    4.5696 H   0  0  0  0  0  0  0  0  0  0  0  0
    1.0340   -2.9464    2.8803 H   0  0  0  0  0  0  0  0  0  0  0  0
    3.6761   -3.6062    4.2270 H   0  0  0  0  0  0  0  0  0  0  0  0
    2.5302   -4.6906    3.6611 H   0  0  0  0  0  0  0  0  0  0  0  0
    1.8953   -3.3854    0.8050 H   0  0  0  0  0  0  0  0  0  0  0  0
    3.0391   -4.3669   -0.0036 H   0  0  0  0  0  0  0  0  0  0  0  0
    1.0982   -5.2317    2.0858 H   0  0  0  0  0  0  0  0  0  0  0  0
    1.7714   -5.9770   -0.5241 H   0  0  0  0  0  0  0  0  0  0  0  0
    2.6856   -7.4138    1.0687 H   0  0  0  0  0  0  0  0  0  0  0  0
    1.4969   -6.6085    3.6942 H   0  0  0  0  0  0  0  0  0  0  0  0
    0.1815   -8.5501    4.9147 H   0  0  0  0  0  0  0  0  0  0  0  0
    1.5215   -9.6762    4.7277 H   0  0  0  0  0  0  0  0  0  0  0  0
   -0.0367  -10.0637    4.0498 H   0  0  0  0  0  0  0  0  0  0  0  0
   -0.7004   -7.2467    2.6633 H   0  0  0  0  0  0  0  0  0  0  0  0
   -0.9730   -8.9086    2.1729 H   0  0  0  0  0  0  0  0  0  0  0  0
   -0.0540   -7.8477    1.1401 H   0  0  0  0  0  0  0  0  0  0  0  0
    1.0327  -10.1324    1.8104 H   0  0  0  0  0  0  0  0  0  0  0  0
    2.9651   -7.7036    5.0929 H   0  0  0  0  0  0  0  0  0  0  0  0
    3.5795   -8.7405    3.8147 H   0  0  0  0  0  0  0  0  0  0  0  0
    4.2151   -5.8611    4.3541 H   0  0  0  0  0  0  0  0  0  0  0  0
    5.3154   -7.1430    3.9688 H   0  0  0  0  0  0  0  0  0  0  0  0
    6.0530   -7.5461    1.7775 H   0  0  0  0  0  0  0  0  0  0  0  0
    4.9565   -7.4098    0.3943 H   0  0  0  0  0  0  0  0  0  0  0  0
    4.5977   -8.4982    1.7055 H   0  0  0  0  0  0  0  0  0  0  0  0
    5.4126   -4.7094    2.8371 H   0  0  0  0  0  0  0  0  0  0  0  0
    5.3142   -4.9093   -1.3484 H   0  0  0  0  0  0  0  0  0  0  0  0
    4.4308   -1.3787   -1.8457 H   0  0  0  0  0  0  0  0  0  0  0  0
    3.0714   -2.2650   -1.0180 H   0  0  0  0  0  0  0  0  0  0  0  0
    5.4113    0.1689    0.9260 H   0  0  0  0  0  0  0  0  0  0  0  0
    5.9958   -0.3663   -0.6206 H   0  0  0  0  0  0  0  0  0  0  0  0
    6.7748   -0.9655    0.8270 H   0  0  0  0  0  0  0  0  0  0  0  0
    5.5784   -0.9279    2.9948 H   0  0  0  0  0  0  0  0  0  0  0  0
    6.3270   -2.4184    2.4398 H   0  0  0  0  0  0  0  0  0  0  0  0
    5.2746   -2.4354    3.7864 H   0  0  0  0  0  0  0  0  0  0  0  0
    2.3868   -1.2937    1.2270 H   0  0  0  0  0  0  0  0  0  0  0  0
    3.4764   -0.1719    1.9249 H   0  0  0  0  0  0  0  0  0  0  0  0
  1  2  1  0
  1 31  1  0
  1 32  1  0
  1 33  1  0
  2 30  1  0
  2  3  1  0
  2  4  1  0
  3 34  1  0
  3 35  1  0
  3 36  1  0
  4  5  1  0
  4 37  1  0
  4 38  1  0
  6  5  1  1
  5 39  1  0
  5 40  1  0
  6 20  1  0
  6 28  1  0
  6  7  1  0
  7  8  1  0
  7 41  1  0
  7 42  1  0
  8  9  1  0
  8 10  1  0
  8 43  1  1
  9 44  1  0
 10 18  1  0
 10 11  1  0
 10 45  1  6
 11 12  1  0
 11 16  1  0
 11 46  1  1
 12 13  1  0
 12 14  1  0
 12 15  1  0
 13 47  1  0
 13 48  1  0
 13 49  1  0
 14 50  1  0
 14 51  1  0
 14 52  1  0
 15 53  1  0
 16 17  1  0
 16 54  1  0
 16 55  1  0
 17 18  1  0
 17 56  1  0
 17 57  1  0
 18 19  1  6
 18 20  1  0
 19 58  1  0
 19 59  1  0
 19 60  1  0
 20 21  1  0
 20 61  1  1
 21 22  2  0
 21 23  1  0
 23 24  2  0
 23 62  1  0
 24 26  1  0
 24 25  1  0
 25 26  1  0
 25 63  1  0
 25 64  1  0
 26 27  1  1
 26 28  1  0
 27 65  1  0
 27 66  1  0
 27 67  1  0
 28 29  1  1
 28 30  1  0
 29 68  1  0
 29 69  1  0
 29 70  1  0
 30 71  1  0
 30 72  1  0
M  END
>  <i_m_ct_stereo_status>  (103) 
1

>  <s_m_source_file>  (103) 
/var/tmp/pbs.5076255.sched01/tmpscvaj2_a/3886avry94.sdf

>  <i_m_source_file_index>  (103) 
10

>  <i_lp_mmshare_version>  (103) 
48012

>  <i_f3d_flags>  (103) 
0

>  <s_epik_input>  (103) 
W0NIMl0xW0NIMl1DKFtDSDNdKShbQ0gzXSlbQ0gyXVtDQF0yKFtDSDNdKUMoW0NIMl0zKShbQ0gzXSlDMz1bQ0hdQyg9TylbQ0BASF0oW0NAQF0xMjQpW0NAXTUoW0NIM10pW0NASF0oW0NAQEhdKFtDSDJdNClbT0hdKVtDQEBIXShDKFtDSDNdKShbQ0gzXSlbT0hdKVtDSDJdW0NIMl01

>  <s_epik_cmdline>  (103) 
J2VwaWtfcHl0aG9uJywgJy1waHQnLCAnMi4wJywgJy1waCcsICc3LjAnLCAnLXRuJywgJzgnLCAnLW1hJywgJzIwMCcsICctaW1hZScsICc8aW5maWxlLm1hZT4nLCAnLW9tYWUnLCAnPG91dGZpbGUubWFlPic=

>  <r_lp_tautomer_probability>  (103) 
1

>  <r_epik_Ionization_Penalty>  (103) 
1.32593e-06

>  <r_epik_Ionization_Penalty_Charging>  (103) 
0

>  <r_epik_Ionization_Penalty_Neutral>  (103) 
1.32593e-06

>  <r_epik_State_Penalty>  (103) 
-0

>  <r_epik_Charging_Adjusted_Penalty>  (103) 
0

>  <i_epik_Tot_Q>  (103) 
0

>  <i_epik_Tot_abs_Q>  (103) 
0

>  <s_lp_Force_Field>  (103) 
OPLS3e

>  <r_lp_Energy>  (103) 
104.393

>  <b_lp_Chiralities_Consistent>  (103) 
1

>  <s_lp_Variant>  (103) 
38:0-1

>  <s_i_glide_gridfile>  (103) 
pfpi4k_grid

>  <i_i_glide_lignum>  (103) 
10

>  <i_i_glide_rotatable_bonds>  (103) 
3

>  <r_i_docking_score>  (103) 
-3.8465

>  <r_i_glide_ligand_efficiency>  (103) 
-0.128217

>  <r_i_glide_ligand_efficiency_sa>  (103) 
-0.398399

>  <r_i_glide_ligand_efficiency_ln>  (103) 
-0.873966

>  <r_i_glide_gscore>  (103) 
-3.8465

>  <r_i_glide_lipo>  (103) 
-0.421035

>  <r_i_glide_hbond>  (103) 
-0.361756

>  <r_i_glide_metal>  (103) 
-0

>  <r_i_glide_rewards>  (103) 
-0.704461

>  <r_i_glide_evdw>  (103) 
-29.0639

>  <r_i_glide_ecoul>  (103) 
-6.80582

>  <r_i_glide_erotb>  (103) 
0.114823

>  <r_i_glide_esite>  (103) 
0

>  <r_i_glide_emodel>  (103) 
-44.3527

>  <r_i_glide_energy>  (103) 
-35.8697

>  <r_i_glide_einternal>  (103) 
0.464546

>  <r_i_glide_intrahb_reward>  (103) 
-0

>  <i_i_glide_confnum>  (103) 
1

>  <i_i_glide_posenum>  (103) 
13

>  <r_i_glide_eff_state_penalty>  (103) 
0

>  <ligand_id>  (103) 
38

>  <original_smiles>  (103) 
CC1(C)CCC23CC(O)C4C(C(C)(C)O)CCC4(C)C2C(=O)C=C2CC2(C)C3(C)C1

>  <smiles>  (103) 
[H]OC1([H])C([H])([H])C23C([H])([H])C([H])([H])C(C([H])([H])[H])(C([H])([H])[H])C([H])([H])C2(C([H])([H])[H])C2(C([H])([H])[H])C(=C([H])C(=O)C3([H])C3(C([H])([H])[H])C([H])([H])C([H])([H])C([H])(C(O[H])(C([H])([H])[H])C([H])([H])[H])C13[H])C2([H])[H]

$$$$
38:0:2
     RDKit          3D

 72 76  0  0  1  0  0  0  0  0999 V2000
    5.8866   -9.0428    2.2819 C   0  0  0  0  0  0  0  0  0  0  0  0
    5.9413   -7.5737    2.7443 C   0  0  0  0  0  0  0  0  0  0  0  0
    7.2920   -7.3622    3.4673 C   0  0  0  0  0  0  0  0  0  0  0  0
    5.8297   -6.6766    1.4969 C   0  0  0  0  0  0  0  0  0  0  0  0
    5.5400   -5.2097    1.8414 C   0  0  0  0  0  0  0  0  0  0  0  0
    4.2071   -4.9527    2.6288 C   0  0  2  0  0  0  0  0  0  0  0  0
    3.0283   -5.3911    1.7036 C   0  0  0  0  0  0  0  0  0  0  0  0
    3.0819   -4.7808    0.2896 C   0  0  1  0  0  0  0  0  0  0  0  0
    1.8317   -5.0570   -0.3251 O   0  0  0  0  0  0  0  0  0  0  0  0
    3.4075   -3.2510    0.1879 C   0  0  2  0  0  0  0  0  0  0  0  0
    4.4445   -2.9094   -0.9442 C   0  0  1  0  0  0  0  0  0  0  0  0
    3.9183   -2.6014   -2.3980 C   0  0  0  0  0  0  0  0  0  0  0  0
    3.8976   -1.1035   -2.7508 C   0  0  0  0  0  0  0  0  0  0  0  0
    4.7062   -3.3498   -3.4882 C   0  0  0  0  0  0  0  0  0  0  0  0
    2.5811   -3.0345   -2.5456 O   0  0  0  0  0  0  0  0  0  0  0  0
    5.3784   -1.8322   -0.3520 C   0  0  0  0  0  0  0  0  0  0  0  0
    5.3451   -2.0105    1.1548 C   0  0  0  0  0  0  0  0  0  0  0  0
    3.9199   -2.5233    1.4959 C   0  0  1  0  0  0  0  0  0  0  0  0
    3.0277   -1.2373    1.6082 C   0  0  0  0  0  0  0  0  0  0  0  0
    3.9971   -3.3847    2.8467 C   0  0  1  0  0  0  0  0  0  0  0  0
    2.9653   -2.9325    3.9252 C   0  0  0  0  0  0  0  0  0  0  0  0
    3.1788   -1.8949    4.5419 O   0  0  0  0  0  0  0  0  0  0  0  0
    1.7722   -3.7320    4.2063 C   0  0  0  0  0  0  0  0  0  0  0  0
    2.0196   -4.9774    4.6523 C   0  0  0  0  0  0  0  0  0  0  0  0
    1.6067   -6.3755    4.5110 C   0  0  0  0  0  0  0  0  0  0  0  0
    3.0780   -5.9403    4.9296 C   0  0  2  0  0  0  0  0  0  0  0  0
    3.3773   -6.2731    6.4000 C   0  0  0  0  0  0  0  0  0  0  0  0
    4.3491   -5.8173    4.0029 C   0  0  2  0  0  0  0  0  0  0  0  0
    5.4592   -5.1795    4.8986 C   0  0  0  0  0  0  0  0  0  0  0  0
    4.7175   -7.3030    3.6571 C   0  0  0  0  0  0  0  0  0  0  0  0
    6.7168   -9.2861    1.6136 H   0  0  0  0  0  0  0  0  0  0  0  0
    4.9667   -9.2683    1.7434 H   0  0  0  0  0  0  0  0  0  0  0  0
    5.9409   -9.7247    3.1311 H   0  0  0  0  0  0  0  0  0  0  0  0
    7.5760   -6.3149    3.5322 H   0  0  0  0  0  0  0  0  0  0  0  0
    8.1086   -7.8660    2.9398 H   0  0  0  0  0  0  0  0  0  0  0  0
    7.2562   -7.7673    4.4791 H   0  0  0  0  0  0  0  0  0  0  0  0
    6.7524   -6.7315    0.9198 H   0  0  0  0  0  0  0  0  0  0  0  0
    5.0459   -7.0546    0.8417 H   0  0  0  0  0  0  0  0  0  0  0  0
    6.4046   -4.7787    2.3379 H   0  0  0  0  0  0  0  0  0  0  0  0
    5.5525   -4.6923    0.8938 H   0  0  0  0  0  0  0  0  0  0  0  0
    2.9863   -6.4773    1.6047 H   0  0  0  0  0  0  0  0  0  0  0  0
    2.0746   -5.1040    2.1122 H   0  0  0  0  0  0  0  0  0  0  0  0
    3.8042   -5.3468   -0.2940 H   0  0  0  0  0  0  0  0  0  0  0  0
    1.9954   -5.0731   -1.2637 H   0  0  0  0  0  0  0  0  0  0  0  0
    2.4645   -2.7688   -0.0693 H   0  0  0  0  0  0  0  0  0  0  0  0
    5.0750   -3.7901   -1.0494 H   0  0  0  0  0  0  0  0  0  0  0  0
    4.8983   -0.6717   -2.7497 H   0  0  0  0  0  0  0  0  0  0  0  0
    3.2861   -0.5784   -2.0273 H   0  0  0  0  0  0  0  0  0  0  0  0
    3.4628   -0.9162   -3.7370 H   0  0  0  0  0  0  0  0  0  0  0  0
    5.7806   -3.1882   -3.3987 H   0  0  0  0  0  0  0  0  0  0  0  0
    4.4038   -3.0042   -4.4790 H   0  0  0  0  0  0  0  0  0  0  0  0
    4.5260   -4.4257   -3.4607 H   0  0  0  0  0  0  0  0  0  0  0  0
    2.0318   -2.4916   -1.9933 H   0  0  0  0  0  0  0  0  0  0  0  0
    6.3970   -1.8928   -0.7408 H   0  0  0  0  0  0  0  0  0  0  0  0
    5.0180   -0.8193   -0.5262 H   0  0  0  0  0  0  0  0  0  0  0  0
    6.1380   -2.6869    1.4784 H   0  0  0  0  0  0  0  0  0  0  0  0
    5.5571   -1.0626    1.6536 H   0  0  0  0  0  0  0  0  0  0  0  0
    3.3697   -0.5382    2.3685 H   0  0  0  0  0  0  0  0  0  0  0  0
    1.9803   -1.4803    1.8124 H   0  0  0  0  0  0  0  0  0  0  0  0
    3.0119   -0.6798    0.6703 H   0  0  0  0  0  0  0  0  0  0  0  0
    4.9254   -3.0506    3.3207 H   0  0  0  0  0  0  0  0  0  0  0  0
    0.8051   -3.4540    3.8360 H   0  0  0  0  0  0  0  0  0  0  0  0
    0.9679   -6.8303    5.2725 H   0  0  0  0  0  0  0  0  0  0  0  0
    1.5117   -6.8416    3.5355 H   0  0  0  0  0  0  0  0  0  0  0  0
    4.0492   -7.1238    6.4827 H   0  0  0  0  0  0  0  0  0  0  0  0
    2.4641   -6.5346    6.9248 H   0  0  0  0  0  0  0  0  0  0  0  0
    3.8118   -5.4268    6.9247 H   0  0  0  0  0  0  0  0  0  0  0  0
    5.8571   -5.8899    5.6215 H   0  0  0  0  0  0  0  0  0  0  0  0
    5.0753   -4.3268    5.4566 H   0  0  0  0  0  0  0  0  0  0  0  0
    6.3065   -4.7966    4.3639 H   0  0  0  0  0  0  0  0  0  0  0  0
    3.8512   -7.7499    3.1733 H   0  0  0  0  0  0  0  0  0  0  0  0
    4.8421   -7.8914    4.5716 H   0  0  0  0  0  0  0  0  0  0  0  0
  1  2  1  0
  1 31  1  0
  1 32  1  0
  1 33  1  0
  2 30  1  0
  2  3  1  0
  2  4  1  0
  3 34  1  0
  3 35  1  0
  3 36  1  0
  4  5  1  0
  4 37  1  0
  4 38  1  0
  6  5  1  6
  5 39  1  0
  5 40  1  0
  6 20  1  0
  6 28  1  0
  6  7  1  0
  7  8  1  0
  7 41  1  0
  7 42  1  0
  8  9  1  0
  8 10  1  0
  8 43  1  6
  9 44  1  0
 10 18  1  0
 10 11  1  0
 10 45  1  6
 11 12  1  0
 11 16  1  0
 11 46  1  6
 12 13  1  0
 12 14  1  0
 12 15  1  0
 13 47  1  0
 13 48  1  0
 13 49  1  0
 14 50  1  0
 14 51  1  0
 14 52  1  0
 15 53  1  0
 16 17  1  0
 16 54  1  0
 16 55  1  0
 17 18  1  0
 17 56  1  0
 17 57  1  0
 18 19  1  1
 18 20  1  0
 19 58  1  0
 19 59  1  0
 19 60  1  0
 20 21  1  0
 20 61  1  1
 21 22  2  0
 21 23  1  0
 23 24  2  0
 23 62  1  0
 24 26  1  0
 24 25  1  0
 25 26  1  0
 25 63  1  0
 25 64  1  0
 26 27  1  1
 26 28  1  0
 27 65  1  0
 27 66  1  0
 27 67  1  0
 28 29  1  1
 28 30  1  0
 29 68  1  0
 29 69  1  0
 29 70  1  0
 30 71  1  0
 30 72  1  0
M  END
>  <i_m_ct_stereo_status>  (104) 
1

>  <s_m_source_file>  (104) 
/var/tmp/pbs.5076255.sched01/tmpscvaj2_a/3886avry94.sdf

>  <i_m_source_file_index>  (104) 
10

>  <i_lp_mmshare_version>  (104) 
48012

>  <i_f3d_flags>  (104) 
0

>  <s_epik_input>  (104) 
W0NIMl0xW0NIMl1DKFtDSDNdKShbQ0gzXSlbQ0gyXVtDQF0yKFtDSDNdKUMoW0NIMl0zKShbQ0gzXSlDMz1bQ0hdQyg9TylbQ0BASF0oW0NAQF0xMjQpW0NAXTUoW0NIM10pW0NASF0oW0NAQEhdKFtDSDJdNClbT0hdKVtDQEBIXShDKFtDSDNdKShbQ0gzXSlbT0hdKVtDSDJdW0NIMl01

>  <s_epik_cmdline>  (104) 
J2VwaWtfcHl0aG9uJywgJy1waHQnLCAnMi4wJywgJy1waCcsICc3LjAnLCAnLXRuJywgJzgnLCAnLW1hJywgJzIwMCcsICctaW1hZScsICc8aW5maWxlLm1hZT4nLCAnLW9tYWUnLCAnPG91dGZpbGUubWFlPic=

>  <r_lp_tautomer_probability>  (104) 
1

>  <r_epik_Ionization_Penalty>  (104) 
1.32593e-06

>  <r_epik_Ionization_Penalty_Charging>  (104) 
0

>  <r_epik_Ionization_Penalty_Neutral>  (104) 
1.32593e-06

>  <r_epik_State_Penalty>  (104) 
-0

>  <r_epik_Charging_Adjusted_Penalty>  (104) 
0

>  <i_epik_Tot_Q>  (104) 
0

>  <i_epik_Tot_abs_Q>  (104) 
0

>  <s_lp_Force_Field>  (104) 
OPLS3e

>  <r_lp_Energy>  (104) 
104.393

>  <b_lp_Chiralities_Consistent>  (104) 
1

>  <s_lp_Variant>  (104) 
38:0-1

>  <s_i_glide_gridfile>  (104) 
pfpi4k_grid

>  <i_i_glide_lignum>  (104) 
10

>  <i_i_glide_rotatable_bonds>  (104) 
3

>  <r_i_docking_score>  (104) 
-3.69373

>  <r_i_glide_ligand_efficiency>  (104) 
-0.123124

>  <r_i_glide_ligand_efficiency_sa>  (104) 
-0.382576

>  <r_i_glide_ligand_efficiency_ln>  (104) 
-0.839255

>  <r_i_glide_gscore>  (104) 
-3.69373

>  <r_i_glide_lipo>  (104) 
-0.469834

>  <r_i_glide_hbond>  (104) 
0

>  <r_i_glide_metal>  (104) 
-0

>  <r_i_glide_rewards>  (104) 
-1.08236

>  <r_i_glide_evdw>  (104) 
-30.2466

>  <r_i_glide_ecoul>  (104) 
-4.96021

>  <r_i_glide_erotb>  (104) 
0.114823

>  <r_i_glide_esite>  (104) 
0

>  <r_i_glide_emodel>  (104) 
-43.7864

>  <r_i_glide_energy>  (104) 
-35.2068

>  <r_i_glide_einternal>  (104) 
8.96686

>  <r_i_glide_intrahb_reward>  (104) 
-0.5

>  <i_i_glide_confnum>  (104) 
6

>  <i_i_glide_posenum>  (104) 
38

>  <r_i_glide_eff_state_penalty>  (104) 
0

>  <ligand_id>  (104) 
38

>  <original_smiles>  (104) 
CC1(C)CCC23CC(O)C4C(C(C)(C)O)CCC4(C)C2C(=O)C=C2CC2(C)C3(C)C1

>  <smiles>  (104) 
[H]OC1([H])C([H])([H])C23C([H])([H])C([H])([H])C(C([H])([H])[H])(C([H])([H])[H])C([H])([H])C2(C([H])([H])[H])C2(C([H])([H])[H])C(=C([H])C(=O)C3([H])C3(C([H])([H])[H])C([H])([H])C([H])([H])C([H])(C(O[H])(C([H])([H])[H])C([H])([H])[H])C13[H])C2([H])[H]

$$$$
38:1:0
     RDKit          3D

 72 76  0  0  1  0  0  0  0  0999 V2000
    1.0662   -0.0522    2.6302 C   0  0  0  0  0  0  0  0  0  0  0  0
    2.2168   -0.9645    3.1094 C   0  0  0  0  0  0  0  0  0  0  0  0
    2.7541   -0.3663    4.4318 C   0  0  0  0  0  0  0  0  0  0  0  0
    1.6500   -2.3743    3.3235 C   0  0  0  0  0  0  0  0  0  0  0  0
    2.7346   -3.4532    3.4611 C   0  0  0  0  0  0  0  0  0  0  0  0
    3.6927   -3.6412    2.2309 C   0  0  2  0  0  0  0  0  0  0  0  0
    2.8117   -4.1052    1.0434 C   0  0  0  0  0  0  0  0  0  0  0  0
    1.9687   -5.3764    1.3426 C   0  0  1  0  0  0  0  0  0  0  0  0
    1.5120   -5.8635    0.0925 O   0  0  0  0  0  0  0  0  0  0  0  0
    2.6041   -6.5157    2.2079 C   0  0  2  0  0  0  0  0  0  0  0  0
    1.6526   -6.9741    3.3785 C   0  0  1  0  0  0  0  0  0  0  0  0
    0.7586   -8.2180    3.1052 C   0  0  0  0  0  0  0  0  0  0  0  0
    1.5507   -9.4977    2.7580 C   0  0  0  0  0  0  0  0  0  0  0  0
   -0.2174   -8.5069    4.2690 C   0  0  0  0  0  0  0  0  0  0  0  0
   -0.0701   -7.9087    2.0040 O   0  0  0  0  0  0  0  0  0  0  0  0
    2.5174   -7.0980    4.6461 C   0  0  0  0  0  0  0  0  0  0  0  0
    3.7802   -6.2741    4.4064 C   0  0  0  0  0  0  0  0  0  0  0  0
    4.0076   -6.2442    2.8713 C   0  0  1  0  0  0  0  0  0  0  0  0
    4.8620   -7.5456    2.6618 C   0  0  0  0  0  0  0  0  0  0  0  0
    4.7246   -4.8785    2.4100 C   0  0  1  0  0  0  0  0  0  0  0  0
    5.6645   -5.1059    1.1697 C   0  0  0  0  0  0  0  0  0  0  0  0
    5.4365   -6.0148    0.3718 O   0  0  0  0  0  0  0  0  0  0  0  0
    6.7471   -4.1610    0.8983 C   0  0  0  0  0  0  0  0  0  0  0  0
    6.3618   -2.9081    0.6946 C   0  0  0  0  0  0  0  0  0  0  0  0
    6.7172   -1.4934    0.6390 C   0  0  0  0  0  0  0  0  0  0  0  0
    5.2087   -2.0184    0.7161 C   0  0  1  0  0  0  0  0  0  0  0  0
    4.4636   -1.7381   -0.5865 C   0  0  0  0  0  0  0  0  0  0  0  0
    4.3601   -2.1708    2.0202 C   0  0  2  0  0  0  0  0  0  0  0  0
    5.3138   -1.8518    3.2123 C   0  0  0  0  0  0  0  0  0  0  0  0
    3.2703   -1.0374    1.9804 C   0  0  0  0  0  0  0  0  0  0  0  0
    0.2648    0.0054    3.3687 H   0  0  0  0  0  0  0  0  0  0  0  0
    0.6233   -0.4209    1.7040 H   0  0  0  0  0  0  0  0  0  0  0  0
    1.4210    0.9618    2.4390 H   0  0  0  0  0  0  0  0  0  0  0  0
    3.1489   -1.1252    5.1085 H   0  0  0  0  0  0  0  0  0  0  0  0
    1.9665    0.1422    4.9924 H   0  0  0  0  0  0  0  0  0  0  0  0
    3.5420    0.3665    4.2445 H   0  0  0  0  0  0  0  0  0  0  0  0
    1.0193   -2.3910    4.2148 H   0  0  0  0  0  0  0  0  0  0  0  0
    0.9987   -2.6328    2.4904 H   0  0  0  0  0  0  0  0  0  0  0  0
    3.2928   -3.2729    4.3703 H   0  0  0  0  0  0  0  0  0  0  0  0
    2.1788   -4.3476    3.6837 H   0  0  0  0  0  0  0  0  0  0  0  0
    2.1456   -3.3107    0.7163 H   0  0  0  0  0  0  0  0  0  0  0  0
    3.4337   -4.3008    0.1710 H   0  0  0  0  0  0  0  0  0  0  0  0
    1.0726   -5.0498    1.8698 H   0  0  0  0  0  0  0  0  0  0  0  0
    2.2588   -5.9753   -0.4808 H   0  0  0  0  0  0  0  0  0  0  0  0
    2.7350   -7.3433    1.5096 H   0  0  0  0  0  0  0  0  0  0  0  0
    0.9599   -6.1673    3.6134 H   0  0  0  0  0  0  0  0  0  0  0  0
    2.2052   -9.8068    3.5714 H   0  0  0  0  0  0  0  0  0  0  0  0
    2.1676   -9.3875    1.8693 H   0  0  0  0  0  0  0  0  0  0  0  0
    0.8815  -10.3373    2.5700 H   0  0  0  0  0  0  0  0  0  0  0  0
    0.2997   -8.6269    5.2230 H   0  0  0  0  0  0  0  0  0  0  0  0
   -0.7672   -9.4345    4.0945 H   0  0  0  0  0  0  0  0  0  0  0  0
   -0.9596   -7.7143    4.3973 H   0  0  0  0  0  0  0  0  0  0  0  0
   -0.1882   -8.6990    1.4947 H   0  0  0  0  0  0  0  0  0  0  0  0
    1.9897   -6.7717    5.5442 H   0  0  0  0  0  0  0  0  0  0  0  0
    2.8119   -8.1292    4.8239 H   0  0  0  0  0  0  0  0  0  0  0  0
    3.6852   -5.2983    4.8647 H   0  0  0  0  0  0  0  0  0  0  0  0
    4.6251   -6.7203    4.9331 H   0  0  0  0  0  0  0  0  0  0  0  0
    5.9065   -7.3988    2.9359 H   0  0  0  0  0  0  0  0  0  0  0  0
    4.8319   -7.9357    1.6437 H   0  0  0  0  0  0  0  0  0  0  0  0
    4.4877   -8.3802    3.2580 H   0  0  0  0  0  0  0  0  0  0  0  0
    5.4079   -4.6139    3.2204 H   0  0  0  0  0  0  0  0  0  0  0  0
    7.7850   -4.4597    0.9044 H   0  0  0  0  0  0  0  0  0  0  0  0
    7.1446   -1.0054    1.5116 H   0  0  0  0  0  0  0  0  0  0  0  0
    7.0422   -1.0574   -0.3029 H   0  0  0  0  0  0  0  0  0  0  0  0
    3.5594   -2.3162   -0.6982 H   0  0  0  0  0  0  0  0  0  0  0  0
    5.1045   -1.9588   -1.4373 H   0  0  0  0  0  0  0  0  0  0  0  0
    4.2002   -0.6836   -0.6401 H   0  0  0  0  0  0  0  0  0  0  0  0
    5.6586   -0.8187    3.1763 H   0  0  0  0  0  0  0  0  0  0  0  0
    6.1968   -2.4926    3.2166 H   0  0  0  0  0  0  0  0  0  0  0  0
    4.8663   -1.9739    4.1879 H   0  0  0  0  0  0  0  0  0  0  0  0
    2.6804   -1.1533    1.0724 H   0  0  0  0  0  0  0  0  0  0  0  0
    3.7541   -0.0631    1.8741 H   0  0  0  0  0  0  0  0  0  0  0  0
  1  2  1  0
  1 31  1  0
  1 32  1  0
  1 33  1  0
  2 30  1  0
  2  3  1  0
  2  4  1  0
  3 34  1  0
  3 35  1  0
  3 36  1  0
  4  5  1  0
  4 37  1  0
  4 38  1  0
  6  5  1  1
  5 39  1  0
  5 40  1  0
  6 20  1  0
  6 28  1  0
  6  7  1  0
  7  8  1  0
  7 41  1  0
  7 42  1  0
  8  9  1  0
  8 10  1  0
  8 43  1  1
  9 44  1  0
 10 18  1  0
 10 11  1  0
 10 45  1  6
 11 12  1  0
 11 16  1  0
 11 46  1  1
 12 13  1  0
 12 14  1  0
 12 15  1  0
 13 47  1  0
 13 48  1  0
 13 49  1  0
 14 50  1  0
 14 51  1  0
 14 52  1  0
 15 53  1  0
 16 17  1  0
 16 54  1  0
 16 55  1  0
 17 18  1  0
 17 56  1  0
 17 57  1  0
 18 19  1  1
 18 20  1  0
 19 58  1  0
 19 59  1  0
 19 60  1  0
 20 21  1  0
 20 61  1  1
 21 22  2  0
 21 23  1  0
 23 24  2  0
 23 62  1  0
 24 26  1  0
 24 25  1  0
 25 26  1  0
 25 63  1  0
 25 64  1  0
 26 27  1  6
 26 28  1  0
 27 65  1  0
 27 66  1  0
 27 67  1  0
 28 29  1  1
 28 30  1  0
 29 68  1  0
 29 69  1  0
 29 70  1  0
 30 71  1  0
 30 72  1  0
M  END
>  <i_m_ct_stereo_status>  (105) 
1

>  <s_m_source_file>  (105) 
/var/tmp/pbs.5076255.sched01/tmpscvaj2_a/3886avry94.sdf

>  <i_m_source_file_index>  (105) 
11

>  <i_lp_mmshare_version>  (105) 
48012

>  <i_f3d_flags>  (105) 
0

>  <s_epik_input>  (105) 
W0NIMl0xW0NIMl1DKFtDSDNdKShbQ0gzXSlbQ0gyXVtDQF0yKFtDSDNdKUMoW0NIMl0zKShbQ0gzXSlDMz1bQ0hdQyg9TylbQ0BASF0oW0NAQF0xMjQpW0NAXTUoW0NIM10pW0NASF0oW0NAQEhdKFtDSDJdNClbT0hdKVtDQEBIXShDKFtDSDNdKShbQ0gzXSlbT0hdKVtDSDJdW0NIMl01

>  <s_epik_cmdline>  (105) 
J2VwaWtfcHl0aG9uJywgJy1waHQnLCAnMi4wJywgJy1waCcsICc3LjAnLCAnLXRuJywgJzgnLCAnLW1hJywgJzIwMCcsICctaW1hZScsICc8aW5maWxlLm1hZT4nLCAnLW9tYWUnLCAnPG91dGZpbGUubWFlPic=

>  <r_lp_tautomer_probability>  (105) 
1

>  <r_epik_Ionization_Penalty>  (105) 
1.32593e-06

>  <r_epik_Ionization_Penalty_Charging>  (105) 
0

>  <r_epik_Ionization_Penalty_Neutral>  (105) 
1.32593e-06

>  <r_epik_State_Penalty>  (105) 
-0

>  <r_epik_Charging_Adjusted_Penalty>  (105) 
0

>  <i_epik_Tot_Q>  (105) 
0

>  <i_epik_Tot_abs_Q>  (105) 
0

>  <s_lp_Force_Field>  (105) 
OPLS3e

>  <r_lp_Energy>  (105) 
101.306

>  <b_lp_Chiralities_Consistent>  (105) 
1

>  <s_lp_Variant>  (105) 
38:0-2

>  <s_i_glide_gridfile>  (105) 
pfpi4k_grid

>  <i_i_glide_lignum>  (105) 
11

>  <i_i_glide_rotatable_bonds>  (105) 
3

>  <r_i_docking_score>  (105) 
-3.46811

>  <r_i_glide_ligand_efficiency>  (105) 
-0.115604

>  <r_i_glide_ligand_efficiency_sa>  (105) 
-0.359208

>  <r_i_glide_ligand_efficiency_ln>  (105) 
-0.787993

>  <r_i_glide_gscore>  (105) 
-3.46811

>  <r_i_glide_lipo>  (105) 
-0.413764

>  <r_i_glide_hbond>  (105) 
0

>  <r_i_glide_metal>  (105) 
-0

>  <r_i_glide_rewards>  (105) 
-0.682078

>  <r_i_glide_evdw>  (105) 
-27.9784

>  <r_i_glide_ecoul>  (105) 
-7.25449

>  <r_i_glide_erotb>  (105) 
0.114823

>  <r_i_glide_esite>  (105) 
0

>  <r_i_glide_emodel>  (105) 
-41.8158

>  <r_i_glide_energy>  (105) 
-35.2329

>  <r_i_glide_einternal>  (105) 
1.71098

>  <r_i_glide_intrahb_reward>  (105) 
-0

>  <i_i_glide_confnum>  (105) 
3

>  <i_i_glide_posenum>  (105) 
19

>  <r_i_glide_eff_state_penalty>  (105) 
0

>  <ligand_id>  (105) 
38

>  <original_smiles>  (105) 
CC1(C)CCC23CC(O)C4C(C(C)(C)O)CCC4(C)C2C(=O)C=C2CC2(C)C3(C)C1

>  <smiles>  (105) 
[H]OC1([H])C([H])([H])C23C([H])([H])C([H])([H])C(C([H])([H])[H])(C([H])([H])[H])C([H])([H])C2(C([H])([H])[H])C2(C([H])([H])[H])C(=C([H])C(=O)C3([H])C3(C([H])([H])[H])C([H])([H])C([H])([H])C([H])(C(O[H])(C([H])([H])[H])C([H])([H])[H])C13[H])C2([H])[H]

$$$$
38:1:1
     RDKit          3D

 72 76  0  0  1  0  0  0  0  0999 V2000
    6.0821   -9.1647    2.2103 C   0  0  0  0  0  0  0  0  0  0  0  0
    6.0775   -7.6961    2.6874 C   0  0  0  0  0  0  0  0  0  0  0  0
    7.4445   -7.4461    3.3809 C   0  0  0  0  0  0  0  0  0  0  0  0
    5.9004   -6.8006    1.4570 C   0  0  0  0  0  0  0  0  0  0  0  0
    5.5337   -5.3553    1.8058 C   0  0  0  0  0  0  0  0  0  0  0  0
    4.1907   -5.1452    2.5979 C   0  0  2  0  0  0  0  0  0  0  0  0
    3.0475   -5.6370    1.6678 C   0  0  0  0  0  0  0  0  0  0  0  0
    3.0472   -4.9637    0.2780 C   0  0  1  0  0  0  0  0  0  0  0  0
    1.7887   -5.2359   -0.3256 O   0  0  0  0  0  0  0  0  0  0  0  0
    3.4044   -3.4263    0.1573 C   0  0  2  0  0  0  0  0  0  0  0  0
    4.4826   -3.1390   -0.9446 C   0  0  1  0  0  0  0  0  0  0  0  0
    3.9639   -2.6941   -2.3580 C   0  0  0  0  0  0  0  0  0  0  0  0
    3.5752   -1.2065   -2.4981 C   0  0  0  0  0  0  0  0  0  0  0  0
    4.9567   -3.0741   -3.4605 C   0  0  0  0  0  0  0  0  0  0  0  0
    2.7950   -3.4161   -2.6900 O   0  0  0  0  0  0  0  0  0  0  0  0
    5.5494   -2.2008   -0.3169 C   0  0  0  0  0  0  0  0  0  0  0  0
    5.4017   -2.3080    1.1938 C   0  0  0  0  0  0  0  0  0  0  0  0
    3.9267   -2.7114    1.4618 C   0  0  1  0  0  0  0  0  0  0  0  0
    3.1988   -1.3194    1.5234 C   0  0  0  0  0  0  0  0  0  0  0  0
    3.8145   -3.5858    2.8082 C   0  0  1  0  0  0  0  0  0  0  0  0
    2.4501   -3.3381    3.5704 C   0  0  0  0  0  0  0  0  0  0  0  0
    1.4414   -3.0067    2.9586 O   0  0  0  0  0  0  0  0  0  0  0  0
    2.3618   -3.6250    5.0081 C   0  0  0  0  0  0  0  0  0  0  0  0
    2.6411   -4.9014    5.3443 C   0  0  0  0  0  0  0  0  0  0  0  0
    2.9837   -5.8389    6.3911 C   0  0  0  0  0  0  0  0  0  0  0  0
    3.0935   -6.1562    4.8203 C   0  0  1  0  0  0  0  0  0  0  0  0
    2.0661   -7.2092    4.4034 C   0  0  0  0  0  0  0  0  0  0  0  0
    4.3806   -6.0262    3.9435 C   0  0  2  0  0  0  0  0  0  0  0  0
    5.4779   -5.3761    4.8584 C   0  0  0  0  0  0  0  0  0  0  0  0
    4.8580   -7.4875    3.6159 C   0  0  0  0  0  0  0  0  0  0  0  0
    6.9032   -9.3656    1.5160 H   0  0  0  0  0  0  0  0  0  0  0  0
    5.1561   -9.4215    1.6877 H   0  0  0  0  0  0  0  0  0  0  0  0
    6.1792   -9.8550    3.0484 H   0  0  0  0  0  0  0  0  0  0  0  0
    7.7761   -6.4131    3.2783 H   0  0  0  0  0  0  0  0  0  0  0  0
    8.2382   -8.0594    2.9399 H   0  0  0  0  0  0  0  0  0  0  0  0
    7.3932   -7.6878    4.4398 H   0  0  0  0  0  0  0  0  0  0  0  0
    6.8262   -6.7923    0.8811 H   0  0  0  0  0  0  0  0  0  0  0  0
    5.1345   -7.2175    0.8034 H   0  0  0  0  0  0  0  0  0  0  0  0
    6.3686   -4.9079    2.3297 H   0  0  0  0  0  0  0  0  0  0  0  0
    5.5347   -4.8569    0.8503 H   0  0  0  0  0  0  0  0  0  0  0  0
    3.0844   -6.7215    1.5170 H   0  0  0  0  0  0  0  0  0  0  0  0
    2.0813   -5.4563    2.1230 H   0  0  0  0  0  0  0  0  0  0  0  0
    3.7527   -5.5386   -0.3198 H   0  0  0  0  0  0  0  0  0  0  0  0
    1.8923   -5.1145   -1.2435 H   0  0  0  0  0  0  0  0  0  0  0  0
    2.4889   -2.9195   -0.1472 H   0  0  0  0  0  0  0  0  0  0  0  0
    5.0046   -4.0796   -1.1180 H   0  0  0  0  0  0  0  0  0  0  0  0
    4.4183   -0.5160   -2.4465 H   0  0  0  0  0  0  0  0  0  0  0  0
    2.8713   -0.9494   -1.7148 H   0  0  0  0  0  0  0  0  0  0  0  0
    3.0674   -1.0290   -3.4518 H   0  0  0  0  0  0  0  0  0  0  0  0
    5.9510   -2.6714   -3.2706 H   0  0  0  0  0  0  0  0  0  0  0  0
    4.6027   -2.6648   -4.4102 H   0  0  0  0  0  0  0  0  0  0  0  0
    5.0483   -4.1583   -3.5868 H   0  0  0  0  0  0  0  0  0  0  0  0
    2.9964   -4.3583   -2.7458 H   0  0  0  0  0  0  0  0  0  0  0  0
    6.5672   -2.4351   -0.6534 H   0  0  0  0  0  0  0  0  0  0  0  0
    5.3765   -1.1430   -0.5161 H   0  0  0  0  0  0  0  0  0  0  0  0
    6.1564   -2.9566    1.6251 H   0  0  0  0  0  0  0  0  0  0  0  0
    5.6189   -1.3360    1.6406 H   0  0  0  0  0  0  0  0  0  0  0  0
    3.3594   -0.8069    2.4700 H   0  0  0  0  0  0  0  0  0  0  0  0
    2.1178   -1.3759    1.3516 H   0  0  0  0  0  0  0  0  0  0  0  0
    3.5350   -0.6489    0.7333 H   0  0  0  0  0  0  0  0  0  0  0  0
    4.5635   -3.1664    3.4794 H   0  0  0  0  0  0  0  0  0  0  0  0
    2.1387   -2.8708    5.7366 H   0  0  0  0  0  0  0  0  0  0  0  0
    3.9091   -5.7266    6.9619 H   0  0  0  0  0  0  0  0  0  0  0  0
    2.1996   -6.3464    6.9528 H   0  0  0  0  0  0  0  0  0  0  0  0
    1.9007   -7.2459    3.3394 H   0  0  0  0  0  0  0  0  0  0  0  0
    1.1167   -7.0063    4.8872 H   0  0  0  0  0  0  0  0  0  0  0  0
    2.3914   -8.1950    4.7317 H   0  0  0  0  0  0  0  0  0  0  0  0
    5.7276   -6.0377    5.6918 H   0  0  0  0  0  0  0  0  0  0  0  0
    5.1696   -4.4153    5.2778 H   0  0  0  0  0  0  0  0  0  0  0  0
    6.4115   -5.1772    4.3549 H   0  0  0  0  0  0  0  0  0  0  0  0
    4.0539   -8.0033    3.1047 H   0  0  0  0  0  0  0  0  0  0  0  0
    5.0079   -8.0416    4.5435 H   0  0  0  0  0  0  0  0  0  0  0  0
  1  2  1  0
  1 31  1  0
  1 32  1  0
  1 33  1  0
  2 30  1  0
  2  3  1  0
  2  4  1  0
  3 34  1  0
  3 35  1  0
  3 36  1  0
  4  5  1  0
  4 37  1  0
  4 38  1  0
  6  5  1  6
  5 39  1  0
  5 40  1  0
  6 20  1  0
  6 28  1  0
  6  7  1  0
  7  8  1  0
  7 41  1  0
  7 42  1  0
  8  9  1  0
  8 10  1  0
  8 43  1  6
  9 44  1  0
 10 18  1  0
 10 11  1  0
 10 45  1  6
 11 12  1  0
 11 16  1  0
 11 46  1  6
 12 13  1  0
 12 14  1  0
 12 15  1  0
 13 47  1  0
 13 48  1  0
 13 49  1  0
 14 50  1  0
 14 51  1  0
 14 52  1  0
 15 53  1  0
 16 17  1  0
 16 54  1  0
 16 55  1  0
 17 18  1  0
 17 56  1  0
 17 57  1  0
 18 19  1  1
 18 20  1  0
 19 58  1  0
 19 59  1  0
 19 60  1  0
 20 21  1  0
 20 61  1  1
 21 22  2  0
 21 23  1  0
 23 24  2  0
 23 62  1  0
 24 26  1  0
 24 25  1  0
 25 26  1  0
 25 63  1  0
 25 64  1  0
 26 27  1  1
 26 28  1  0
 27 65  1  0
 27 66  1  0
 27 67  1  0
 28 29  1  1
 28 30  1  0
 29 68  1  0
 29 69  1  0
 29 70  1  0
 30 71  1  0
 30 72  1  0
M  END
>  <i_m_ct_stereo_status>  (106) 
1

>  <s_m_source_file>  (106) 
/var/tmp/pbs.5076255.sched01/tmpscvaj2_a/3886avry94.sdf

>  <i_m_source_file_index>  (106) 
11

>  <i_lp_mmshare_version>  (106) 
48012

>  <i_f3d_flags>  (106) 
0

>  <s_epik_input>  (106) 
W0NIMl0xW0NIMl1DKFtDSDNdKShbQ0gzXSlbQ0gyXVtDQF0yKFtDSDNdKUMoW0NIMl0zKShbQ0gzXSlDMz1bQ0hdQyg9TylbQ0BASF0oW0NAQF0xMjQpW0NAXTUoW0NIM10pW0NASF0oW0NAQEhdKFtDSDJdNClbT0hdKVtDQEBIXShDKFtDSDNdKShbQ0gzXSlbT0hdKVtDSDJdW0NIMl01

>  <s_epik_cmdline>  (106) 
J2VwaWtfcHl0aG9uJywgJy1waHQnLCAnMi4wJywgJy1waCcsICc3LjAnLCAnLXRuJywgJzgnLCAnLW1hJywgJzIwMCcsICctaW1hZScsICc8aW5maWxlLm1hZT4nLCAnLW9tYWUnLCAnPG91dGZpbGUubWFlPic=

>  <r_lp_tautomer_probability>  (106) 
1

>  <r_epik_Ionization_Penalty>  (106) 
1.32593e-06

>  <r_epik_Ionization_Penalty_Charging>  (106) 
0

>  <r_epik_Ionization_Penalty_Neutral>  (106) 
1.32593e-06

>  <r_epik_State_Penalty>  (106) 
-0

>  <r_epik_Charging_Adjusted_Penalty>  (106) 
0

>  <i_epik_Tot_Q>  (106) 
0

>  <i_epik_Tot_abs_Q>  (106) 
0

>  <s_lp_Force_Field>  (106) 
OPLS3e

>  <r_lp_Energy>  (106) 
101.306

>  <b_lp_Chiralities_Consistent>  (106) 
1

>  <s_lp_Variant>  (106) 
38:0-2

>  <s_i_glide_gridfile>  (106) 
pfpi4k_grid

>  <i_i_glide_lignum>  (106) 
11

>  <i_i_glide_rotatable_bonds>  (106) 
3

>  <r_i_docking_score>  (106) 
-3.08936

>  <r_i_glide_ligand_efficiency>  (106) 
-0.102979

>  <r_i_glide_ligand_efficiency_sa>  (106) 
-0.319978

>  <r_i_glide_ligand_efficiency_ln>  (106) 
-0.701936

>  <r_i_glide_gscore>  (106) 
-3.08936

>  <r_i_glide_lipo>  (106) 
-0.431217

>  <r_i_glide_hbond>  (106) 
0

>  <r_i_glide_metal>  (106) 
-0

>  <r_i_glide_rewards>  (106) 
-0.585151

>  <r_i_glide_evdw>  (106) 
-27.4245

>  <r_i_glide_ecoul>  (106) 
-5.4439

>  <r_i_glide_erotb>  (106) 
0.114823

>  <r_i_glide_esite>  (106) 
0

>  <r_i_glide_emodel>  (106) 
-36.462

>  <r_i_glide_energy>  (106) 
-32.8684

>  <r_i_glide_einternal>  (106) 
5.67021

>  <r_i_glide_intrahb_reward>  (106) 
-0

>  <i_i_glide_confnum>  (106) 
5

>  <i_i_glide_posenum>  (106) 
26

>  <r_i_glide_eff_state_penalty>  (106) 
0

>  <ligand_id>  (106) 
38

>  <original_smiles>  (106) 
CC1(C)CCC23CC(O)C4C(C(C)(C)O)CCC4(C)C2C(=O)C=C2CC2(C)C3(C)C1

>  <smiles>  (106) 
[H]OC1([H])C([H])([H])C23C([H])([H])C([H])([H])C(C([H])([H])[H])(C([H])([H])[H])C([H])([H])C2(C([H])([H])[H])C2(C([H])([H])[H])C(=C([H])C(=O)C3([H])C3(C([H])([H])[H])C([H])([H])C([H])([H])C([H])(C(O[H])(C([H])([H])[H])C([H])([H])[H])C13[H])C2([H])[H]

$$$$
38:1:2
     RDKit          3D

 72 76  0  0  1  0  0  0  0  0999 V2000
    1.2308    0.0336    2.3764 C   0  0  0  0  0  0  0  0  0  0  0  0
    2.4411   -0.8336    2.7817 C   0  0  0  0  0  0  0  0  0  0  0  0
    3.2302   -0.0220    3.8350 C   0  0  0  0  0  0  0  0  0  0  0  0
    1.9121   -2.1535    3.3592 C   0  0  0  0  0  0  0  0  0  0  0  0
    2.9862   -3.2407    3.4899 C   0  0  0  0  0  0  0  0  0  0  0  0
    3.6900   -3.6921    2.1597 C   0  0  2  0  0  0  0  0  0  0  0  0
    2.5988   -4.3263    1.2685 C   0  0  0  0  0  0  0  0  0  0  0  0
    1.8069   -5.4619    1.9575 C   0  0  1  0  0  0  0  0  0  0  0  0
    1.1392   -6.1832    0.9338 O   0  0  0  0  0  0  0  0  0  0  0  0
    2.5837   -6.4497    2.8996 C   0  0  2  0  0  0  0  0  0  0  0  0
    1.8718   -6.6469    4.2931 C   0  0  1  0  0  0  0  0  0  0  0  0
    0.9384   -7.8885    4.4403 C   0  0  0  0  0  0  0  0  0  0  0  0
    1.6256   -9.2469    4.1694 C   0  0  0  0  0  0  0  0  0  0  0  0
    0.2363   -7.9281    5.8143 C   0  0  0  0  0  0  0  0  0  0  0  0
   -0.1191   -7.7495    3.5128 O   0  0  0  0  0  0  0  0  0  0  0  0
    2.9734   -6.5769    5.3681 C   0  0  0  0  0  0  0  0  0  0  0  0
    4.1723   -5.8729    4.7401 C   0  0  0  0  0  0  0  0  0  0  0  0
    4.0942   -6.1363    3.2145 C   0  0  1  0  0  0  0  0  0  0  0  0
    4.8752   -7.4921    3.0950 C   0  0  0  0  0  0  0  0  0  0  0  0
    4.7207   -4.9205    2.3691 C   0  0  1  0  0  0  0  0  0  0  0  0
    5.3892   -5.4217    1.0384 C   0  0  0  0  0  0  0  0  0  0  0  0
    4.9716   -6.4261    0.4721 O   0  0  0  0  0  0  0  0  0  0  0  0
    6.4184   -4.5946    0.4033 C   0  0  0  0  0  0  0  0  0  0  0  0
    6.0156   -3.3909    0.0362 C   0  0  0  0  0  0  0  0  0  0  0  0
    6.3690   -2.0222   -0.3663 C   0  0  0  0  0  0  0  0  0  0  0  0
    4.8945   -2.4510    0.1002 C   0  0  1  0  0  0  0  0  0  0  0  0
    3.9045   -2.3850   -1.0599 C   0  0  0  0  0  0  0  0  0  0  0  0
    4.3176   -2.3184    1.5480 C   0  0  2  0  0  0  0  0  0  0  0  0
    5.4861   -1.8230    2.4499 C   0  0  0  0  0  0  0  0  0  0  0  0
    3.2557   -1.1604    1.5092 C   0  0  0  0  0  0  0  0  0  0  0  0
    0.5913    0.2653    3.2281 H   0  0  0  0  0  0  0  0  0  0  0  0
    0.6095   -0.4857    1.6501 H   0  0  0  0  0  0  0  0  0  0  0  0
    1.5455    0.9715    1.9198 H   0  0  0  0  0  0  0  0  0  0  0  0
    3.7442   -0.6602    4.5497 H   0  0  0  0  0  0  0  0  0  0  0  0
    2.5694    0.6147    4.4250 H   0  0  0  0  0  0  0  0  0  0  0  0
    3.9663    0.6247    3.3598 H   0  0  0  0  0  0  0  0  0  0  0  0
    1.4793   -1.9717    4.3422 H   0  0  0  0  0  0  0  0  0  0  0  0
    1.0944   -2.5244    2.7383 H   0  0  0  0  0  0  0  0  0  0  0  0
    3.7145   -2.9132    4.2174 H   0  0  0  0  0  0  0  0  0  0  0  0
    2.4772   -4.0500    3.9834 H   0  0  0  0  0  0  0  0  0  0  0  0
    1.8932   -3.5718    0.9361 H   0  0  0  0  0  0  0  0  0  0  0  0
    3.0252   -4.7195    0.3516 H   0  0  0  0  0  0  0  0  0  0  0  0
    1.0261   -4.9897    2.5399 H   0  0  0  0  0  0  0  0  0  0  0  0
    1.7748   -6.7284    0.4971 H   0  0  0  0  0  0  0  0  0  0  0  0
    2.5754   -7.3964    2.3569 H   0  0  0  0  0  0  0  0  0  0  0  0
    1.2424   -5.7795    4.4895 H   0  0  0  0  0  0  0  0  0  0  0  0
    2.4396   -9.4365    4.8676 H   0  0  0  0  0  0  0  0  0  0  0  0
    2.0341   -9.3292    3.1637 H   0  0  0  0  0  0  0  0  0  0  0  0
    0.9245  -10.0736    4.2896 H   0  0  0  0  0  0  0  0  0  0  0  0
    0.9448   -7.9060    6.6418 H   0  0  0  0  0  0  0  0  0  0  0  0
   -0.3436   -8.8459    5.9340 H   0  0  0  0  0  0  0  0  0  0  0  0
   -0.4427   -7.0835    5.9436 H   0  0  0  0  0  0  0  0  0  0  0  0
   -0.6219   -8.5453    3.5328 H   0  0  0  0  0  0  0  0  0  0  0  0
    2.6392   -6.0719    6.2754 H   0  0  0  0  0  0  0  0  0  0  0  0
    3.2903   -7.5691    5.6774 H   0  0  0  0  0  0  0  0  0  0  0  0
    4.1817   -4.8270    5.0140 H   0  0  0  0  0  0  0  0  0  0  0  0
    5.0984   -6.2593    5.1660 H   0  0  0  0  0  0  0  0  0  0  0  0
    5.9535   -7.3452    3.1335 H   0  0  0  0  0  0  0  0  0  0  0  0
    4.6447   -8.0616    2.1948 H   0  0  0  0  0  0  0  0  0  0  0  0
    4.6194   -8.1809    3.9007 H   0  0  0  0  0  0  0  0  0  0  0  0
    5.5540   -4.5463    2.9642 H   0  0  0  0  0  0  0  0  0  0  0  0
    7.4386   -4.9206    0.2637 H   0  0  0  0  0  0  0  0  0  0  0  0
    6.9479   -1.3836    0.2949 H   0  0  0  0  0  0  0  0  0  0  0  0
    6.5016   -1.7996   -1.4191 H   0  0  0  0  0  0  0  0  0  0  0  0
    2.9918   -2.9325   -0.8784 H   0  0  0  0  0  0  0  0  0  0  0  0
    4.3654   -2.7873   -1.9520 H   0  0  0  0  0  0  0  0  0  0  0  0
    3.6418   -1.3488   -1.2569 H   0  0  0  0  0  0  0  0  0  0  0  0
    5.8225   -0.8318    2.1503 H   0  0  0  0  0  0  0  0  0  0  0  0
    6.3371   -2.4934    2.4092 H   0  0  0  0  0  0  0  0  0  0  0  0
    5.2388   -1.7501    3.4919 H   0  0  0  0  0  0  0  0  0  0  0  0
    2.4951   -1.4187    0.7757 H   0  0  0  0  0  0  0  0  0  0  0  0
    3.7178   -0.2482    1.1248 H   0  0  0  0  0  0  0  0  0  0  0  0
  1  2  1  0
  1 31  1  0
  1 32  1  0
  1 33  1  0
  2 30  1  0
  2  3  1  0
  2  4  1  0
  3 34  1  0
  3 35  1  0
  3 36  1  0
  4  5  1  0
  4 37  1  0
  4 38  1  0
  6  5  1  1
  5 39  1  0
  5 40  1  0
  6 20  1  0
  6 28  1  0
  6  7  1  0
  7  8  1  0
  7 41  1  0
  7 42  1  0
  8  9  1  0
  8 10  1  0
  8 43  1  1
  9 44  1  0
 10 18  1  0
 10 11  1  0
 10 45  1  6
 11 12  1  0
 11 16  1  0
 11 46  1  1
 12 13  1  0
 12 14  1  0
 12 15  1  0
 13 47  1  0
 13 48  1  0
 13 49  1  0
 14 50  1  0
 14 51  1  0
 14 52  1  0
 15 53  1  0
 16 17  1  0
 16 54  1  0
 16 55  1  0
 17 18  1  0
 17 56  1  0
 17 57  1  0
 18 19  1  1
 18 20  1  0
 19 58  1  0
 19 59  1  0
 19 60  1  0
 20 21  1  0
 20 61  1  1
 21 22  2  0
 21 23  1  0
 23 24  2  0
 23 62  1  0
 24 26  1  0
 24 25  1  0
 25 26  1  0
 25 63  1  0
 25 64  1  0
 26 27  1  6
 26 28  1  0
 27 65  1  0
 27 66  1  0
 27 67  1  0
 28 29  1  1
 28 30  1  0
 29 68  1  0
 29 69  1  0
 29 70  1  0
 30 71  1  0
 30 72  1  0
M  END
>  <i_m_ct_stereo_status>  (107) 
1

>  <s_m_source_file>  (107) 
/var/tmp/pbs.5076255.sched01/tmpscvaj2_a/3886avry94.sdf

>  <i_m_source_file_index>  (107) 
11

>  <i_lp_mmshare_version>  (107) 
48012

>  <i_f3d_flags>  (107) 
0

>  <s_epik_input>  (107) 
W0NIMl0xW0NIMl1DKFtDSDNdKShbQ0gzXSlbQ0gyXVtDQF0yKFtDSDNdKUMoW0NIMl0zKShbQ0gzXSlDMz1bQ0hdQyg9TylbQ0BASF0oW0NAQF0xMjQpW0NAXTUoW0NIM10pW0NASF0oW0NAQEhdKFtDSDJdNClbT0hdKVtDQEBIXShDKFtDSDNdKShbQ0gzXSlbT0hdKVtDSDJdW0NIMl01

>  <s_epik_cmdline>  (107) 
J2VwaWtfcHl0aG9uJywgJy1waHQnLCAnMi4wJywgJy1waCcsICc3LjAnLCAnLXRuJywgJzgnLCAnLW1hJywgJzIwMCcsICctaW1hZScsICc8aW5maWxlLm1hZT4nLCAnLW9tYWUnLCAnPG91dGZpbGUubWFlPic=

>  <r_lp_tautomer_probability>  (107) 
1

>  <r_epik_Ionization_Penalty>  (107) 
1.32593e-06

>  <r_epik_Ionization_Penalty_Charging>  (107) 
0

>  <r_epik_Ionization_Penalty_Neutral>  (107) 
1.32593e-06

>  <r_epik_State_Penalty>  (107) 
-0

>  <r_epik_Charging_Adjusted_Penalty>  (107) 
0

>  <i_epik_Tot_Q>  (107) 
0

>  <i_epik_Tot_abs_Q>  (107) 
0

>  <s_lp_Force_Field>  (107) 
OPLS3e

>  <r_lp_Energy>  (107) 
101.306

>  <b_lp_Chiralities_Consistent>  (107) 
1

>  <s_lp_Variant>  (107) 
38:0-2

>  <s_i_glide_gridfile>  (107) 
pfpi4k_grid

>  <i_i_glide_lignum>  (107) 
11

>  <i_i_glide_rotatable_bonds>  (107) 
3

>  <r_i_docking_score>  (107) 
-2.88297

>  <r_i_glide_ligand_efficiency>  (107) 
-0.0960991

>  <r_i_glide_ligand_efficiency_sa>  (107) 
-0.298602

>  <r_i_glide_ligand_efficiency_ln>  (107) 
-0.655043

>  <r_i_glide_gscore>  (107) 
-2.88297

>  <r_i_glide_lipo>  (107) 
-0.300345

>  <r_i_glide_hbond>  (107) 
0

>  <r_i_glide_metal>  (107) 
-0

>  <r_i_glide_rewards>  (107) 
-0.685914

>  <r_i_glide_evdw>  (107) 
-27.3321

>  <r_i_glide_ecoul>  (107) 
-4.29956

>  <r_i_glide_erotb>  (107) 
0.114823

>  <r_i_glide_esite>  (107) 
0

>  <r_i_glide_emodel>  (107) 
-37.5776

>  <r_i_glide_energy>  (107) 
-31.6316

>  <r_i_glide_einternal>  (107) 
0.742459

>  <r_i_glide_intrahb_reward>  (107) 
-0

>  <i_i_glide_confnum>  (107) 
3

>  <i_i_glide_posenum>  (107) 
2

>  <r_i_glide_eff_state_penalty>  (107) 
0

>  <ligand_id>  (107) 
38

>  <original_smiles>  (107) 
CC1(C)CCC23CC(O)C4C(C(C)(C)O)CCC4(C)C2C(=O)C=C2CC2(C)C3(C)C1

>  <smiles>  (107) 
[H]OC1([H])C([H])([H])C23C([H])([H])C([H])([H])C(C([H])([H])[H])(C([H])([H])[H])C([H])([H])C2(C([H])([H])[H])C2(C([H])([H])[H])C(=C([H])C(=O)C3([H])C3(C([H])([H])[H])C([H])([H])C([H])([H])C([H])(C(O[H])(C([H])([H])[H])C([H])([H])[H])C13[H])C2([H])[H]

$$$$
39:0:0
     RDKit          3D

 30 36  0  0  1  0  0  0  0  0999 V2000
    3.6368   -1.3549    0.4597 C   0  0  0  0  0  0  0  0  0  0  0  0
    3.0318   -2.7798    0.3314 C   0  0  0  0  0  0  0  0  0  0  0  0
    3.4023   -3.4675   -1.0039 C   0  0  2  0  0  0  0  0  0  0  0  0
    4.8909   -3.7351   -1.0271 C   0  0  2  0  0  0  0  0  0  0  0  0
    5.7128   -2.5585   -0.4921 C   0  0  2  0  0  0  0  0  0  0  0  0
    4.9750   -1.2258   -0.2737 C   0  0  1  0  0  0  0  0  0  0  0  0
    4.9693   -1.0202   -1.8193 C   0  0  1  0  0  0  0  0  0  0  0  0
    6.0094   -2.1747   -1.9134 C   0  0  2  0  0  0  0  0  0  0  0  0
    5.4639   -3.5265   -2.4225 C   0  0  2  0  0  0  0  0  0  0  0  0
    4.3671   -3.3820   -3.5262 C   0  0  1  0  0  0  0  0  0  0  0  0
    2.9332   -2.8304   -3.3444 C   0  0  1  0  0  0  0  0  0  0  0  0
    3.0285   -2.5119   -2.2062 C   0  0  2  0  0  0  0  0  0  0  0  0
    4.1158   -1.9583   -3.6765 C   0  0  1  0  0  0  0  0  0  0  0  0
    3.6388   -1.2873   -2.7318 C   0  0  1  0  0  0  0  0  0  0  0  0
    3.7297   -1.0858    1.5135 H   0  0  0  0  0  0  0  0  0  0  0  0
    2.9326   -0.6407    0.0358 H   0  0  0  0  0  0  0  0  0  0  0  0
    3.4018   -3.4002    1.1463 H   0  0  0  0  0  0  0  0  0  0  0  0
    1.9501   -2.7382    0.4550 H   0  0  0  0  0  0  0  0  0  0  0  0
    2.8581   -4.4041   -1.0889 H   0  0  0  0  0  0  0  0  0  0  0  0
    5.2133   -4.6783   -0.5832 H   0  0  0  0  0  0  0  0  0  0  0  0
    6.5864   -2.7793    0.1159 H   0  0  0  0  0  0  0  0  0  0  0  0
    5.6405   -0.4804    0.1708 H   0  0  0  0  0  0  0  0  0  0  0  0
    5.4298   -0.0784   -2.0931 H   0  0  0  0  0  0  0  0  0  0  0  0
    7.0508   -1.9336   -2.1066 H   0  0  0  0  0  0  0  0  0  0  0  0
    6.2464   -4.2361   -2.6674 H   0  0  0  0  0  0  0  0  0  0  0  0
    4.6000   -3.8392   -4.4865 H   0  0  0  0  0  0  0  0  0  0  0  0
    2.0345   -2.8149   -3.9991 H   0  0  0  0  0  0  0  0  0  0  0  0
    1.9484   -2.2747   -2.0674 H   0  0  0  0  0  0  0  0  0  0  0  0
    3.8139   -1.5169   -4.6779 H   0  0  0  0  0  0  0  0  0  0  0  0
    3.1618   -0.3646   -3.0847 H   0  0  0  0  0  0  0  0  0  0  0  0
  1  6  1  0
  1  2  1  0
  1 15  1  0
  1 16  1  0
  2  3  1  0
  2 17  1  0
  2 18  1  0
  3 12  1  0
  3  4  1  0
  3 19  1  6
  4  9  1  0
  4  5  1  0
  4 20  1  1
  5  8  1  0
  5  6  1  0
  5 21  1  1
  6  7  1  0
  6 22  1  1
  7 14  1  0
  7  8  1  0
  7 23  1  1
  8  9  1  0
  8 24  1  1
  9 10  1  0
  9 25  1  6
 10 13  1  0
 10 11  1  0
 10 26  1  6
 11 14  1  0
 11 12  1  0
 11 27  1  6
 12 13  1  0
 12 28  1  1
 13 14  1  0
 13 29  1  6
 14 30  1  6
M  END
>  <i_m_ct_stereo_status>  (108) 
1

>  <s_m_source_file>  (108) 
/var/tmp/pbs.5076255.sched01/tmpscvaj2_a/3886avry94.sdf

>  <i_m_source_file_index>  (108) 
12

>  <i_lp_mmshare_version>  (108) 
48012

>  <i_f3d_flags>  (108) 
0

>  <s_epik_input>  (108) 
W0NASF0xMltDQEBIXTNbQ0BASF00W0NASF0oW0NIMl1bQ0gyXTEpW0NASF01W0NAQEhdNFtDQEBIXTNbQ0BIXTZbQ0BIXTdbQ0BASF0yW0NIXTZbQ0BIXTU3

>  <s_epik_cmdline>  (108) 
J2VwaWtfcHl0aG9uJywgJy1waHQnLCAnMi4wJywgJy1waCcsICc3LjAnLCAnLXRuJywgJzgnLCAnLW1hJywgJzIwMCcsICctaW1hZScsICc8aW5maWxlLm1hZT4nLCAnLW9tYWUnLCAnPG91dGZpbGUubWFlPic=

>  <r_lp_tautomer_probability>  (108) 
1

>  <r_epik_Ionization_Penalty>  (108) 
0

>  <r_epik_Ionization_Penalty_Charging>  (108) 
0

>  <r_epik_Ionization_Penalty_Neutral>  (108) 
0

>  <r_epik_State_Penalty>  (108) 
-0

>  <r_epik_Charging_Adjusted_Penalty>  (108) 
0

>  <i_epik_Tot_Q>  (108) 
0

>  <i_epik_Tot_abs_Q>  (108) 
0

>  <s_lp_Force_Field>  (108) 
OPLS3e

>  <r_lp_Energy>  (108) 
444.386

>  <b_lp_Chiralities_Consistent>  (108) 
1

>  <s_lp_Variant>  (108) 
39:0-1

>  <s_i_glide_gridfile>  (108) 
pfpi4k_grid

>  <i_i_glide_lignum>  (108) 
12

>  <i_i_glide_rotatable_bonds>  (108) 
0

>  <r_i_docking_score>  (108) 
-4.02283

>  <r_i_glide_ligand_efficiency>  (108) 
-0.287345

>  <r_i_glide_ligand_efficiency_sa>  (108) 
-0.692542

>  <r_i_glide_ligand_efficiency_ln>  (108) 
-1.10546

>  <r_i_glide_gscore>  (108) 
-4.02283

>  <r_i_glide_lipo>  (108) 
-0.786357

>  <r_i_glide_hbond>  (108) 
0

>  <r_i_glide_metal>  (108) 
-0

>  <r_i_glide_rewards>  (108) 
-2.15266

>  <r_i_glide_evdw>  (108) 
-21.6625

>  <r_i_glide_ecoul>  (108) 
-0.00459528

>  <r_i_glide_erotb>  (108) 
0

>  <r_i_glide_esite>  (108) 
0

>  <r_i_glide_emodel>  (108) 
-26.8743

>  <r_i_glide_energy>  (108) 
-21.6671

>  <r_i_glide_einternal>  (108) 
0

>  <r_i_glide_intrahb_reward>  (108) 
-0

>  <i_i_glide_confnum>  (108) 
1

>  <i_i_glide_posenum>  (108) 
28

>  <r_i_glide_eff_state_penalty>  (108) 
0

>  <ligand_id>  (108) 
39

>  <original_smiles>  (108) 
C1CC2C3C4C1C1C4C3C3C4C2C3C14

>  <smiles>  (108) 
[H]C1([H])C([H])([H])C2([H])C3([H])C4([H])C1([H])C1([H])C4([H])C3([H])C3([H])C4([H])C2([H])C3([H])C14[H]

$$$$
39:0:1
     RDKit          3D

 30 36  0  0  1  0  0  0  0  0999 V2000
    6.1026   -1.3246    1.1574 C   0  0  0  0  0  0  0  0  0  0  0  0
    4.7590   -0.5850    0.9266 C   0  0  0  0  0  0  0  0  0  0  0  0
    3.8820   -1.2795   -0.1430 C   0  0  2  0  0  0  0  0  0  0  0  0
    3.4276   -2.6269    0.3852 C   0  0  2  0  0  0  0  0  0  0  0  0
    4.5508   -3.3958    1.0925 C   0  0  2  0  0  0  0  0  0  0  0  0
    5.9799   -2.8407    0.9493 C   0  0  1  0  0  0  0  0  0  0  0  0
    6.0135   -3.4027   -0.5058 C   0  0  1  0  0  0  0  0  0  0  0  0
    4.7327   -4.2243   -0.1497 C   0  0  2  0  0  0  0  0  0  0  0  0
    3.3940   -3.6730   -0.7247 C   0  0  2  0  0  0  0  0  0  0  0  0
    3.5495   -3.0454   -2.1462 C   0  0  1  0  0  0  0  0  0  0  0  0
    4.2983   -1.7356   -2.5301 C   0  0  1  0  0  0  0  0  0  0  0  0
    4.7409   -1.4842   -1.4450 C   0  0  2  0  0  0  0  0  0  0  0  0
    4.9678   -3.0855   -2.4774 C   0  0  1  0  0  0  0  0  0  0  0  0
    5.8042   -2.4347   -1.8003 C   0  0  1  0  0  0  0  0  0  0  0  0
    6.4735   -1.0982    2.1568 H   0  0  0  0  0  0  0  0  0  0  0  0
    6.8495   -0.9260    0.4730 H   0  0  0  0  0  0  0  0  0  0  0  0
    4.1950   -0.5529    1.8578 H   0  0  0  0  0  0  0  0  0  0  0  0
    4.9361    0.4555    0.6513 H   0  0  0  0  0  0  0  0  0  0  0  0
    3.0183   -0.6566   -0.3543 H   0  0  0  0  0  0  0  0  0  0  0  0
    2.5123   -2.6130    0.9754 H   0  0  0  0  0  0  0  0  0  0  0  0
    4.2909   -3.9512    1.9941 H   0  0  0  0  0  0  0  0  0  0  0  0
    6.6755   -3.4177    1.5609 H   0  0  0  0  0  0  0  0  0  0  0  0
    6.8627   -4.0709   -0.6416 H   0  0  0  0  0  0  0  0  0  0  0  0
    4.8345   -5.2985    0.0043 H   0  0  0  0  0  0  0  0  0  0  0  0
    2.5671   -4.3737   -0.6167 H   0  0  0  0  0  0  0  0  0  0  0  0
    2.9601   -3.5133   -2.9388 H   0  0  0  0  0  0  0  0  0  0  0  0
    4.3514   -1.1340   -3.4525 H   0  0  0  0  0  0  0  0  0  0  0  0
    5.1444   -0.4697   -1.7028 H   0  0  0  0  0  0  0  0  0  0  0  0
    5.3194   -3.2275   -3.5383 H   0  0  0  0  0  0  0  0  0  0  0  0
    6.7369   -2.2751   -2.3573 H   0  0  0  0  0  0  0  0  0  0  0  0
  1  6  1  0
  1  2  1  0
  1 15  1  0
  1 16  1  0
  2  3  1  0
  2 17  1  0
  2 18  1  0
  3 12  1  0
  3  4  1  0
  3 19  1  6
  4  9  1  0
  4  5  1  0
  4 20  1  1
  5  8  1  0
  5  6  1  0
  5 21  1  1
  6  7  1  0
  6 22  1  1
  7 14  1  0
  7  8  1  0
  7 23  1  6
  8  9  1  0
  8 24  1  1
  9 10  1  0
  9 25  1  6
 10 13  1  0
 10 11  1  0
 10 26  1  6
 11 14  1  0
 11 12  1  0
 11 27  1  6
 12 13  1  0
 12 28  1  6
 13 14  1  0
 13 29  1  6
 14 30  1  6
M  END
>  <i_m_ct_stereo_status>  (109) 
1

>  <s_m_source_file>  (109) 
/var/tmp/pbs.5076255.sched01/tmpscvaj2_a/3886avry94.sdf

>  <i_m_source_file_index>  (109) 
12

>  <i_lp_mmshare_version>  (109) 
48012

>  <i_f3d_flags>  (109) 
0

>  <s_epik_input>  (109) 
W0NASF0xMltDQEBIXTNbQ0BASF00W0NASF0oW0NIMl1bQ0gyXTEpW0NASF01W0NAQEhdNFtDQEBIXTNbQ0BIXTZbQ0BIXTdbQ0BASF0yW0NIXTZbQ0BIXTU3

>  <s_epik_cmdline>  (109) 
J2VwaWtfcHl0aG9uJywgJy1waHQnLCAnMi4wJywgJy1waCcsICc3LjAnLCAnLXRuJywgJzgnLCAnLW1hJywgJzIwMCcsICctaW1hZScsICc8aW5maWxlLm1hZT4nLCAnLW9tYWUnLCAnPG91dGZpbGUubWFlPic=

>  <r_lp_tautomer_probability>  (109) 
1

>  <r_epik_Ionization_Penalty>  (109) 
0

>  <r_epik_Ionization_Penalty_Charging>  (109) 
0

>  <r_epik_Ionization_Penalty_Neutral>  (109) 
0

>  <r_epik_State_Penalty>  (109) 
-0

>  <r_epik_Charging_Adjusted_Penalty>  (109) 
0

>  <i_epik_Tot_Q>  (109) 
0

>  <i_epik_Tot_abs_Q>  (109) 
0

>  <s_lp_Force_Field>  (109) 
OPLS3e

>  <r_lp_Energy>  (109) 
444.386

>  <b_lp_Chiralities_Consistent>  (109) 
1

>  <s_lp_Variant>  (109) 
39:0-1

>  <s_i_glide_gridfile>  (109) 
pfpi4k_grid

>  <i_i_glide_lignum>  (109) 
12

>  <i_i_glide_rotatable_bonds>  (109) 
0

>  <r_i_docking_score>  (109) 
-3.89895

>  <r_i_glide_ligand_efficiency>  (109) 
-0.278496

>  <r_i_glide_ligand_efficiency_sa>  (109) 
-0.671216

>  <r_i_glide_ligand_efficiency_ln>  (109) 
-1.07142

>  <r_i_glide_gscore>  (109) 
-3.89895

>  <r_i_glide_lipo>  (109) 
-0.68427

>  <r_i_glide_hbond>  (109) 
0

>  <r_i_glide_metal>  (109) 
-0

>  <r_i_glide_rewards>  (109) 
-2.15266

>  <r_i_glide_evdw>  (109) 
-21.0211

>  <r_i_glide_ecoul>  (109) 
-0.0731126

>  <r_i_glide_erotb>  (109) 
0

>  <r_i_glide_esite>  (109) 
0

>  <r_i_glide_emodel>  (109) 
-26.1494

>  <r_i_glide_energy>  (109) 
-21.0942

>  <r_i_glide_einternal>  (109) 
0

>  <r_i_glide_intrahb_reward>  (109) 
-0

>  <i_i_glide_confnum>  (109) 
2

>  <i_i_glide_posenum>  (109) 
1

>  <r_i_glide_eff_state_penalty>  (109) 
0

>  <ligand_id>  (109) 
39

>  <original_smiles>  (109) 
C1CC2C3C4C1C1C4C3C3C4C2C3C14

>  <smiles>  (109) 
[H]C1([H])C([H])([H])C2([H])C3([H])C4([H])C1([H])C1([H])C4([H])C3([H])C3([H])C4([H])C2([H])C3([H])C14[H]

$$$$
39:0:2
     RDKit          3D

 30 36  0  0  1  0  0  0  0  0999 V2000
    3.9779   -2.7488   -2.7305 C   0  0  0  0  0  0  0  0  0  0  0  0
    3.7526   -1.3644   -2.0656 C   0  0  0  0  0  0  0  0  0  0  0  0
    4.2078   -1.3402   -0.5858 C   0  0  2  0  0  0  0  0  0  0  0  0
    5.7130   -1.4839   -0.5341 C   0  0  2  0  0  0  0  0  0  0  0  0
    6.2484   -2.5518   -1.5022 C   0  0  2  0  0  0  0  0  0  0  0  0
    5.2076   -3.4712   -2.1649 C   0  0  1  0  0  0  0  0  0  0  0  0
    5.0736   -4.2378   -0.8073 C   0  0  1  0  0  0  0  0  0  0  0  0
    6.3727   -3.5013   -0.3436 C   0  0  2  0  0  0  0  0  0  0  0  0
    6.1584   -2.3283    0.6578 C   0  0  2  0  0  0  0  0  0  0  0  0
    4.9998   -2.5870    1.6722 C   0  0  1  0  0  0  0  0  0  0  0  0
    3.4748   -2.6446    1.3645 C   0  0  1  0  0  0  0  0  0  0  0  0
    3.5377   -2.5450    0.1743 C   0  0  2  0  0  0  0  0  0  0  0  0
    4.3822   -3.8522    1.2984 C   0  0  1  0  0  0  0  0  0  0  0  0
    3.8042   -3.9873    0.1919 C   0  0  1  0  0  0  0  0  0  0  0  0
    4.0600   -2.6266   -3.8114 H   0  0  0  0  0  0  0  0  0  0  0  0
    3.0946   -3.3682   -2.5703 H   0  0  0  0  0  0  0  0  0  0  0  0
    4.3099   -0.6011   -2.6118 H   0  0  0  0  0  0  0  0  0  0  0  0
    2.7005   -1.0798   -2.1459 H   0  0  0  0  0  0  0  0  0  0  0  0
    3.9165   -0.3940   -0.1291 H   0  0  0  0  0  0  0  0  0  0  0  0
    6.2427   -0.5369   -0.6039 H   0  0  0  0  0  0  0  0  0  0  0  0
    7.1775   -2.3443   -2.0376 H   0  0  0  0  0  0  0  0  0  0  0  0
    5.6827   -4.1325   -2.8928 H   0  0  0  0  0  0  0  0  0  0  0  0
    5.2621   -5.3050   -0.9448 H   0  0  0  0  0  0  0  0  0  0  0  0
    7.2970   -4.0783   -0.2909 H   0  0  0  0  0  0  0  0  0  0  0  0
    7.0890   -1.9708    1.1007 H   0  0  0  0  0  0  0  0  0  0  0  0
    5.2854   -2.5951    2.7273 H   0  0  0  0  0  0  0  0  0  0  0  0
    2.5732   -2.6819    2.0040 H   0  0  0  0  0  0  0  0  0  0  0  0
    2.4352   -2.4407   -0.0167 H   0  0  0  0  0  0  0  0  0  0  0  0
    3.9435   -4.5385    2.0785 H   0  0  0  0  0  0  0  0  0  0  0  0
    3.0989   -4.8325    0.1999 H   0  0  0  0  0  0  0  0  0  0  0  0
  1  6  1  0
  1  2  1  0
  1 15  1  0
  1 16  1  0
  2  3  1  0
  2 17  1  0
  2 18  1  0
  3 12  1  0
  3  4  1  0
  3 19  1  1
  4  9  1  0
  4  5  1  0
  4 20  1  6
  5  8  1  0
  5  6  1  0
  5 21  1  6
  6  7  1  0
  6 22  1  6
  7 14  1  0
  7  8  1  0
  7 23  1  6
  8  9  1  0
  8 24  1  1
  9 10  1  0
  9 25  1  1
 10 13  1  0
 10 11  1  0
 10 26  1  1
 11 14  1  0
 11 12  1  0
 11 27  1  1
 12 13  1  0
 12 28  1  6
 13 14  1  0
 13 29  1  1
 14 30  1  1
M  END
>  <i_m_ct_stereo_status>  (110) 
1

>  <s_m_source_file>  (110) 
/var/tmp/pbs.5076255.sched01/tmpscvaj2_a/3886avry94.sdf

>  <i_m_source_file_index>  (110) 
12

>  <i_lp_mmshare_version>  (110) 
48012

>  <i_f3d_flags>  (110) 
0

>  <s_epik_input>  (110) 
W0NASF0xMltDQEBIXTNbQ0BASF00W0NASF0oW0NIMl1bQ0gyXTEpW0NASF01W0NAQEhdNFtDQEBIXTNbQ0BIXTZbQ0BIXTdbQ0BASF0yW0NIXTZbQ0BIXTU3

>  <s_epik_cmdline>  (110) 
J2VwaWtfcHl0aG9uJywgJy1waHQnLCAnMi4wJywgJy1waCcsICc3LjAnLCAnLXRuJywgJzgnLCAnLW1hJywgJzIwMCcsICctaW1hZScsICc8aW5maWxlLm1hZT4nLCAnLW9tYWUnLCAnPG91dGZpbGUubWFlPic=

>  <r_lp_tautomer_probability>  (110) 
1

>  <r_epik_Ionization_Penalty>  (110) 
0

>  <r_epik_Ionization_Penalty_Charging>  (110) 
0

>  <r_epik_Ionization_Penalty_Neutral>  (110) 
0

>  <r_epik_State_Penalty>  (110) 
-0

>  <r_epik_Charging_Adjusted_Penalty>  (110) 
0

>  <i_epik_Tot_Q>  (110) 
0

>  <i_epik_Tot_abs_Q>  (110) 
0

>  <s_lp_Force_Field>  (110) 
OPLS3e

>  <r_lp_Energy>  (110) 
444.386

>  <b_lp_Chiralities_Consistent>  (110) 
1

>  <s_lp_Variant>  (110) 
39:0-1

>  <s_i_glide_gridfile>  (110) 
pfpi4k_grid

>  <i_i_glide_lignum>  (110) 
12

>  <i_i_glide_rotatable_bonds>  (110) 
0

>  <r_i_docking_score>  (110) 
-3.57564

>  <r_i_glide_ligand_efficiency>  (110) 
-0.255403

>  <r_i_glide_ligand_efficiency_sa>  (110) 
-0.615557

>  <r_i_glide_ligand_efficiency_ln>  (110) 
-0.982573

>  <r_i_glide_gscore>  (110) 
-3.57564

>  <r_i_glide_lipo>  (110) 
-0.423132

>  <r_i_glide_hbond>  (110) 
0

>  <r_i_glide_metal>  (110) 
-0

>  <r_i_glide_rewards>  (110) 
-2.15266

>  <r_i_glide_evdw>  (110) 
-19.3375

>  <r_i_glide_ecoul>  (110) 
-0.21983

>  <r_i_glide_erotb>  (110) 
0

>  <r_i_glide_esite>  (110) 
0

>  <r_i_glide_emodel>  (110) 
-24.1895

>  <r_i_glide_energy>  (110) 
-19.5573

>  <r_i_glide_einternal>  (110) 
0

>  <r_i_glide_intrahb_reward>  (110) 
-0

>  <i_i_glide_confnum>  (110) 
1

>  <i_i_glide_posenum>  (110) 
7

>  <r_i_glide_eff_state_penalty>  (110) 
0

>  <ligand_id>  (110) 
39

>  <original_smiles>  (110) 
C1CC2C3C4C1C1C4C3C3C4C2C3C14

>  <smiles>  (110) 
[H]C1([H])C([H])([H])C2([H])C3([H])C4([H])C1([H])C1([H])C4([H])C3([H])C3([H])C4([H])C2([H])C3([H])C14[H]

$$$$
40:0:0
     RDKit          3D

 72 77  0  0  1  0  0  0  0  0999 V2000
    4.8130   -3.7464   -2.6612 C   0  0  0  0  0  0  0  0  0  0  0  0
    4.7049   -3.9050   -1.1253 C   0  0  2  0  0  0  0  0  0  0  0  0
    4.6250   -5.2878   -0.8483 O   0  0  0  0  0  0  0  0  0  0  0  0
    5.1735   -5.8296    0.3373 C   0  0  0  0  0  0  0  0  0  0  0  0
    4.8400   -5.1699    1.7128 C   0  0  1  0  0  0  0  0  0  0  0  0
    5.2478   -6.2025    2.8000 C   0  0  0  0  0  0  0  0  0  0  0  0
    6.2195   -6.9384    2.6135 O   0  0  0  0  0  0  0  0  0  0  0  0
    4.5220   -6.3111    4.1573 C   0  0  1  0  0  0  0  0  0  0  0  0
    4.2036   -4.9868    4.9263 C   0  0  0  0  0  0  0  0  0  0  0  0
    3.1877   -3.8969    4.4308 C   0  0  0  0  0  0  0  0  0  0  0  0
    1.6867   -4.2113    4.6826 C   0  0  0  0  0  0  0  0  0  0  0  0
    3.3496   -2.6931    5.4199 C   0  0  0  0  0  0  0  0  0  0  0  0
    3.3984   -3.5383    2.8996 C   0  0  1  0  0  0  0  0  0  0  0  0
    4.7508   -2.8075    2.5171 C   0  0  1  0  0  0  0  0  0  0  0  0
    5.3896   -2.2432    3.6418 O   0  0  0  0  0  0  0  0  0  0  0  0
    5.7071   -3.9205    2.0893 C   0  0  2  0  0  0  0  0  0  0  0  0
    6.9613   -3.5262    1.2608 C   0  0  0  0  0  0  0  0  0  0  0  0
    7.8721   -4.3325    1.0824 O   0  0  0  0  0  0  0  0  0  0  0  0
    7.1034   -2.1079    0.6754 C   0  0  0  0  0  0  0  0  0  0  0  0
    6.1308   -1.0736    1.2472 C   0  0  0  0  0  0  0  0  0  0  0  0
    4.6832   -1.6104    1.4995 C   0  0  2  0  0  0  0  0  0  0  0  0
    4.0543   -0.5368    2.1958 O   0  0  0  0  0  0  0  0  0  0  0  0
    3.8133   -1.7771    0.1940 C   0  0  1  0  0  0  0  0  0  0  0  0
    4.2229   -0.7536   -0.8903 C   0  0  0  0  0  0  0  0  0  0  0  0
    3.5189   -3.1848   -0.4153 C   0  0  1  0  0  0  0  0  0  0  0  0
    2.6098   -2.8563   -1.4585 O   0  0  0  0  0  0  0  0  0  0  0  0
    2.6803   -4.1087    0.5336 C   0  0  1  0  0  0  0  0  0  0  0  0
    1.9979   -5.0559   -0.3065 O   0  0  0  0  0  0  0  0  0  0  0  0
    3.3183   -4.7489    1.8584 C   0  0  1  0  0  0  0  0  0  0  0  0
    2.3581   -6.0202    2.1142 C   0  0  0  0  0  0  0  0  0  0  0  0
    2.1932   -6.9376    3.3645 C   0  0  0  0  0  0  0  0  0  0  0  0
    3.4254   -7.3919    4.1408 C   0  0  1  0  0  0  0  0  0  0  0  0
    3.9099   -8.7757    3.6439 C   0  0  0  0  0  0  0  0  0  0  0  0
    3.0307   -7.6351    5.4813 O   0  0  0  0  0  0  0  0  0  0  0  0
    4.8311   -2.7031   -2.9722 H   0  0  0  0  0  0  0  0  0  0  0  0
    3.9884   -4.2283   -3.1864 H   0  0  0  0  0  0  0  0  0  0  0  0
    5.7285   -4.2081   -3.0272 H   0  0  0  0  0  0  0  0  0  0  0  0
    5.6449   -3.5267   -0.8039 H   0  0  0  0  0  0  0  0  0  0  0  0
    4.7876   -6.8493    0.3428 H   0  0  0  0  0  0  0  0  0  0  0  0
    6.2446   -5.9577    0.1865 H   0  0  0  0  0  0  0  0  0  0  0  0
    5.3006   -6.7534    4.7818 H   0  0  0  0  0  0  0  0  0  0  0  0
    3.9382   -5.2470    5.9524 H   0  0  0  0  0  0  0  0  0  0  0  0
    5.1714   -4.4998    5.0408 H   0  0  0  0  0  0  0  0  0  0  0  0
    1.1182   -3.3341    4.9908 H   0  0  0  0  0  0  0  0  0  0  0  0
    1.5604   -4.9480    5.4770 H   0  0  0  0  0  0  0  0  0  0  0  0
    1.1533   -4.5197    3.7926 H   0  0  0  0  0  0  0  0  0  0  0  0
    2.9847   -1.7634    4.9839 H   0  0  0  0  0  0  0  0  0  0  0  0
    4.3699   -2.5332    5.7660 H   0  0  0  0  0  0  0  0  0  0  0  0
    2.7990   -2.8515    6.3484 H   0  0  0  0  0  0  0  0  0  0  0  0
    2.5978   -2.8210    2.7054 H   0  0  0  0  0  0  0  0  0  0  0  0
    4.8600   -1.5017    3.8902 H   0  0  0  0  0  0  0  0  0  0  0  0
    6.2143   -4.1797    3.0157 H   0  0  0  0  0  0  0  0  0  0  0  0
    8.1204   -1.7663    0.8688 H   0  0  0  0  0  0  0  0  0  0  0  0
    7.0286   -2.1370   -0.4093 H   0  0  0  0  0  0  0  0  0  0  0  0
    6.5654   -0.7089    2.1794 H   0  0  0  0  0  0  0  0  0  0  0  0
    6.1556   -0.1729    0.6293 H   0  0  0  0  0  0  0  0  0  0  0  0
    3.9300    0.1767    1.5873 H   0  0  0  0  0  0  0  0  0  0  0  0
    2.8164   -1.4418    0.4917 H   0  0  0  0  0  0  0  0  0  0  0  0
    5.1961   -0.9580   -1.3409 H   0  0  0  0  0  0  0  0  0  0  0  0
    4.2519    0.2233   -0.4223 H   0  0  0  0  0  0  0  0  0  0  0  0
    3.5069   -0.6594   -1.7069 H   0  0  0  0  0  0  0  0  0  0  0  0
    1.9887   -2.1981   -1.1455 H   0  0  0  0  0  0  0  0  0  0  0  0
    1.8389   -3.5079    0.8750 H   0  0  0  0  0  0  0  0  0  0  0  0
    2.6153   -5.3338   -0.9795 H   0  0  0  0  0  0  0  0  0  0  0  0
    1.3302   -5.7098    1.9244 H   0  0  0  0  0  0  0  0  0  0  0  0
    2.5915   -6.7413    1.3305 H   0  0  0  0  0  0  0  0  0  0  0  0
    1.4388   -6.5736    4.0519 H   0  0  0  0  0  0  0  0  0  0  0  0
    1.6889   -7.8389    3.0110 H   0  0  0  0  0  0  0  0  0  0  0  0
    4.1291   -8.7786    2.5759 H   0  0  0  0  0  0  0  0  0  0  0  0
    3.1525   -9.5430    3.8069 H   0  0  0  0  0  0  0  0  0  0  0  0
    4.8107   -9.1021    4.1651 H   0  0  0  0  0  0  0  0  0  0  0  0
    3.7352   -8.0764    5.9285 H   0  0  0  0  0  0  0  0  0  0  0  0
  1  2  1  0
  1 35  1  0
  1 36  1  0
  1 37  1  0
  2 25  1  0
  2  3  1  0
  2 38  1  1
  3  4  1  0
  5  4  1  6
  4 39  1  0
  4 40  1  0
  5 16  1  0
  5 29  1  0
  5  6  1  0
  6  7  2  0
  6  8  1  0
  8 32  1  0
  8  9  1  0
  8 41  1  1
  9 10  1  0
  9 42  1  0
  9 43  1  0
 10 11  1  0
 10 12  1  0
 10 13  1  0
 11 44  1  0
 11 45  1  0
 11 46  1  0
 12 47  1  0
 12 48  1  0
 12 49  1  0
 13 29  1  0
 13 14  1  0
 13 50  1  6
 14 21  1  0
 14 15  1  1
 14 16  1  0
 15 51  1  0
 16 17  1  0
 16 52  1  1
 17 18  2  0
 17 19  1  0
 19 20  1  0
 19 53  1  0
 19 54  1  0
 20 21  1  0
 20 55  1  0
 20 56  1  0
 21 22  1  1
 21 23  1  0
 22 57  1  0
 23 24  1  0
 23 25  1  0
 23 58  1  1
 24 59  1  0
 24 60  1  0
 24 61  1  0
 25 26  1  6
 25 27  1  0
 26 62  1  0
 27 28  1  0
 27 29  1  0
 27 63  1  1
 28 64  1  0
 29 30  1  1
 30 31  1  0
 30 65  1  0
 30 66  1  0
 31 32  1  0
 31 67  1  0
 31 68  1  0
 32 33  1  0
 32 34  1  1
 33 69  1  0
 33 70  1  0
 33 71  1  0
 34 72  1  0
M  END
>  <i_m_ct_stereo_status>  (111) 
1

>  <s_m_source_file>  (111) 
/var/tmp/pbs.5076255.sched01/tmpscvaj2_a/3886avry94.sdf

>  <i_m_source_file_index>  (111) 
13

>  <i_lp_mmshare_version>  (111) 
48012

>  <i_f3d_flags>  (111) 
0

>  <s_epik_input>  (111) 
W0NIMl0xT1tDQEBIXShbQ0gzXSlbQ0BAXShbT0hdKShbQ0BIXTJbT0hdKVtDQEhdKFtDSDNdKVtDQF0zKFtPSF0pW0NIMl1bQ0gyXUMoPU8pW0NASF00W0NAXTMoW09IXSlbQ0BASF0oW0NAXTI1W0NAQF0xNDYpQyhbQ0gzXSkoW0NIM10pW0NIMl1bQ0BIXShDNj1PKVtDQEBdKFtDSDNdKShbT0hdKVtDSDJdW0NIMl01

>  <s_epik_cmdline>  (111) 
J2VwaWtfcHl0aG9uJywgJy1waHQnLCAnMi4wJywgJy1waCcsICc3LjAnLCAnLXRuJywgJzgnLCAnLW1hJywgJzIwMCcsICctaW1hZScsICc8aW5maWxlLm1hZT4nLCAnLW9tYWUnLCAnPG91dGZpbGUubWFlPic=

>  <r_lp_tautomer_probability>  (111) 
1

>  <r_epik_Ionization_Penalty>  (111) 
2.75821e-07

>  <r_epik_Ionization_Penalty_Charging>  (111) 
0

>  <r_epik_Ionization_Penalty_Neutral>  (111) 
2.75821e-07

>  <r_epik_State_Penalty>  (111) 
-0

>  <r_epik_Charging_Adjusted_Penalty>  (111) 
0

>  <i_epik_Tot_Q>  (111) 
0

>  <i_epik_Tot_abs_Q>  (111) 
0

>  <s_lp_Force_Field>  (111) 
OPLS3e

>  <r_lp_Energy>  (111) 
132.254

>  <b_lp_Chiralities_Consistent>  (111) 
1

>  <s_lp_Variant>  (111) 
40:0-1

>  <s_i_glide_gridfile>  (111) 
pfpi4k_grid

>  <i_i_glide_lignum>  (111) 
13

>  <i_i_glide_rotatable_bonds>  (111) 
5

>  <r_i_docking_score>  (111) 
-3.3157

>  <r_i_glide_ligand_efficiency>  (111) 
-0.0975207

>  <r_i_glide_ligand_efficiency_sa>  (111) 
-0.315929

>  <r_i_glide_ligand_efficiency_ln>  (111) 
-0.732532

>  <r_i_glide_gscore>  (111) 
-3.3157

>  <r_i_glide_lipo>  (111) 
-0.455333

>  <r_i_glide_hbond>  (111) 
0

>  <r_i_glide_metal>  (111) 
-0

>  <r_i_glide_rewards>  (111) 
-0.727204

>  <r_i_glide_evdw>  (111) 
-21.4895

>  <r_i_glide_ecoul>  (111) 
-7.05793

>  <r_i_glide_erotb>  (111) 
0

>  <r_i_glide_esite>  (111) 
0

>  <r_i_glide_emodel>  (111) 
-37.6166

>  <r_i_glide_energy>  (111) 
-28.5475

>  <r_i_glide_einternal>  (111) 
1.00347

>  <r_i_glide_intrahb_reward>  (111) 
-0.5

>  <i_i_glide_confnum>  (111) 
2

>  <i_i_glide_posenum>  (111) 
11

>  <r_i_glide_eff_state_penalty>  (111) 
0

>  <ligand_id>  (111) 
40

>  <original_smiles>  (111) 
CC1OCC23C(=O)C4CC(C)(C)C5C6(O)C2C(=O)CCC6(O)C(C)C1(O)C(O)C53CCC4(C)O

>  <smiles>  (111) 
[H]OC1([H])C2(O[H])C([H])(C([H])([H])[H])OC([H])([H])C34C(=O)C5([H])C([H])([H])C(C([H])([H])[H])(C([H])([H])[H])C([H])(C6(O[H])C3([H])C(=O)C([H])([H])C([H])([H])C6(O[H])C2([H])C([H])([H])[H])C14C([H])([H])C([H])([H])C5(O[H])C([H])([H])[H]

$$$$
40:0:1
     RDKit          3D

 72 77  0  0  1  0  0  0  0  0999 V2000
    4.8627   -3.8349   -3.0184 C   0  0  0  0  0  0  0  0  0  0  0  0
    4.7105   -3.8452   -1.4832 C   0  0  2  0  0  0  0  0  0  0  0  0
    4.6336   -5.1730   -1.0176 O   0  0  0  0  0  0  0  0  0  0  0  0
    5.1546   -5.5523    0.2491 C   0  0  0  0  0  0  0  0  0  0  0  0
    4.8079   -4.7102    1.5198 C   0  0  1  0  0  0  0  0  0  0  0  0
    5.1890   -5.5819    2.7489 C   0  0  0  0  0  0  0  0  0  0  0  0
    6.1513   -6.3379    2.6933 O   0  0  0  0  0  0  0  0  0  0  0  0
    4.4310   -5.4841    4.0933 C   0  0  1  0  0  0  0  0  0  0  0  0
    4.1243   -4.0615    4.6614 C   0  0  0  0  0  0  0  0  0  0  0  0
    3.1330   -3.0423    3.9974 C   0  0  0  0  0  0  0  0  0  0  0  0
    1.6247   -3.2932    4.2673 C   0  0  0  0  0  0  0  0  0  0  0  0
    3.2983   -1.7083    4.7986 C   0  0  0  0  0  0  0  0  0  0  0  0
    3.3708   -2.9140    2.4372 C   0  0  1  0  0  0  0  0  0  0  0  0
    4.7396   -2.2704    1.9699 C   0  0  1  0  0  0  0  0  0  0  0  0
    5.3780   -1.5680    3.0133 O   0  0  0  0  0  0  0  0  0  0  0  0
    5.6925   -3.4437    1.7416 C   0  0  2  0  0  0  0  0  0  0  0  0
    6.9657   -3.1930    0.8803 C   0  0  0  0  0  0  0  0  0  0  0  0
    7.8727   -4.0145    0.8496 O   0  0  0  0  0  0  0  0  0  0  0  0
    7.1362   -1.8858    0.0962 C   0  0  0  0  0  0  0  0  0  0  0  0
    6.1550   -0.7795    0.4852 C   0  0  0  0  0  0  0  0  0  0  0  0
    4.7010   -1.2478    0.7750 C   0  0  2  0  0  0  0  0  0  0  0  0
    4.0894   -0.0753    1.3050 O   0  0  0  0  0  0  0  0  0  0  0  0
    3.8421   -1.5883   -0.5094 C   0  0  1  0  0  0  0  0  0  0  0  0
    4.2812   -0.7848   -1.7565 C   0  0  0  0  0  0  0  0  0  0  0  0
    3.5158   -3.0520   -0.8923 C   0  0  1  0  0  0  0  0  0  0  0  0
    2.5888   -2.8714   -1.9534 O   0  0  0  0  0  0  0  0  0  0  0  0
    2.6683   -3.7962    0.1863 C   0  0  1  0  0  0  0  0  0  0  0  0
    1.9594   -4.8344   -0.4906 O   0  0  0  0  0  0  0  0  0  0  0  0
    3.2925   -4.2580    1.5847 C   0  0  1  0  0  0  0  0  0  0  0  0
    2.3204   -5.4748    2.0023 C   0  0  0  0  0  0  0  0  0  0  0  0
    2.1093   -6.1943    3.3630 C   0  0  0  0  0  0  0  0  0  0  0  0
    3.3218   -6.5415    4.2179 C   0  0  1  0  0  0  0  0  0  0  0  0
    3.8015   -7.9852    3.9371 C   0  0  0  0  0  0  0  0  0  0  0  0
    2.9098   -6.5738    5.5708 O   0  0  0  0  0  0  0  0  0  0  0  0
    4.8935   -2.8420   -3.4672 H   0  0  0  0  0  0  0  0  0  0  0  0
    4.0692   -4.3801   -3.5196 H   0  0  0  0  0  0  0  0  0  0  0  0
    5.7974   -4.3073   -3.2757 H   0  0  0  0  0  0  0  0  0  0  0  0
    5.6465   -3.4465   -1.1802 H   0  0  0  0  0  0  0  0  0  0  0  0
    4.7541   -6.5550    0.3992 H   0  0  0  0  0  0  0  0  0  0  0  0
    6.2253   -5.7209    0.1429 H   0  0  0  0  0  0  0  0  0  0  0  0
    5.1892   -5.8417    4.7913 H   0  0  0  0  0  0  0  0  0  0  0  0
    3.8409   -4.1637    5.7102 H   0  0  0  0  0  0  0  0  0  0  0  0
    5.0968   -3.5741    4.7182 H   0  0  0  0  0  0  0  0  0  0  0  0
    1.0686   -2.3704    4.4307 H   0  0  0  0  0  0  0  0  0  0  0  0
    1.4806   -3.9020    5.1616 H   0  0  0  0  0  0  0  0  0  0  0  0
    1.0985   -3.7237    3.4229 H   0  0  0  0  0  0  0  0  0  0  0  0
    2.9473   -0.8483    4.2268 H   0  0  0  0  0  0  0  0  0  0  0  0
    4.3171   -1.5113    5.1291 H   0  0  0  0  0  0  0  0  0  0  0  0
    2.7378   -1.7287    5.7337 H   0  0  0  0  0  0  0  0  0  0  0  0
    2.5820   -2.2262    2.1310 H   0  0  0  0  0  0  0  0  0  0  0  0
    4.8696   -0.7808    3.1453 H   0  0  0  0  0  0  0  0  0  0  0  0
    6.1824   -3.5677    2.7025 H   0  0  0  0  0  0  0  0  0  0  0  0
    8.1455   -1.5129    0.2643 H   0  0  0  0  0  0  0  0  0  0  0  0
    7.0873   -2.0776   -0.9743 H   0  0  0  0  0  0  0  0  0  0  0  0
    6.5585   -0.3076    1.3757 H   0  0  0  0  0  0  0  0  0  0  0  0
    6.1831    0.0359   -0.2357 H   0  0  0  0  0  0  0  0  0  0  0  0
    3.1491   -0.1954    1.3102 H   0  0  0  0  0  0  0  0  0  0  0  0
    2.8608   -1.1800   -0.2714 H   0  0  0  0  0  0  0  0  0  0  0  0
    5.2568   -1.0577   -2.1596 H   0  0  0  0  0  0  0  0  0  0  0  0
    4.3300    0.2321   -1.4491 H   0  0  0  0  0  0  0  0  0  0  0  0
    3.5631   -0.7777   -2.5804 H   0  0  0  0  0  0  0  0  0  0  0  0
    1.9358   -2.2366   -1.6759 H   0  0  0  0  0  0  0  0  0  0  0  0
    1.8335   -3.1287    0.4221 H   0  0  0  0  0  0  0  0  0  0  0  0
    2.5389   -5.1603   -1.1796 H   0  0  0  0  0  0  0  0  0  0  0  0
    1.2980   -5.1845    1.7660 H   0  0  0  0  0  0  0  0  0  0  0  0
    2.5560   -6.3037    1.3337 H   0  0  0  0  0  0  0  0  0  0  0  0
    1.3548   -5.7130    3.9720 H   0  0  0  0  0  0  0  0  0  0  0  0
    1.5955   -7.1300    3.1343 H   0  0  0  0  0  0  0  0  0  0  0  0
    4.0437   -8.1480    2.8869 H   0  0  0  0  0  0  0  0  0  0  0  0
    3.0347   -8.7175    4.1962 H   0  0  0  0  0  0  0  0  0  0  0  0
    4.6883   -8.2313    4.5241 H   0  0  0  0  0  0  0  0  0  0  0  0
    2.3095   -7.2972    5.6799 H   0  0  0  0  0  0  0  0  0  0  0  0
  1  2  1  0
  1 35  1  0
  1 36  1  0
  1 37  1  0
  2 25  1  0
  2  3  1  0
  2 38  1  1
  3  4  1  0
  5  4  1  6
  4 39  1  0
  4 40  1  0
  5 16  1  0
  5 29  1  0
  5  6  1  0
  6  7  2  0
  6  8  1  0
  8 32  1  0
  8  9  1  0
  8 41  1  1
  9 10  1  0
  9 42  1  0
  9 43  1  0
 10 11  1  0
 10 12  1  0
 10 13  1  0
 11 44  1  0
 11 45  1  0
 11 46  1  0
 12 47  1  0
 12 48  1  0
 12 49  1  0
 13 29  1  0
 13 14  1  0
 13 50  1  6
 14 21  1  0
 14 15  1  1
 14 16  1  0
 15 51  1  0
 16 17  1  0
 16 52  1  1
 17 18  2  0
 17 19  1  0
 19 20  1  0
 19 53  1  0
 19 54  1  0
 20 21  1  0
 20 55  1  0
 20 56  1  0
 21 22  1  1
 21 23  1  0
 22 57  1  0
 23 24  1  0
 23 25  1  0
 23 58  1  1
 24 59  1  0
 24 60  1  0
 24 61  1  0
 25 26  1  6
 25 27  1  0
 26 62  1  0
 27 28  1  0
 27 29  1  0
 27 63  1  1
 28 64  1  0
 29 30  1  1
 30 31  1  0
 30 65  1  0
 30 66  1  0
 31 32  1  0
 31 67  1  0
 31 68  1  0
 32 33  1  0
 32 34  1  1
 33 69  1  0
 33 70  1  0
 33 71  1  0
 34 72  1  0
M  END
>  <i_m_ct_stereo_status>  (112) 
1

>  <s_m_source_file>  (112) 
/var/tmp/pbs.5076255.sched01/tmpscvaj2_a/3886avry94.sdf

>  <i_m_source_file_index>  (112) 
13

>  <i_lp_mmshare_version>  (112) 
48012

>  <i_f3d_flags>  (112) 
0

>  <s_epik_input>  (112) 
W0NIMl0xT1tDQEBIXShbQ0gzXSlbQ0BAXShbT0hdKShbQ0BIXTJbT0hdKVtDQEhdKFtDSDNdKVtDQF0zKFtPSF0pW0NIMl1bQ0gyXUMoPU8pW0NASF00W0NAXTMoW09IXSlbQ0BASF0oW0NAXTI1W0NAQF0xNDYpQyhbQ0gzXSkoW0NIM10pW0NIMl1bQ0BIXShDNj1PKVtDQEBdKFtDSDNdKShbT0hdKVtDSDJdW0NIMl01

>  <s_epik_cmdline>  (112) 
J2VwaWtfcHl0aG9uJywgJy1waHQnLCAnMi4wJywgJy1waCcsICc3LjAnLCAnLXRuJywgJzgnLCAnLW1hJywgJzIwMCcsICctaW1hZScsICc8aW5maWxlLm1hZT4nLCAnLW9tYWUnLCAnPG91dGZpbGUubWFlPic=

>  <r_lp_tautomer_probability>  (112) 
1

>  <r_epik_Ionization_Penalty>  (112) 
2.75821e-07

>  <r_epik_Ionization_Penalty_Charging>  (112) 
0

>  <r_epik_Ionization_Penalty_Neutral>  (112) 
2.75821e-07

>  <r_epik_State_Penalty>  (112) 
-0

>  <r_epik_Charging_Adjusted_Penalty>  (112) 
0

>  <i_epik_Tot_Q>  (112) 
0

>  <i_epik_Tot_abs_Q>  (112) 
0

>  <s_lp_Force_Field>  (112) 
OPLS3e

>  <r_lp_Energy>  (112) 
132.254

>  <b_lp_Chiralities_Consistent>  (112) 
1

>  <s_lp_Variant>  (112) 
40:0-1

>  <s_i_glide_gridfile>  (112) 
pfpi4k_grid

>  <i_i_glide_lignum>  (112) 
13

>  <i_i_glide_rotatable_bonds>  (112) 
5

>  <r_i_docking_score>  (112) 
-3.19813

>  <r_i_glide_ligand_efficiency>  (112) 
-0.0940625

>  <r_i_glide_ligand_efficiency_sa>  (112) 
-0.304726

>  <r_i_glide_ligand_efficiency_ln>  (112) 
-0.706556

>  <r_i_glide_gscore>  (112) 
-3.19813

>  <r_i_glide_lipo>  (112) 
-0.377315

>  <r_i_glide_hbond>  (112) 
0

>  <r_i_glide_metal>  (112) 
-0

>  <r_i_glide_rewards>  (112) 
-0.756111

>  <r_i_glide_evdw>  (112) 
-21.7701

>  <r_i_glide_ecoul>  (112) 
-6.50798

>  <r_i_glide_erotb>  (112) 
0

>  <r_i_glide_esite>  (112) 
0

>  <r_i_glide_emodel>  (112) 
-37.252

>  <r_i_glide_energy>  (112) 
-28.278

>  <r_i_glide_einternal>  (112) 
1.05602

>  <r_i_glide_intrahb_reward>  (112) 
-0.5

>  <i_i_glide_confnum>  (112) 
1

>  <i_i_glide_posenum>  (112) 
5

>  <r_i_glide_eff_state_penalty>  (112) 
0

>  <ligand_id>  (112) 
40

>  <original_smiles>  (112) 
CC1OCC23C(=O)C4CC(C)(C)C5C6(O)C2C(=O)CCC6(O)C(C)C1(O)C(O)C53CCC4(C)O

>  <smiles>  (112) 
[H]OC1([H])C2(O[H])C([H])(C([H])([H])[H])OC([H])([H])C34C(=O)C5([H])C([H])([H])C(C([H])([H])[H])(C([H])([H])[H])C([H])(C6(O[H])C3([H])C(=O)C([H])([H])C([H])([H])C6(O[H])C2([H])C([H])([H])[H])C14C([H])([H])C([H])([H])C5(O[H])C([H])([H])[H]

$$$$
40:0:2
     RDKit          3D

 72 77  0  0  1  0  0  0  0  0999 V2000
    4.8471   -3.8359   -3.0149 C   0  0  0  0  0  0  0  0  0  0  0  0
    4.7038   -3.8377   -1.4745 C   0  0  2  0  0  0  0  0  0  0  0  0
    4.6260   -5.1716   -1.0058 O   0  0  0  0  0  0  0  0  0  0  0  0
    5.1550   -5.5508    0.2522 C   0  0  0  0  0  0  0  0  0  0  0  0
    4.8161   -4.7099    1.5179 C   0  0  1  0  0  0  0  0  0  0  0  0
    5.1924   -5.5842    2.7449 C   0  0  0  0  0  0  0  0  0  0  0  0
    6.1596   -6.3361    2.6841 O   0  0  0  0  0  0  0  0  0  0  0  0
    4.4470   -5.4879    4.0974 C   0  0  1  0  0  0  0  0  0  0  0  0
    4.1403   -4.0656    4.6663 C   0  0  0  0  0  0  0  0  0  0  0  0
    3.1471   -3.0439    4.0079 C   0  0  0  0  0  0  0  0  0  0  0  0
    1.6417   -3.3022    4.2831 C   0  0  0  0  0  0  0  0  0  0  0  0
    3.3155   -1.7190    4.8090 C   0  0  0  0  0  0  0  0  0  0  0  0
    3.3797   -2.9171    2.4416 C   0  0  1  0  0  0  0  0  0  0  0  0
    4.7475   -2.2693    1.9708 C   0  0  1  0  0  0  0  0  0  0  0  0
    5.3977   -1.5663    3.0053 O   0  0  0  0  0  0  0  0  0  0  0  0
    5.6920   -3.4457    1.7407 C   0  0  2  0  0  0  0  0  0  0  0  0
    6.9615   -3.1903    0.8802 C   0  0  0  0  0  0  0  0  0  0  0  0
    7.8755   -4.0176    0.8502 O   0  0  0  0  0  0  0  0  0  0  0  0
    7.1441   -1.8828    0.0957 C   0  0  0  0  0  0  0  0  0  0  0  0
    6.1656   -0.7658    0.4781 C   0  0  0  0  0  0  0  0  0  0  0  0
    4.7099   -1.2490    0.7782 C   0  0  2  0  0  0  0  0  0  0  0  0
    4.1055   -0.0799    1.3257 O   0  0  0  0  0  0  0  0  0  0  0  0
    3.8463   -1.5852   -0.4966 C   0  0  1  0  0  0  0  0  0  0  0  0
    4.2710   -0.7770   -1.7500 C   0  0  0  0  0  0  0  0  0  0  0  0
    3.5164   -3.0479   -0.8771 C   0  0  1  0  0  0  0  0  0  0  0  0
    2.5862   -2.8728   -1.9387 O   0  0  0  0  0  0  0  0  0  0  0  0
    2.6661   -3.7955    0.2018 C   0  0  1  0  0  0  0  0  0  0  0  0
    1.9625   -4.8408   -0.4731 O   0  0  0  0  0  0  0  0  0  0  0  0
    3.2960   -4.2592    1.5940 C   0  0  1  0  0  0  0  0  0  0  0  0
    2.3311   -5.4757    2.0154 C   0  0  0  0  0  0  0  0  0  0  0  0
    2.1196   -6.1926    3.3785 C   0  0  0  0  0  0  0  0  0  0  0  0
    3.3409   -6.5457    4.2226 C   0  0  1  0  0  0  0  0  0  0  0  0
    3.8144   -7.9888    3.9400 C   0  0  0  0  0  0  0  0  0  0  0  0
    2.9440   -6.6007    5.5821 O   0  0  0  0  0  0  0  0  0  0  0  0
    4.8805   -2.8328   -3.4692 H   0  0  0  0  0  0  0  0  0  0  0  0
    4.0578   -4.3716   -3.5260 H   0  0  0  0  0  0  0  0  0  0  0  0
    5.7749   -4.3098   -3.2733 H   0  0  0  0  0  0  0  0  0  0  0  0
    5.6441   -3.4485   -1.1779 H   0  0  0  0  0  0  0  0  0  0  0  0
    4.7542   -6.5561    0.4004 H   0  0  0  0  0  0  0  0  0  0  0  0
    6.2268   -5.7269    0.1413 H   0  0  0  0  0  0  0  0  0  0  0  0
    5.2117   -5.8477    4.7853 H   0  0  0  0  0  0  0  0  0  0  0  0
    3.8730   -4.1624    5.7178 H   0  0  0  0  0  0  0  0  0  0  0  0
    5.1169   -3.5755    4.7138 H   0  0  0  0  0  0  0  0  0  0  0  0
    1.0868   -2.3770    4.4474 H   0  0  0  0  0  0  0  0  0  0  0  0
    1.4940   -3.9037    5.1746 H   0  0  0  0  0  0  0  0  0  0  0  0
    1.1148   -3.7288    3.4381 H   0  0  0  0  0  0  0  0  0  0  0  0
    2.9628   -0.8574    4.2370 H   0  0  0  0  0  0  0  0  0  0  0  0
    4.3342   -1.5203    5.1369 H   0  0  0  0  0  0  0  0  0  0  0  0
    2.7558   -1.7372    5.7430 H   0  0  0  0  0  0  0  0  0  0  0  0
    2.5894   -2.2235    2.1380 H   0  0  0  0  0  0  0  0  0  0  0  0
    4.8596   -0.7934    3.1454 H   0  0  0  0  0  0  0  0  0  0  0  0
    6.1797   -3.5766    2.7169 H   0  0  0  0  0  0  0  0  0  0  0  0
    8.1549   -1.5170    0.2580 H   0  0  0  0  0  0  0  0  0  0  0  0
    7.0830   -2.0792   -0.9680 H   0  0  0  0  0  0  0  0  0  0  0  0
    6.5771   -0.2589    1.3554 H   0  0  0  0  0  0  0  0  0  0  0  0
    6.1946    0.0329   -0.2471 H   0  0  0  0  0  0  0  0  0  0  0  0
    4.0989    0.5874    0.6494 H   0  0  0  0  0  0  0  0  0  0  0  0
    2.8636   -1.1798   -0.2360 H   0  0  0  0  0  0  0  0  0  0  0  0
    5.2475   -1.0562   -2.1563 H   0  0  0  0  0  0  0  0  0  0  0  0
    4.3209    0.2318   -1.4459 H   0  0  0  0  0  0  0  0  0  0  0  0
    3.5506   -0.7775   -2.5695 H   0  0  0  0  0  0  0  0  0  0  0  0
    1.9324   -2.2334   -1.6549 H   0  0  0  0  0  0  0  0  0  0  0  0
    1.8199   -3.1389    0.4342 H   0  0  0  0  0  0  0  0  0  0  0  0
    2.5367   -5.1548   -1.1678 H   0  0  0  0  0  0  0  0  0  0  0  0
    1.3054   -5.1880    1.7811 H   0  0  0  0  0  0  0  0  0  0  0  0
    2.5605   -6.3085    1.3438 H   0  0  0  0  0  0  0  0  0  0  0  0
    1.3682   -5.7243    3.9921 H   0  0  0  0  0  0  0  0  0  0  0  0
    1.6149   -7.1340    3.1517 H   0  0  0  0  0  0  0  0  0  0  0  0
    4.0476   -8.1520    2.8877 H   0  0  0  0  0  0  0  0  0  0  0  0
    3.0436   -8.7109    4.2102 H   0  0  0  0  0  0  0  0  0  0  0  0
    4.7003   -8.2366    4.5249 H   0  0  0  0  0  0  0  0  0  0  0  0
    2.6457   -5.7309    5.8430 H   0  0  0  0  0  0  0  0  0  0  0  0
  1  2  1  0
  1 35  1  0
  1 36  1  0
  1 37  1  0
  2 25  1  0
  2  3  1  0
  2 38  1  1
  3  4  1  0
  5  4  1  6
  4 39  1  0
  4 40  1  0
  5 16  1  0
  5 29  1  0
  5  6  1  0
  6  7  2  0
  6  8  1  0
  8 32  1  0
  8  9  1  0
  8 41  1  1
  9 10  1  0
  9 42  1  0
  9 43  1  0
 10 11  1  0
 10 12  1  0
 10 13  1  0
 11 44  1  0
 11 45  1  0
 11 46  1  0
 12 47  1  0
 12 48  1  0
 12 49  1  0
 13 29  1  0
 13 14  1  0
 13 50  1  6
 14 21  1  0
 14 15  1  1
 14 16  1  0
 15 51  1  0
 16 17  1  0
 16 52  1  1
 17 18  2  0
 17 19  1  0
 19 20  1  0
 19 53  1  0
 19 54  1  0
 20 21  1  0
 20 55  1  0
 20 56  1  0
 21 22  1  1
 21 23  1  0
 22 57  1  0
 23 24  1  0
 23 25  1  0
 23 58  1  1
 24 59  1  0
 24 60  1  0
 24 61  1  0
 25 26  1  6
 25 27  1  0
 26 62  1  0
 27 28  1  0
 27 29  1  0
 27 63  1  1
 28 64  1  0
 29 30  1  1
 30 31  1  0
 30 65  1  0
 30 66  1  0
 31 32  1  0
 31 67  1  0
 31 68  1  0
 32 33  1  0
 32 34  1  1
 33 69  1  0
 33 70  1  0
 33 71  1  0
 34 72  1  0
M  END
>  <i_m_ct_stereo_status>  (113) 
1

>  <s_m_source_file>  (113) 
/var/tmp/pbs.5076255.sched01/tmpscvaj2_a/3886avry94.sdf

>  <i_m_source_file_index>  (113) 
13

>  <i_lp_mmshare_version>  (113) 
48012

>  <i_f3d_flags>  (113) 
0

>  <s_epik_input>  (113) 
W0NIMl0xT1tDQEBIXShbQ0gzXSlbQ0BAXShbT0hdKShbQ0BIXTJbT0hdKVtDQEhdKFtDSDNdKVtDQF0zKFtPSF0pW0NIMl1bQ0gyXUMoPU8pW0NASF00W0NAXTMoW09IXSlbQ0BASF0oW0NAXTI1W0NAQF0xNDYpQyhbQ0gzXSkoW0NIM10pW0NIMl1bQ0BIXShDNj1PKVtDQEBdKFtDSDNdKShbT0hdKVtDSDJdW0NIMl01

>  <s_epik_cmdline>  (113) 
J2VwaWtfcHl0aG9uJywgJy1waHQnLCAnMi4wJywgJy1waCcsICc3LjAnLCAnLXRuJywgJzgnLCAnLW1hJywgJzIwMCcsICctaW1hZScsICc8aW5maWxlLm1hZT4nLCAnLW9tYWUnLCAnPG91dGZpbGUubWFlPic=

>  <r_lp_tautomer_probability>  (113) 
1

>  <r_epik_Ionization_Penalty>  (113) 
2.75821e-07

>  <r_epik_Ionization_Penalty_Charging>  (113) 
0

>  <r_epik_Ionization_Penalty_Neutral>  (113) 
2.75821e-07

>  <r_epik_State_Penalty>  (113) 
-0

>  <r_epik_Charging_Adjusted_Penalty>  (113) 
0

>  <i_epik_Tot_Q>  (113) 
0

>  <i_epik_Tot_abs_Q>  (113) 
0

>  <s_lp_Force_Field>  (113) 
OPLS3e

>  <r_lp_Energy>  (113) 
132.254

>  <b_lp_Chiralities_Consistent>  (113) 
1

>  <s_lp_Variant>  (113) 
40:0-1

>  <s_i_glide_gridfile>  (113) 
pfpi4k_grid

>  <i_i_glide_lignum>  (113) 
13

>  <i_i_glide_rotatable_bonds>  (113) 
5

>  <r_i_docking_score>  (113) 
-3.10676

>  <r_i_glide_ligand_efficiency>  (113) 
-0.0913754

>  <r_i_glide_ligand_efficiency_sa>  (113) 
-0.296021

>  <r_i_glide_ligand_efficiency_ln>  (113) 
-0.686371

>  <r_i_glide_gscore>  (113) 
-3.10676

>  <r_i_glide_lipo>  (113) 
-0.372811

>  <r_i_glide_hbond>  (113) 
0

>  <r_i_glide_metal>  (113) 
-0

>  <r_i_glide_rewards>  (113) 
-0.756213

>  <r_i_glide_evdw>  (113) 
-21.7822

>  <r_i_glide_ecoul>  (113) 
-5.92418

>  <r_i_glide_erotb>  (113) 
0

>  <r_i_glide_esite>  (113) 
0

>  <r_i_glide_emodel>  (113) 
-36.4986

>  <r_i_glide_energy>  (113) 
-27.7064

>  <r_i_glide_einternal>  (113) 
0.946891

>  <r_i_glide_intrahb_reward>  (113) 
-0.5

>  <i_i_glide_confnum>  (113) 
2

>  <i_i_glide_posenum>  (113) 
23

>  <r_i_glide_eff_state_penalty>  (113) 
0

>  <ligand_id>  (113) 
40

>  <original_smiles>  (113) 
CC1OCC23C(=O)C4CC(C)(C)C5C6(O)C2C(=O)CCC6(O)C(C)C1(O)C(O)C53CCC4(C)O

>  <smiles>  (113) 
[H]OC1([H])C2(O[H])C([H])(C([H])([H])[H])OC([H])([H])C34C(=O)C5([H])C([H])([H])C(C([H])([H])[H])(C([H])([H])[H])C([H])(C6(O[H])C3([H])C(=O)C([H])([H])C([H])([H])C6(O[H])C2([H])C([H])([H])[H])C14C([H])([H])C([H])([H])C5(O[H])C([H])([H])[H]

$$$$
41:0:0
     RDKit          3D

 42 45  0  0  1  0  0  0  0  0999 V2000
    1.8420   -5.4953    0.8683 C   0  0  0  0  0  0  0  0  0  0  0  0
    2.9870   -4.8778    0.0484 C   0  0  0  0  0  0  0  0  0  0  0  0
    2.6280   -3.5875   -0.5779 N   0  0  1  0  0  0  0  0  0  0  0  0
    3.0759   -2.4766    0.2807 C   0  0  0  0  0  0  0  0  0  0  0  0
    4.5167   -1.9550   -0.0048 C   0  0  2  0  0  0  0  0  0  0  0  0
    5.3362   -1.8696    1.3208 C   0  0  0  0  0  0  0  0  0  0  0  0
    4.7989   -0.9060    2.3988 C   0  0  0  0  0  0  0  0  0  0  0  0
    4.4366   -0.5537   -0.6233 C   0  0  0  0  0  0  0  0  0  0  0  0
    4.5196   -0.6623   -2.0853 N   0  0  0  0  0  0  0  0  0  0  0  0
    3.2646   -0.8573   -2.8232 C   0  0  1  0  0  0  0  0  0  0  0  0
    3.4941   -0.4597   -4.2120 C   0  0  0  0  0  0  0  0  0  0  0  0
    3.6959   -0.1362   -5.3008 N   0  0  0  0  0  0  0  0  0  0  0  0
    2.4980   -2.2159   -2.7042 C   0  0  0  0  0  0  0  0  0  0  0  0
    3.0365   -3.4663   -1.9928 C   0  0  1  0  0  0  0  0  0  0  0  0
    4.5454   -3.6094   -2.0923 C   0  0  1  0  0  0  0  0  0  0  0  0
    5.3114   -2.9290   -3.2154 C   0  0  0  0  0  0  0  0  0  0  0  0
    5.4524   -1.7718   -2.2488 C   0  0  2  0  0  0  0  0  0  0  0  0
    5.2753   -2.7155   -1.0997 C   0  0  1  0  0  0  0  0  0  0  0  0
    2.2272   -6.3733    1.4122 H   0  0  0  0  0  0  0  0  0  0  0  0
    1.0237   -5.8626    0.2310 H   0  0  0  0  0  0  0  0  0  0  0  0
    1.4490   -4.8198    1.6402 H   0  0  0  0  0  0  0  0  0  0  0  0
    3.8693   -4.7791    0.6913 H   0  0  0  0  0  0  0  0  0  0  0  0
    3.2989   -5.6226   -0.6756 H   0  0  0  0  0  0  0  0  0  0  0  0
    2.3969   -1.6531    0.1942 H   0  0  0  0  0  0  0  0  0  0  0  0
    2.9541   -2.7455    1.3179 H   0  0  0  0  0  0  0  0  0  0  0  0
    5.4017   -2.8675    1.7485 H   0  0  0  0  0  0  0  0  0  0  0  0
    6.3595   -1.5731    1.0943 H   0  0  0  0  0  0  0  0  0  0  0  0
    5.4421   -0.9329    3.2766 H   0  0  0  0  0  0  0  0  0  0  0  0
    3.7954   -1.1661    2.7352 H   0  0  0  0  0  0  0  0  0  0  0  0
    4.7784    0.1284    2.0556 H   0  0  0  0  0  0  0  0  0  0  0  0
    3.6340    0.0301   -0.1943 H   0  0  0  0  0  0  0  0  0  0  0  0
    5.3315   -0.0263   -0.3178 H   0  0  0  0  0  0  0  0  0  0  0  0
    2.5465   -0.0861   -2.5807 H   0  0  0  0  0  0  0  0  0  0  0  0
    1.5114   -2.1000   -2.3281 H   0  0  0  0  0  0  0  0  0  0  0  0
    2.2544   -2.4919   -3.7408 H   0  0  0  0  0  0  0  0  0  0  0  0
    2.5087   -4.2563   -2.5228 H   0  0  0  0  0  0  0  0  0  0  0  0
    4.9004   -4.6323   -1.9969 H   0  0  0  0  0  0  0  0  0  0  0  0
    6.2703   -3.4114   -3.3921 H   0  0  0  0  0  0  0  0  0  0  0  0
    4.7434   -2.7475   -4.1138 H   0  0  0  0  0  0  0  0  0  0  0  0
    6.4519   -1.3904   -2.2388 H   0  0  0  0  0  0  0  0  0  0  0  0
    6.2257   -3.1426   -0.8145 H   0  0  0  0  0  0  0  0  0  0  0  0
    1.6338   -3.5344   -0.6255 H   0  0  0  0  0  0  0  0  0  0  0  0
  1  2  1  0
  1 19  1  0
  1 20  1  0
  1 21  1  0
  2  3  1  0
  2 22  1  0
  2 23  1  0
  3 14  1  0
  3  4  1  0
  3 42  1  6
  4  5  1  0
  4 24  1  0
  4 25  1  0
  5 18  1  0
  5  6  1  1
  5  8  1  0
  6  7  1  0
  6 26  1  0
  6 27  1  0
  7 28  1  0
  7 29  1  0
  7 30  1  0
  8  9  1  0
  8 31  1  0
  8 32  1  0
  9 17  1  0
  9 10  1  0
 10 11  1  0
 10 13  1  0
 10 33  1  1
 11 12  3  0
 13 14  1  0
 13 34  1  0
 13 35  1  0
 14 15  1  0
 14 36  1  6
 15 18  1  0
 15 16  1  0
 15 37  1  1
 16 17  1  0
 16 38  1  0
 16 39  1  0
 17 18  1  0
 17 40  1  1
 18 41  1  1
M  CHG  1   3   1
M  END
>  <i_m_ct_stereo_status>  (114) 
1

>  <s_m_source_file>  (114) 
/var/tmp/pbs.5076255.sched01/tmpscvaj2_a/3886avry94.sdf

>  <i_m_source_file_index>  (114) 
14

>  <i_lp_mmshare_version>  (114) 
48012

>  <i_f3d_flags>  (114) 
0

>  <s_epik_input>  (114) 
W0NIMl0xW0NASF0yTihbQ0gyXTMpW0NAQEhdKEMjTilbQ0gyXVtDQEhdKE4oW0NIMl00KVtDSDJdW0NIM10pW0NAQEhdMVtDQEBIXTJbQ0BAXTM0W0NIMl1bQ0gzXQ==

>  <s_epik_cmdline>  (114) 
J2VwaWtfcHl0aG9uJywgJy1waHQnLCAnMi4wJywgJy1waCcsICc3LjAnLCAnLXRuJywgJzgnLCAnLW1hJywgJzIwMCcsICctaW1hZScsICc8aW5maWxlLm1hZT4nLCAnLW9tYWUnLCAnPG91dGZpbGUubWFlPic=

>  <r_lp_tautomer_probability>  (114) 
1

>  <r_epik_Ionization_Penalty>  (114) 
0.000763954

>  <r_epik_Ionization_Penalty_Charging>  (114) 
0.000720696

>  <r_epik_Ionization_Penalty_Neutral>  (114) 
4.32582e-05

>  <r_epik_State_Penalty>  (114) 
-0

>  <r_epik_Charging_Adjusted_Penalty>  (114) 
0.000720696

>  <i_epik_Tot_Q>  (114) 
1

>  <i_epik_Tot_abs_Q>  (114) 
1

>  <s_lp_Force_Field>  (114) 
OPLS3e

>  <r_lp_Energy>  (114) 
61.4504

>  <b_lp_Chiralities_Consistent>  (114) 
1

>  <s_lp_Variant>  (114) 
41:0-1

>  <s_i_glide_gridfile>  (114) 
pfpi4k_grid

>  <i_i_glide_lignum>  (114) 
14

>  <i_i_glide_rotatable_bonds>  (114) 
3

>  <r_i_docking_score>  (114) 
-3.86242

>  <r_i_glide_ligand_efficiency>  (114) 
-0.214579

>  <r_i_glide_ligand_efficiency_sa>  (114) 
-0.562356

>  <r_i_glide_ligand_efficiency_ln>  (114) 
-0.992815

>  <r_i_glide_gscore>  (114) 
-3.86242

>  <r_i_glide_lipo>  (114) 
-0.347674

>  <r_i_glide_hbond>  (114) 
0

>  <r_i_glide_metal>  (114) 
-0

>  <r_i_glide_rewards>  (114) 
-2.11612

>  <r_i_glide_evdw>  (114) 
-8.66271

>  <r_i_glide_ecoul>  (114) 
-6.22644

>  <r_i_glide_erotb>  (114) 
0

>  <r_i_glide_esite>  (114) 
-0.0315216

>  <r_i_glide_emodel>  (114) 
-14.9459

>  <r_i_glide_energy>  (114) 
-14.8891

>  <r_i_glide_einternal>  (114) 
2.0197

>  <r_i_glide_intrahb_reward>  (114) 
-0

>  <i_i_glide_confnum>  (114) 
1

>  <i_i_glide_posenum>  (114) 
1

>  <r_i_glide_eff_state_penalty>  (114) 
0

>  <ligand_id>  (114) 
41

>  <original_smiles>  (114) 
CCN1CC2(CC)CN3C(C#N)CC1C1CC3C12

>  <smiles>  (114) 
[H]C([H])([H])C([H])([H])C12C([H])([H])N3C([H])(C#N)C([H])([H])C([H])(C4([H])C([H])([H])C3([H])C41[H])[N+]([H])(C([H])([H])C([H])([H])[H])C2([H])[H]

$$$$
41:0:1
     RDKit          3D

 42 45  0  0  1  0  0  0  0  0999 V2000
    1.9378   -5.4084    1.0522 C   0  0  0  0  0  0  0  0  0  0  0  0
    2.9912   -4.8931    0.0468 C   0  0  0  0  0  0  0  0  0  0  0  0
    2.6291   -3.5955   -0.5745 N   0  0  1  0  0  0  0  0  0  0  0  0
    3.0840   -2.4774    0.2815 C   0  0  0  0  0  0  0  0  0  0  0  0
    4.5378   -1.9663   -0.0031 C   0  0  2  0  0  0  0  0  0  0  0  0
    5.3345   -1.8647    1.3325 C   0  0  0  0  0  0  0  0  0  0  0  0
    5.6361   -3.2094    2.0088 C   0  0  0  0  0  0  0  0  0  0  0  0
    4.4399   -0.5616   -0.6082 C   0  0  0  0  0  0  0  0  0  0  0  0
    4.5119   -0.6759   -2.0692 N   0  0  0  0  0  0  0  0  0  0  0  0
    3.2661   -0.8568   -2.8181 C   0  0  1  0  0  0  0  0  0  0  0  0
    3.4990   -0.4603   -4.2034 C   0  0  0  0  0  0  0  0  0  0  0  0
    3.7023   -0.1353   -5.2999 N   0  0  0  0  0  0  0  0  0  0  0  0
    2.5002   -2.2079   -2.7060 C   0  0  0  0  0  0  0  0  0  0  0  0
    3.0502   -3.4556   -1.9889 C   0  0  1  0  0  0  0  0  0  0  0  0
    4.5562   -3.6155   -2.0942 C   0  0  1  0  0  0  0  0  0  0  0  0
    5.3209   -2.9259   -3.2113 C   0  0  0  0  0  0  0  0  0  0  0  0
    5.4636   -1.7705   -2.2450 C   0  0  2  0  0  0  0  0  0  0  0  0
    5.2957   -2.7180   -1.1042 C   0  0  1  0  0  0  0  0  0  0  0  0
    2.3497   -6.2757    1.5791 H   0  0  0  0  0  0  0  0  0  0  0  0
    1.0266   -5.7502    0.5475 H   0  0  0  0  0  0  0  0  0  0  0  0
    1.6928   -4.6649    1.8173 H   0  0  0  0  0  0  0  0  0  0  0  0
    3.9675   -4.8226    0.5411 H   0  0  0  0  0  0  0  0  0  0  0  0
    3.1540   -5.6685   -0.7004 H   0  0  0  0  0  0  0  0  0  0  0  0
    2.3984   -1.6495    0.1831 H   0  0  0  0  0  0  0  0  0  0  0  0
    2.9537   -2.7254    1.3322 H   0  0  0  0  0  0  0  0  0  0  0  0
    6.2815   -1.3623    1.1534 H   0  0  0  0  0  0  0  0  0  0  0  0
    4.7933   -1.2243    2.0308 H   0  0  0  0  0  0  0  0  0  0  0  0
    6.2103   -3.0453    2.9073 H   0  0  0  0  0  0  0  0  0  0  0  0
    6.2169   -3.8717    1.3654 H   0  0  0  0  0  0  0  0  0  0  0  0
    4.7318   -3.7277    2.3259 H   0  0  0  0  0  0  0  0  0  0  0  0
    3.6366    0.0158   -0.1825 H   0  0  0  0  0  0  0  0  0  0  0  0
    5.3309   -0.0233   -0.3128 H   0  0  0  0  0  0  0  0  0  0  0  0
    2.5488   -0.0896   -2.5669 H   0  0  0  0  0  0  0  0  0  0  0  0
    1.5127   -2.0884   -2.3316 H   0  0  0  0  0  0  0  0  0  0  0  0
    2.2487   -2.4909   -3.7333 H   0  0  0  0  0  0  0  0  0  0  0  0
    2.5178   -4.2561   -2.5274 H   0  0  0  0  0  0  0  0  0  0  0  0
    4.8942   -4.6464   -1.9851 H   0  0  0  0  0  0  0  0  0  0  0  0
    6.2765   -3.4047   -3.3885 H   0  0  0  0  0  0  0  0  0  0  0  0
    4.7564   -2.7438   -4.1130 H   0  0  0  0  0  0  0  0  0  0  0  0
    6.4635   -1.3713   -2.2386 H   0  0  0  0  0  0  0  0  0  0  0  0
    6.2515   -3.1347   -0.8301 H   0  0  0  0  0  0  0  0  0  0  0  0
    1.6287   -3.5435   -0.6187 H   0  0  0  0  0  0  0  0  0  0  0  0
  1  2  1  0
  1 19  1  0
  1 20  1  0
  1 21  1  0
  2  3  1  0
  2 22  1  0
  2 23  1  0
  3 14  1  0
  3  4  1  0
  3 42  1  6
  4  5  1  0
  4 24  1  0
  4 25  1  0
  5 18  1  0
  5  6  1  1
  5  8  1  0
  6  7  1  0
  6 26  1  0
  6 27  1  0
  7 28  1  0
  7 29  1  0
  7 30  1  0
  8  9  1  0
  8 31  1  0
  8 32  1  0
  9 17  1  0
  9 10  1  0
 10 11  1  0
 10 13  1  0
 10 33  1  1
 11 12  3  0
 13 14  1  0
 13 34  1  0
 13 35  1  0
 14 15  1  0
 14 36  1  6
 15 18  1  0
 15 16  1  0
 15 37  1  1
 16 17  1  0
 16 38  1  0
 16 39  1  0
 17 18  1  0
 17 40  1  1
 18 41  1  1
M  CHG  1   3   1
M  END
>  <i_m_ct_stereo_status>  (115) 
1

>  <s_m_source_file>  (115) 
/var/tmp/pbs.5076255.sched01/tmpscvaj2_a/3886avry94.sdf

>  <i_m_source_file_index>  (115) 
14

>  <i_lp_mmshare_version>  (115) 
48012

>  <i_f3d_flags>  (115) 
0

>  <s_epik_input>  (115) 
W0NIMl0xW0NASF0yTihbQ0gyXTMpW0NAQEhdKEMjTilbQ0gyXVtDQEhdKE4oW0NIMl00KVtDSDJdW0NIM10pW0NAQEhdMVtDQEBIXTJbQ0BAXTM0W0NIMl1bQ0gzXQ==

>  <s_epik_cmdline>  (115) 
J2VwaWtfcHl0aG9uJywgJy1waHQnLCAnMi4wJywgJy1waCcsICc3LjAnLCAnLXRuJywgJzgnLCAnLW1hJywgJzIwMCcsICctaW1hZScsICc8aW5maWxlLm1hZT4nLCAnLW9tYWUnLCAnPG91dGZpbGUubWFlPic=

>  <r_lp_tautomer_probability>  (115) 
1

>  <r_epik_Ionization_Penalty>  (115) 
0.000763954

>  <r_epik_Ionization_Penalty_Charging>  (115) 
0.000720696

>  <r_epik_Ionization_Penalty_Neutral>  (115) 
4.32582e-05

>  <r_epik_State_Penalty>  (115) 
-0

>  <r_epik_Charging_Adjusted_Penalty>  (115) 
0.000720696

>  <i_epik_Tot_Q>  (115) 
1

>  <i_epik_Tot_abs_Q>  (115) 
1

>  <s_lp_Force_Field>  (115) 
OPLS3e

>  <r_lp_Energy>  (115) 
61.4504

>  <b_lp_Chiralities_Consistent>  (115) 
1

>  <s_lp_Variant>  (115) 
41:0-1

>  <s_i_glide_gridfile>  (115) 
pfpi4k_grid

>  <i_i_glide_lignum>  (115) 
14

>  <i_i_glide_rotatable_bonds>  (115) 
3

>  <r_i_docking_score>  (115) 
-3.72694

>  <r_i_glide_ligand_efficiency>  (115) 
-0.207052

>  <r_i_glide_ligand_efficiency_sa>  (115) 
-0.542631

>  <r_i_glide_ligand_efficiency_ln>  (115) 
-0.957992

>  <r_i_glide_gscore>  (115) 
-3.72694

>  <r_i_glide_lipo>  (115) 
-0.294952

>  <r_i_glide_hbond>  (115) 
0

>  <r_i_glide_metal>  (115) 
-0

>  <r_i_glide_rewards>  (115) 
-2.11504

>  <r_i_glide_evdw>  (115) 
-7.07599

>  <r_i_glide_ecoul>  (115) 
-6.20942

>  <r_i_glide_erotb>  (115) 
0

>  <r_i_glide_esite>  (115) 
-0.0317442

>  <r_i_glide_emodel>  (115) 
-13.3479

>  <r_i_glide_energy>  (115) 
-13.2854

>  <r_i_glide_einternal>  (115) 
1.13648

>  <r_i_glide_intrahb_reward>  (115) 
-0

>  <i_i_glide_confnum>  (115) 
2

>  <i_i_glide_posenum>  (115) 
13

>  <r_i_glide_eff_state_penalty>  (115) 
0

>  <ligand_id>  (115) 
41

>  <original_smiles>  (115) 
CCN1CC2(CC)CN3C(C#N)CC1C1CC3C12

>  <smiles>  (115) 
[H]C([H])([H])C([H])([H])C12C([H])([H])N3C([H])(C#N)C([H])([H])C([H])(C4([H])C([H])([H])C3([H])C41[H])[N+]([H])(C([H])([H])C([H])([H])[H])C2([H])[H]

$$$$
41:0:2
     RDKit          3D

 42 45  0  0  1  0  0  0  0  0999 V2000
    3.7807   -0.6968   -4.7752 C   0  0  0  0  0  0  0  0  0  0  0  0
    4.1195   -0.9421   -3.2980 C   0  0  0  0  0  0  0  0  0  0  0  0
    3.8262   -2.3429   -2.8556 N   0  0  1  0  0  0  0  0  0  0  0  0
    5.0415   -3.1835   -2.7085 C   0  0  0  0  0  0  0  0  0  0  0  0
    5.7232   -3.1066   -1.2903 C   0  0  2  0  0  0  0  0  0  0  0  0
    7.2382   -2.7793   -1.4682 C   0  0  0  0  0  0  0  0  0  0  0  0
    8.0775   -2.5716   -0.1832 C   0  0  0  0  0  0  0  0  0  0  0  0
    5.5221   -4.4874   -0.5990 C   0  0  0  0  0  0  0  0  0  0  0  0
    4.3989   -4.3815    0.3269 N   0  0  0  0  0  0  0  0  0  0  0  0
    3.0888   -4.7203   -0.2411 C   0  0  1  0  0  0  0  0  0  0  0  0
    2.2325   -5.1428    0.9096 C   0  0  0  0  0  0  0  0  0  0  0  0
    1.5986   -5.4813    1.7966 N   0  0  0  0  0  0  0  0  0  0  0  0
    2.3947   -3.7859   -1.3153 C   0  0  0  0  0  0  0  0  0  0  0  0
    2.9591   -2.3901   -1.6621 C   0  0  1  0  0  0  0  0  0  0  0  0
    3.6238   -1.6714   -0.4970 C   0  0  1  0  0  0  0  0  0  0  0  0
    3.3250   -2.0695    0.9492 C   0  0  0  0  0  0  0  0  0  0  0  0
    4.5017   -3.0230    0.8348 C   0  0  2  0  0  0  0  0  0  0  0  0
    5.0493   -2.1576   -0.2753 C   0  0  1  0  0  0  0  0  0  0  0  0
    4.1944    0.2669   -5.0806 H   0  0  0  0  0  0  0  0  0  0  0  0
    2.6969   -0.6688   -4.9525 H   0  0  0  0  0  0  0  0  0  0  0  0
    4.2185   -1.4537   -5.4228 H   0  0  0  0  0  0  0  0  0  0  0  0
    5.1651   -0.7285   -3.0868 H   0  0  0  0  0  0  0  0  0  0  0  0
    3.5658   -0.1834   -2.7344 H   0  0  0  0  0  0  0  0  0  0  0  0
    4.7438   -4.2162   -2.9249 H   0  0  0  0  0  0  0  0  0  0  0  0
    5.7508   -2.9404   -3.5040 H   0  0  0  0  0  0  0  0  0  0  0  0
    7.7116   -3.5537   -2.0722 H   0  0  0  0  0  0  0  0  0  0  0  0
    7.3225   -1.8848   -2.0808 H   0  0  0  0  0  0  0  0  0  0  0  0
    9.1172   -2.3567   -0.4348 H   0  0  0  0  0  0  0  0  0  0  0  0
    8.0882   -3.4644    0.4407 H   0  0  0  0  0  0  0  0  0  0  0  0
    7.7227   -1.7429    0.4308 H   0  0  0  0  0  0  0  0  0  0  0  0
    5.3892   -5.3452   -1.2639 H   0  0  0  0  0  0  0  0  0  0  0  0
    6.3963   -4.6832    0.0230 H   0  0  0  0  0  0  0  0  0  0  0  0
    3.2419   -5.6829   -0.7102 H   0  0  0  0  0  0  0  0  0  0  0  0
    2.2164   -4.2604   -2.2863 H   0  0  0  0  0  0  0  0  0  0  0  0
    1.4023   -3.6009   -0.9203 H   0  0  0  0  0  0  0  0  0  0  0  0
    2.1502   -1.8208   -2.0734 H   0  0  0  0  0  0  0  0  0  0  0  0
    3.5960   -0.5829   -0.5779 H   0  0  0  0  0  0  0  0  0  0  0  0
    3.5558   -1.2508    1.6275 H   0  0  0  0  0  0  0  0  0  0  0  0
    2.3355   -2.4896    1.1284 H   0  0  0  0  0  0  0  0  0  0  0  0
    5.1631   -2.9947    1.7008 H   0  0  0  0  0  0  0  0  0  0  0  0
    5.6276   -1.3124    0.0957 H   0  0  0  0  0  0  0  0  0  0  0  0
    3.2625   -2.7700   -3.5779 H   0  0  0  0  0  0  0  0  0  0  0  0
  1  2  1  0
  1 19  1  0
  1 20  1  0
  1 21  1  0
  2  3  1  0
  2 22  1  0
  2 23  1  0
  3 14  1  0
  3  4  1  0
  3 42  1  6
  4  5  1  0
  4 24  1  0
  4 25  1  0
  5 18  1  0
  5  6  1  6
  5  8  1  0
  6  7  1  0
  6 26  1  0
  6 27  1  0
  7 28  1  0
  7 29  1  0
  7 30  1  0
  8  9  1  0
  8 31  1  0
  8 32  1  0
  9 17  1  0
  9 10  1  0
 10 11  1  0
 10 13  1  0
 10 33  1  6
 11 12  3  0
 13 14  1  0
 13 34  1  0
 13 35  1  0
 14 15  1  0
 14 36  1  6
 15 18  1  0
 15 16  1  0
 15 37  1  1
 16 17  1  0
 16 38  1  0
 16 39  1  0
 17 18  1  0
 17 40  1  1
 18 41  1  1
M  CHG  1   3   1
M  END
>  <i_m_ct_stereo_status>  (116) 
1

>  <s_m_source_file>  (116) 
/var/tmp/pbs.5076255.sched01/tmpscvaj2_a/3886avry94.sdf

>  <i_m_source_file_index>  (116) 
14

>  <i_lp_mmshare_version>  (116) 
48012

>  <i_f3d_flags>  (116) 
0

>  <s_epik_input>  (116) 
W0NIMl0xW0NASF0yTihbQ0gyXTMpW0NAQEhdKEMjTilbQ0gyXVtDQEhdKE4oW0NIMl00KVtDSDJdW0NIM10pW0NAQEhdMVtDQEBIXTJbQ0BAXTM0W0NIMl1bQ0gzXQ==

>  <s_epik_cmdline>  (116) 
J2VwaWtfcHl0aG9uJywgJy1waHQnLCAnMi4wJywgJy1waCcsICc3LjAnLCAnLXRuJywgJzgnLCAnLW1hJywgJzIwMCcsICctaW1hZScsICc8aW5maWxlLm1hZT4nLCAnLW9tYWUnLCAnPG91dGZpbGUubWFlPic=

>  <r_lp_tautomer_probability>  (116) 
1

>  <r_epik_Ionization_Penalty>  (116) 
0.000763954

>  <r_epik_Ionization_Penalty_Charging>  (116) 
0.000720696

>  <r_epik_Ionization_Penalty_Neutral>  (116) 
4.32582e-05

>  <r_epik_State_Penalty>  (116) 
-0

>  <r_epik_Charging_Adjusted_Penalty>  (116) 
0.000720696

>  <i_epik_Tot_Q>  (116) 
1

>  <i_epik_Tot_abs_Q>  (116) 
1

>  <s_lp_Force_Field>  (116) 
OPLS3e

>  <r_lp_Energy>  (116) 
61.4504

>  <b_lp_Chiralities_Consistent>  (116) 
1

>  <s_lp_Variant>  (116) 
41:0-1

>  <s_i_glide_gridfile>  (116) 
pfpi4k_grid

>  <i_i_glide_lignum>  (116) 
14

>  <i_i_glide_rotatable_bonds>  (116) 
3

>  <r_i_docking_score>  (116) 
-3.70659

>  <r_i_glide_ligand_efficiency>  (116) 
-0.205922

>  <r_i_glide_ligand_efficiency_sa>  (116) 
-0.539667

>  <r_i_glide_ligand_efficiency_ln>  (116) 
-0.95276

>  <r_i_glide_gscore>  (116) 
-3.70659

>  <r_i_glide_lipo>  (116) 
-0.629663

>  <r_i_glide_hbond>  (116) 
-0.06529

>  <r_i_glide_metal>  (116) 
-0

>  <r_i_glide_rewards>  (116) 
-1.72929

>  <r_i_glide_evdw>  (116) 
-12.8095

>  <r_i_glide_ecoul>  (116) 
-3.96297

>  <r_i_glide_erotb>  (116) 
0

>  <r_i_glide_esite>  (116) 
-0.0474268

>  <r_i_glide_emodel>  (116) 
-15.5371

>  <r_i_glide_energy>  (116) 
-16.7725

>  <r_i_glide_einternal>  (116) 
4.04844

>  <r_i_glide_intrahb_reward>  (116) 
-0

>  <i_i_glide_confnum>  (116) 
2

>  <i_i_glide_posenum>  (116) 
28

>  <r_i_glide_eff_state_penalty>  (116) 
0

>  <ligand_id>  (116) 
41

>  <original_smiles>  (116) 
CCN1CC2(CC)CN3C(C#N)CC1C1CC3C12

>  <smiles>  (116) 
[H]C([H])([H])C([H])([H])C12C([H])([H])N3C([H])(C#N)C([H])([H])C([H])(C4([H])C([H])([H])C3([H])C41[H])[N+]([H])(C([H])([H])C([H])([H])[H])C2([H])[H]

$$$$
42:0:0
     RDKit          3D

 66 71  0  0  1  0  0  0  0  0999 V2000
    5.3485   -6.2110    4.2212 C   0  0  0  0  0  0  0  0  0  0  0  0
    4.1524   -5.9569    3.2590 C   0  0  0  0  0  0  0  0  0  0  0  0
    3.8409   -7.3002    2.5542 C   0  0  0  0  0  0  0  0  0  0  0  0
    2.8810   -5.4199    3.9698 C   0  0  1  0  0  0  0  0  0  0  0  0
    2.9335   -5.5157    5.3784 O   0  0  0  0  0  0  0  0  0  0  0  0
    2.6615   -3.9627    3.5239 C   0  0  0  0  0  0  0  0  0  0  0  0
    3.9626   -3.4860    2.8019 C   0  0  1  0  0  0  0  0  0  0  0  0
    4.7975   -2.9871    4.0060 C   0  0  0  0  0  0  0  0  0  0  0  0
    4.3934   -4.8326    2.2135 C   0  0  1  0  0  0  0  0  0  0  0  0
    5.7307   -4.8529    1.4790 C   0  0  0  0  0  0  0  0  0  0  0  0
    5.6895   -4.9081   -0.0573 C   0  0  1  0  0  0  0  0  0  0  0  0
    4.8961   -6.0107   -0.4328 O   0  0  0  0  0  0  0  0  0  0  0  0
    5.5154   -3.7133   -1.0651 C   0  0  2  0  0  0  0  0  0  0  0  0
    6.2670   -2.4651   -0.7386 C   0  0  2  0  0  0  0  0  0  0  0  0
    7.5466   -2.3508    0.0769 C   0  0  0  0  0  0  0  0  0  0  0  0
    7.3802   -1.0844    0.8981 C   0  0  0  0  0  0  0  0  0  0  0  0
    6.1572   -1.2352    1.8332 C   0  0  1  0  0  0  0  0  0  0  0  0
    6.1997   -0.2995    2.8789 O   0  0  0  0  0  0  0  0  0  0  0  0
    4.8042   -1.2907    1.0736 C   0  0  2  0  0  0  0  0  0  0  0  0
    4.1272    0.1041    1.1278 C   0  0  0  0  0  0  0  0  0  0  0  0
    3.7404   -2.3772    1.6782 C   0  0  1  0  0  0  0  0  0  0  0  0
    2.6631   -2.8024    0.6435 C   0  0  0  0  0  0  0  0  0  0  0  0
    2.9409   -3.6382   -0.6656 C   0  0  0  0  0  0  0  0  0  0  0  0
    4.1073   -3.1573   -1.5614 C   0  0  2  0  0  0  0  0  0  0  0  0
    3.9331   -3.4063   -3.0822 C   0  0  0  0  0  0  0  0  0  0  0  0
    4.0312   -1.6756   -1.3697 C   0  0  2  0  0  0  0  0  0  0  0  0
    5.0075   -0.6558   -1.5352 O   0  0  0  0  0  0  0  0  0  0  0  0
    5.1699   -1.5248   -0.4173 C   0  0  2  0  0  0  0  0  0  0  0  0
    5.0898   -6.9745    4.9476 H   0  0  0  0  0  0  0  0  0  0  0  0
    5.6484   -5.3311    4.7758 H   0  0  0  0  0  0  0  0  0  0  0  0
    6.2281   -6.5767    3.6978 H   0  0  0  0  0  0  0  0  0  0  0  0
    3.0062   -7.2193    1.8594 H   0  0  0  0  0  0  0  0  0  0  0  0
    3.5859   -8.0637    3.2861 H   0  0  0  0  0  0  0  0  0  0  0  0
    4.6984   -7.6610    1.9879 H   0  0  0  0  0  0  0  0  0  0  0  0
    2.0161   -5.9995    3.6558 H   0  0  0  0  0  0  0  0  0  0  0  0
    3.0432   -6.4150    5.5945 H   0  0  0  0  0  0  0  0  0  0  0  0
    1.7674   -4.0010    2.9201 H   0  0  0  0  0  0  0  0  0  0  0  0
    2.3822   -3.3108    4.3528 H   0  0  0  0  0  0  0  0  0  0  0  0
    5.8394   -3.2622    3.9258 H   0  0  0  0  0  0  0  0  0  0  0  0
    4.4934   -3.4206    4.9627 H   0  0  0  0  0  0  0  0  0  0  0  0
    4.7093   -1.9080    4.1454 H   0  0  0  0  0  0  0  0  0  0  0  0
    3.6446   -5.0737    1.4716 H   0  0  0  0  0  0  0  0  0  0  0  0
    6.4193   -4.1321    1.8714 H   0  0  0  0  0  0  0  0  0  0  0  0
    6.2158   -5.7945    1.7258 H   0  0  0  0  0  0  0  0  0  0  0  0
    6.7169   -5.1935   -0.2224 H   0  0  0  0  0  0  0  0  0  0  0  0
    4.5844   -5.8510   -1.3088 H   0  0  0  0  0  0  0  0  0  0  0  0
    6.0089   -4.0780   -1.9647 H   0  0  0  0  0  0  0  0  0  0  0  0
    6.6290   -2.1241   -1.6988 H   0  0  0  0  0  0  0  0  0  0  0  0
    7.8302   -3.2203    0.6760 H   0  0  0  0  0  0  0  0  0  0  0  0
    8.4082   -2.1850   -0.5769 H   0  0  0  0  0  0  0  0  0  0  0  0
    8.2978   -0.8871    1.4574 H   0  0  0  0  0  0  0  0  0  0  0  0
    7.2408   -0.2430    0.2261 H   0  0  0  0  0  0  0  0  0  0  0  0
    6.3503   -2.1831    2.2911 H   0  0  0  0  0  0  0  0  0  0  0  0
    6.9011    0.3069    2.6927 H   0  0  0  0  0  0  0  0  0  0  0  0
    3.2256    0.1360    0.5308 H   0  0  0  0  0  0  0  0  0  0  0  0
    4.8082    0.8428    0.7312 H   0  0  0  0  0  0  0  0  0  0  0  0
    3.8550    0.4007    2.1376 H   0  0  0  0  0  0  0  0  0  0  0  0
    3.1548   -1.7073    2.3057 H   0  0  0  0  0  0  0  0  0  0  0  0
    1.8215   -3.2872    1.1208 H   0  0  0  0  0  0  0  0  0  0  0  0
    2.2340   -1.8354    0.4073 H   0  0  0  0  0  0  0  0  0  0  0  0
    2.9452   -4.7015   -0.4819 H   0  0  0  0  0  0  0  0  0  0  0  0
    2.0307   -3.5231   -1.2440 H   0  0  0  0  0  0  0  0  0  0  0  0
    2.9275   -3.1093   -3.4124 H   0  0  0  0  0  0  0  0  0  0  0  0
    4.1145   -4.4424   -3.3594 H   0  0  0  0  0  0  0  0  0  0  0  0
    4.6678   -2.8645   -3.6941 H   0  0  0  0  0  0  0  0  0  0  0  0
    3.0577   -1.1879   -1.3198 H   0  0  0  0  0  0  0  0  0  0  0  0
  1  2  1  0
  1 29  1  0
  1 30  1  0
  1 31  1  0
  2  9  1  0
  2  3  1  0
  2  4  1  0
  3 32  1  0
  3 33  1  0
  3 34  1  0
  4  5  1  0
  4  6  1  0
  4 35  1  6
  5 36  1  0
  6  7  1  0
  6 37  1  0
  6 38  1  0
  7 21  1  0
  7  8  1  1
  7  9  1  0
  8 39  1  0
  8 40  1  0
  8 41  1  0
  9 10  1  0
  9 42  1  6
 10 11  1  0
 10 43  1  0
 10 44  1  0
 11 12  1  0
 11 13  1  0
 11 45  1  6
 12 46  1  0
 13 24  1  0
 13 14  1  0
 13 47  1  6
 14 28  1  0
 14 15  1  0
 14 48  1  6
 15 16  1  0
 15 49  1  0
 15 50  1  0
 16 17  1  0
 16 51  1  0
 16 52  1  0
 17 18  1  0
 17 19  1  0
 17 53  1  1
 18 54  1  0
 19 28  1  0
 19 20  1  6
 19 21  1  0
 20 55  1  0
 20 56  1  0
 20 57  1  0
 21 22  1  0
 21 58  1  1
 22 23  1  0
 22 59  1  0
 22 60  1  0
 23 24  1  0
 23 61  1  0
 23 62  1  0
 24 25  1  6
 24 26  1  0
 25 63  1  0
 25 64  1  0
 25 65  1  0
 26 28  1  0
 26 27  1  0
 26 66  1  1
 28 27  1  6
M  END
>  <i_m_ct_stereo_status>  (117) 
1

>  <s_m_source_file>  (117) 
/var/tmp/pbs.5076255.sched01/tmpscvaj2_a/3886avry94.sdf

>  <i_m_source_file_index>  (117) 
15

>  <i_lp_mmshare_version>  (117) 
48012

>  <i_f3d_flags>  (117) 
0

>  <s_epik_input>  (117) 
W09IXVtDQEBIXShbQ0gyXTEpQyhbQ0gzXSkoW0NIM10pW0NASF0oW0NIMl1bQ0BIXTJbT0hdKVtDQEBdMShbQ0gzXSlbQ0hdKFtDQEBdMyhbQ0gzXSlbQ0BIXShbT0hdKVtDSDJdW0NIMl00KVtDSDJdW0NIMl1bQ0BAXShbQ0gzXSkoW0NASF01TzYpW0NIXTJbQ0BIXTRbQ0BdMzU2

>  <s_epik_cmdline>  (117) 
J2VwaWtfcHl0aG9uJywgJy1waHQnLCAnMi4wJywgJy1waCcsICc3LjAnLCAnLXRuJywgJzgnLCAnLW1hJywgJzIwMCcsICctaW1hZScsICc8aW5maWxlLm1hZT4nLCAnLW9tYWUnLCAnPG91dGZpbGUubWFlPic=

>  <r_lp_tautomer_probability>  (117) 
1

>  <r_epik_Ionization_Penalty>  (117) 
3.45648e-06

>  <r_epik_Ionization_Penalty_Charging>  (117) 
0

>  <r_epik_Ionization_Penalty_Neutral>  (117) 
3.45648e-06

>  <r_epik_State_Penalty>  (117) 
-0

>  <r_epik_Charging_Adjusted_Penalty>  (117) 
0

>  <i_epik_Tot_Q>  (117) 
0

>  <i_epik_Tot_abs_Q>  (117) 
0

>  <s_lp_Force_Field>  (117) 
OPLS3e

>  <r_lp_Energy>  (117) 
151.318

>  <b_lp_Chiralities_Consistent>  (117) 
1

>  <s_lp_Variant>  (117) 
42:0-1

>  <s_i_glide_gridfile>  (117) 
pfpi4k_grid

>  <i_i_glide_lignum>  (117) 
15

>  <i_i_glide_rotatable_bonds>  (117) 
3

>  <r_i_docking_score>  (117) 
-3.57836

>  <r_i_glide_ligand_efficiency>  (117) 
-0.127798

>  <r_i_glide_ligand_efficiency_sa>  (117) 
-0.388071

>  <r_i_glide_ligand_efficiency_ln>  (117) 
-0.82599

>  <r_i_glide_gscore>  (117) 
-3.57836

>  <r_i_glide_lipo>  (117) 
-0.553016

>  <r_i_glide_hbond>  (117) 
-0.62796

>  <r_i_glide_metal>  (117) 
-0

>  <r_i_glide_rewards>  (117) 
-0.746208

>  <r_i_glide_evdw>  (117) 
-14.0471

>  <r_i_glide_ecoul>  (117) 
-6.32545

>  <r_i_glide_erotb>  (117) 
0

>  <r_i_glide_esite>  (117) 
0

>  <r_i_glide_emodel>  (117) 
-19.177

>  <r_i_glide_energy>  (117) 
-20.3725

>  <r_i_glide_einternal>  (117) 
2.99298

>  <r_i_glide_intrahb_reward>  (117) 
-0

>  <i_i_glide_confnum>  (117) 
2

>  <i_i_glide_posenum>  (117) 
5

>  <r_i_glide_eff_state_penalty>  (117) 
0

>  <ligand_id>  (117) 
42

>  <original_smiles>  (117) 
CC1(C)C(O)CC2(C)C1CC(O)C1C3CCC(O)C4(C)C2CCC1(C)C1OC314

>  <smiles>  (117) 
[H]OC1([H])C([H])([H])C2([H])C(C([H])([H])[H])(C([H])([H])[H])C([H])(O[H])C([H])([H])C2(C([H])([H])[H])C2([H])C([H])([H])C([H])([H])C3(C([H])([H])[H])C4([H])OC45C([H])(C([H])([H])C([H])([H])C([H])(O[H])C25C([H])([H])[H])C13[H]

$$$$
42:0:1
     RDKit          3D

 66 71  0  0  1  0  0  0  0  0999 V2000
    2.3884   -2.8762    4.3078 C   0  0  0  0  0  0  0  0  0  0  0  0
    2.5057   -1.7996    3.1832 C   0  0  0  0  0  0  0  0  0  0  0  0
    1.0763   -1.4416    2.7685 C   0  0  0  0  0  0  0  0  0  0  0  0
    3.2597   -0.5122    3.6211 C   0  0  1  0  0  0  0  0  0  0  0  0
    3.4692   -0.4180    5.0174 O   0  0  0  0  0  0  0  0  0  0  0  0
    4.5822   -0.4726    2.8370 C   0  0  0  0  0  0  0  0  0  0  0  0
    4.7827   -1.8722    2.1673 C   0  0  1  0  0  0  0  0  0  0  0  0
    5.4026   -2.6694    3.3330 C   0  0  0  0  0  0  0  0  0  0  0  0
    3.3079   -2.2522    1.9141 C   0  0  1  0  0  0  0  0  0  0  0  0
    3.0730   -3.6735    1.3826 C   0  0  0  0  0  0  0  0  0  0  0  0
    2.7922   -3.8547   -0.1273 C   0  0  1  0  0  0  0  0  0  0  0  0
    1.7692   -3.1086   -0.6237 O   0  0  0  0  0  0  0  0  0  0  0  0
    3.7922   -3.7977   -1.2915 C   0  0  2  0  0  0  0  0  0  0  0  0
    5.0152   -4.6507   -1.1375 C   0  0  2  0  0  0  0  0  0  0  0  0
    5.1380   -5.8402   -0.1443 C   0  0  0  0  0  0  0  0  0  0  0  0
    6.5294   -5.7505    0.4802 C   0  0  0  0  0  0  0  0  0  0  0  0
    6.7366   -4.3763    1.0944 C   0  0  1  0  0  0  0  0  0  0  0  0
    7.9841   -4.5375    1.6993 O   0  0  0  0  0  0  0  0  0  0  0  0
    6.6041   -3.0820    0.1944 C   0  0  2  0  0  0  0  0  0  0  0  0
    8.0444   -2.5656   -0.1239 C   0  0  0  0  0  0  0  0  0  0  0  0
    5.7262   -1.8285    0.8502 C   0  0  1  0  0  0  0  0  0  0  0  0
    5.1656   -0.7903   -0.1982 C   0  0  0  0  0  0  0  0  0  0  0  0
    4.0421   -1.1570   -1.2290 C   0  0  0  0  0  0  0  0  0  0  0  0
    4.2365   -2.4513   -2.0249 C   0  0  2  0  0  0  0  0  0  0  0  0
    3.5400   -2.3609   -3.4111 C   0  0  0  0  0  0  0  0  0  0  0  0
    5.7301   -2.4751   -2.1490 C   0  0  2  0  0  0  0  0  0  0  0  0
    6.6253   -3.4879   -2.4850 O   0  0  0  0  0  0  0  0  0  0  0  0
    6.0560   -3.5801   -1.1657 C   0  0  2  0  0  0  0  0  0  0  0  0
    1.8148   -2.4884    5.1479 H   0  0  0  0  0  0  0  0  0  0  0  0
    3.3355   -3.2028    4.7255 H   0  0  0  0  0  0  0  0  0  0  0  0
    1.8674   -3.7756    3.9798 H   0  0  0  0  0  0  0  0  0  0  0  0
    1.0489   -0.7135    1.9540 H   0  0  0  0  0  0  0  0  0  0  0  0
    0.5020   -1.0431    3.6032 H   0  0  0  0  0  0  0  0  0  0  0  0
    0.5955   -2.3546    2.4297 H   0  0  0  0  0  0  0  0  0  0  0  0
    2.6837    0.3654    3.3287 H   0  0  0  0  0  0  0  0  0  0  0  0
    2.6217   -0.3341    5.4201 H   0  0  0  0  0  0  0  0  0  0  0  0
    4.4741    0.3451    2.1409 H   0  0  0  0  0  0  0  0  0  0  0  0
    5.4269   -0.1822    3.4620 H   0  0  0  0  0  0  0  0  0  0  0  0
    5.0665   -3.7015    3.4597 H   0  0  0  0  0  0  0  0  0  0  0  0
    5.2825   -2.2118    4.3166 H   0  0  0  0  0  0  0  0  0  0  0  0
    6.4189   -2.6292    3.0657 H   0  0  0  0  0  0  0  0  0  0  0  0
    2.9668   -1.5703    1.1489 H   0  0  0  0  0  0  0  0  0  0  0  0
    3.8371   -4.3306    1.7872 H   0  0  0  0  0  0  0  0  0  0  0  0
    2.1831   -4.0569    1.8624 H   0  0  0  0  0  0  0  0  0  0  0  0
    2.4038   -4.8647   -0.1775 H   0  0  0  0  0  0  0  0  0  0  0  0
    1.9419   -2.2047   -0.4124 H   0  0  0  0  0  0  0  0  0  0  0  0
    3.2173   -4.2624   -2.0649 H   0  0  0  0  0  0  0  0  0  0  0  0
    5.1106   -5.1390   -2.1212 H   0  0  0  0  0  0  0  0  0  0  0  0
    4.3755   -5.8791    0.6360 H   0  0  0  0  0  0  0  0  0  0  0  0
    5.0123   -6.7575   -0.7182 H   0  0  0  0  0  0  0  0  0  0  0  0
    6.6839   -6.5555    1.2011 H   0  0  0  0  0  0  0  0  0  0  0  0
    7.3215   -5.8694   -0.2559 H   0  0  0  0  0  0  0  0  0  0  0  0
    5.9488   -4.4096    1.8135 H   0  0  0  0  0  0  0  0  0  0  0  0
    7.8041   -4.6849    2.6190 H   0  0  0  0  0  0  0  0  0  0  0  0
    8.0153   -1.7574   -0.8410 H   0  0  0  0  0  0  0  0  0  0  0  0
    8.6572   -3.3553   -0.5724 H   0  0  0  0  0  0  0  0  0  0  0  0
    8.5501   -2.1991    0.7704 H   0  0  0  0  0  0  0  0  0  0  0  0
    6.5412   -1.2509    1.2762 H   0  0  0  0  0  0  0  0  0  0  0  0
    4.8294    0.1345    0.2536 H   0  0  0  0  0  0  0  0  0  0  0  0
    6.0388   -0.3861   -0.7096 H   0  0  0  0  0  0  0  0  0  0  0  0
    3.0537   -1.0347   -0.8039 H   0  0  0  0  0  0  0  0  0  0  0  0
    4.0509   -0.3466   -1.9538 H   0  0  0  0  0  0  0  0  0  0  0  0
    3.8850   -1.4916   -3.9775 H   0  0  0  0  0  0  0  0  0  0  0  0
    2.4542   -2.2612   -3.3196 H   0  0  0  0  0  0  0  0  0  0  0  0
    3.7202   -3.2375   -4.0404 H   0  0  0  0  0  0  0  0  0  0  0  0
    6.2363   -1.5225   -2.2800 H   0  0  0  0  0  0  0  0  0  0  0  0
  1  2  1  0
  1 29  1  0
  1 30  1  0
  1 31  1  0
  2  9  1  0
  2  3  1  0
  2  4  1  0
  3 32  1  0
  3 33  1  0
  3 34  1  0
  4  5  1  0
  4  6  1  0
  4 35  1  6
  5 36  1  0
  6  7  1  0
  6 37  1  0
  6 38  1  0
  7 21  1  0
  7  8  1  1
  7  9  1  0
  8 39  1  0
  8 40  1  0
  8 41  1  0
  9 10  1  0
  9 42  1  6
 10 11  1  0
 10 43  1  0
 10 44  1  0
 11 12  1  0
 11 13  1  0
 11 45  1  1
 12 46  1  0
 13 24  1  0
 13 14  1  0
 13 47  1  6
 14 28  1  0
 14 15  1  0
 14 48  1  6
 15 16  1  0
 15 49  1  0
 15 50  1  0
 16 17  1  0
 16 51  1  0
 16 52  1  0
 17 18  1  0
 17 19  1  0
 17 53  1  1
 18 54  1  0
 19 28  1  0
 19 20  1  6
 19 21  1  0
 20 55  1  0
 20 56  1  0
 20 57  1  0
 21 22  1  0
 21 58  1  1
 22 23  1  0
 22 59  1  0
 22 60  1  0
 23 24  1  0
 23 61  1  0
 23 62  1  0
 24 25  1  6
 24 26  1  0
 25 63  1  0
 25 64  1  0
 25 65  1  0
 26 28  1  0
 26 27  1  0
 26 66  1  1
 28 27  1  6
M  END
>  <i_m_ct_stereo_status>  (118) 
1

>  <s_m_source_file>  (118) 
/var/tmp/pbs.5076255.sched01/tmpscvaj2_a/3886avry94.sdf

>  <i_m_source_file_index>  (118) 
15

>  <i_lp_mmshare_version>  (118) 
48012

>  <i_f3d_flags>  (118) 
0

>  <s_epik_input>  (118) 
W09IXVtDQEBIXShbQ0gyXTEpQyhbQ0gzXSkoW0NIM10pW0NASF0oW0NIMl1bQ0BIXTJbT0hdKVtDQEBdMShbQ0gzXSlbQ0hdKFtDQEBdMyhbQ0gzXSlbQ0BIXShbT0hdKVtDSDJdW0NIMl00KVtDSDJdW0NIMl1bQ0BAXShbQ0gzXSkoW0NASF01TzYpW0NIXTJbQ0BIXTRbQ0BdMzU2

>  <s_epik_cmdline>  (118) 
J2VwaWtfcHl0aG9uJywgJy1waHQnLCAnMi4wJywgJy1waCcsICc3LjAnLCAnLXRuJywgJzgnLCAnLW1hJywgJzIwMCcsICctaW1hZScsICc8aW5maWxlLm1hZT4nLCAnLW9tYWUnLCAnPG91dGZpbGUubWFlPic=

>  <r_lp_tautomer_probability>  (118) 
1

>  <r_epik_Ionization_Penalty>  (118) 
3.45648e-06

>  <r_epik_Ionization_Penalty_Charging>  (118) 
0

>  <r_epik_Ionization_Penalty_Neutral>  (118) 
3.45648e-06

>  <r_epik_State_Penalty>  (118) 
-0

>  <r_epik_Charging_Adjusted_Penalty>  (118) 
0

>  <i_epik_Tot_Q>  (118) 
0

>  <i_epik_Tot_abs_Q>  (118) 
0

>  <s_lp_Force_Field>  (118) 
OPLS3e

>  <r_lp_Energy>  (118) 
151.318

>  <b_lp_Chiralities_Consistent>  (118) 
1

>  <s_lp_Variant>  (118) 
42:0-1

>  <s_i_glide_gridfile>  (118) 
pfpi4k_grid

>  <i_i_glide_lignum>  (118) 
15

>  <i_i_glide_rotatable_bonds>  (118) 
3

>  <r_i_docking_score>  (118) 
-2.23802

>  <r_i_glide_ligand_efficiency>  (118) 
-0.0799292

>  <r_i_glide_ligand_efficiency_sa>  (118) 
-0.242712

>  <r_i_glide_ligand_efficiency_ln>  (118) 
-0.5166

>  <r_i_glide_gscore>  (118) 
-2.23802

>  <r_i_glide_lipo>  (118) 
-0.943319

>  <r_i_glide_hbond>  (118) 
-0.130773

>  <r_i_glide_metal>  (118) 
-0

>  <r_i_glide_rewards>  (118) 
-0.746208

>  <r_i_glide_evdw>  (118) 
2.09104

>  <r_i_glide_ecoul>  (118) 
-3.48179

>  <r_i_glide_erotb>  (118) 
0

>  <r_i_glide_esite>  (118) 
0

>  <r_i_glide_emodel>  (118) 
1.50083

>  <r_i_glide_energy>  (118) 
-1.39076

>  <r_i_glide_einternal>  (118) 
1.39963

>  <r_i_glide_intrahb_reward>  (118) 
-0

>  <i_i_glide_confnum>  (118) 
1

>  <i_i_glide_posenum>  (118) 
11

>  <r_i_glide_eff_state_penalty>  (118) 
0

>  <ligand_id>  (118) 
42

>  <original_smiles>  (118) 
CC1(C)C(O)CC2(C)C1CC(O)C1C3CCC(O)C4(C)C2CCC1(C)C1OC314

>  <smiles>  (118) 
[H]OC1([H])C([H])([H])C2([H])C(C([H])([H])[H])(C([H])([H])[H])C([H])(O[H])C([H])([H])C2(C([H])([H])[H])C2([H])C([H])([H])C([H])([H])C3(C([H])([H])[H])C4([H])OC45C([H])(C([H])([H])C([H])([H])C([H])(O[H])C25C([H])([H])[H])C13[H]

$$$$
43:0:0
     RDKit          3D

 65 70  0  0  1  0  0  0  0  0999 V2000
    2.7808  -10.1547    2.4421 C   0  0  0  0  0  0  0  0  0  0  0  0
    3.8319   -9.3447    3.2451 C   0  0  0  0  0  0  0  0  0  0  0  0
    3.4160   -9.5705    4.7250 C   0  0  0  0  0  0  0  0  0  0  0  0
    5.2513   -9.9628    3.0347 C   0  0  1  0  0  0  0  0  0  0  0  0
    5.5538  -10.2506    1.6772 O   0  0  0  0  0  0  0  0  0  0  0  0
    6.3845   -9.0878    3.6103 C   0  0  0  0  0  0  0  0  0  0  0  0
    6.2862   -7.6050    3.1830 C   0  0  0  0  0  0  0  0  0  0  0  0
    4.9174   -6.9159    3.4916 C   0  0  2  0  0  0  0  0  0  0  0  0
    4.8388   -6.8270    5.0475 C   0  0  0  0  0  0  0  0  0  0  0  0
    3.7840   -7.8060    2.8580 C   0  0  1  0  0  0  0  0  0  0  0  0
    3.7302   -7.5759    1.3197 C   0  0  0  0  0  0  0  0  0  0  0  0
    3.6447   -6.1065    0.8547 C   0  0  0  0  0  0  0  0  0  0  0  0
    4.7564   -5.1639    1.3993 C   0  0  2  0  0  0  0  0  0  0  0  0
    6.1221   -5.5905    0.7836 C   0  0  0  0  0  0  0  0  0  0  0  0
    4.7776   -5.4054    2.9678 C   0  0  1  0  0  0  0  0  0  0  0  0
    3.5226   -4.7262    3.5989 C   0  0  0  0  0  0  0  0  0  0  0  0
    3.4542   -3.2400    3.3120 C   0  0  0  0  0  0  0  0  0  0  0  0
    3.3126   -2.9543    1.8125 C   0  0  1  0  0  0  0  0  0  0  0  0
    3.1588   -1.3966    1.6675 C   0  0  0  0  0  0  0  0  0  0  0  0
    4.4879   -0.6021    1.6388 C   0  0  0  0  0  0  0  0  0  0  0  0
    5.3467   -1.3332    0.6507 C   0  0  0  0  0  0  0  0  0  0  0  0
    5.0223   -1.1732   -0.6456 C   0  0  0  0  0  0  0  0  0  0  0  0
    4.5417   -2.3464   -1.4111 C   0  0  1  0  0  0  0  0  0  0  0  0
    5.3076   -3.5552   -1.4290 O   0  0  0  0  0  0  0  0  0  0  0  0
    4.1603   -3.5400   -0.5570 C   0  0  1  0  0  0  0  0  0  0  0  0
    4.4743   -3.6299    0.9681 C   0  0  2  0  0  0  0  0  0  0  0  0
    5.7107   -2.7083    1.1809 C   0  0  0  0  0  0  0  0  0  0  0  0
    2.7383  -11.1949    2.7704 H   0  0  0  0  0  0  0  0  0  0  0  0
    3.0071  -10.1930    1.3754 H   0  0  0  0  0  0  0  0  0  0  0  0
    1.7805   -9.7310    2.5502 H   0  0  0  0  0  0  0  0  0  0  0  0
    4.2292   -9.4000    5.4267 H   0  0  0  0  0  0  0  0  0  0  0  0
    3.1085  -10.6015    4.9069 H   0  0  0  0  0  0  0  0  0  0  0  0
    2.5790   -8.9338    5.0161 H   0  0  0  0  0  0  0  0  0  0  0  0
    5.2850  -10.9299    3.5384 H   0  0  0  0  0  0  0  0  0  0  0  0
    4.9495  -10.9080    1.3397 H   0  0  0  0  0  0  0  0  0  0  0  0
    6.4067   -9.1844    4.6928 H   0  0  0  0  0  0  0  0  0  0  0  0
    7.3467   -9.4883    3.2884 H   0  0  0  0  0  0  0  0  0  0  0  0
    7.1061   -7.0314    3.6163 H   0  0  0  0  0  0  0  0  0  0  0  0
    6.4820   -7.6497    2.1228 H   0  0  0  0  0  0  0  0  0  0  0  0
    3.8091   -6.8312    5.4064 H   0  0  0  0  0  0  0  0  0  0  0  0
    5.3184   -5.9180    5.4158 H   0  0  0  0  0  0  0  0  0  0  0  0
    5.3539   -7.6199    5.5775 H   0  0  0  0  0  0  0  0  0  0  0  0
    2.8290   -7.4380    3.2329 H   0  0  0  0  0  0  0  0  0  0  0  0
    4.5752   -8.0572    0.8350 H   0  0  0  0  0  0  0  0  0  0  0  0
    2.8506   -8.0636    0.9065 H   0  0  0  0  0  0  0  0  0  0  0  0
    3.6654   -6.1243   -0.2345 H   0  0  0  0  0  0  0  0  0  0  0  0
    2.6610   -5.7189    1.1158 H   0  0  0  0  0  0  0  0  0  0  0  0
    6.9426   -5.4800    1.4921 H   0  0  0  0  0  0  0  0  0  0  0  0
    6.4195   -5.0359   -0.0950 H   0  0  0  0  0  0  0  0  0  0  0  0
    6.1142   -6.6113    0.4185 H   0  0  0  0  0  0  0  0  0  0  0  0
    5.6416   -4.8605    3.3525 H   0  0  0  0  0  0  0  0  0  0  0  0
    2.5975   -5.1976    3.2659 H   0  0  0  0  0  0  0  0  0  0  0  0
    3.5054   -4.7922    4.6823 H   0  0  0  0  0  0  0  0  0  0  0  0
    2.5932   -2.8306    3.8422 H   0  0  0  0  0  0  0  0  0  0  0  0
    4.3354   -2.7512    3.7306 H   0  0  0  0  0  0  0  0  0  0  0  0
    2.3641   -3.3900    1.4961 H   0  0  0  0  0  0  0  0  0  0  0  0
    2.6146   -1.1813    0.7480 H   0  0  0  0  0  0  0  0  0  0  0  0
    2.5312   -0.9974    2.4618 H   0  0  0  0  0  0  0  0  0  0  0  0
    4.3212    0.4366    1.3323 H   0  0  0  0  0  0  0  0  0  0  0  0
    4.9759   -0.5893    2.6146 H   0  0  0  0  0  0  0  0  0  0  0  0
    4.5096   -0.2626   -0.9298 H   0  0  0  0  0  0  0  0  0  0  0  0
    4.0275   -2.1342   -2.3475 H   0  0  0  0  0  0  0  0  0  0  0  0
    3.2865   -4.0800   -0.9094 H   0  0  0  0  0  0  0  0  0  0  0  0
    6.5964   -3.0314    0.6333 H   0  0  0  0  0  0  0  0  0  0  0  0
    6.0110   -2.6444    2.2297 H   0  0  0  0  0  0  0  0  0  0  0  0
  1  2  1  0
  1 28  1  0
  1 29  1  0
  1 30  1  0
  2 10  1  0
  2  3  1  0
  2  4  1  0
  3 31  1  0
  3 32  1  0
  3 33  1  0
  4  5  1  0
  4  6  1  0
  4 34  1  1
  5 35  1  0
  6  7  1  0
  6 36  1  0
  6 37  1  0
  7  8  1  0
  7 38  1  0
  7 39  1  0
  8 15  1  0
  8  9  1  1
  8 10  1  0
  9 40  1  0
  9 41  1  0
  9 42  1  0
 10 11  1  0
 10 43  1  1
 11 12  1  0
 11 44  1  0
 11 45  1  0
 12 13  1  0
 12 46  1  0
 12 47  1  0
 13 26  1  0
 13 14  1  6
 13 15  1  0
 14 48  1  0
 14 49  1  0
 14 50  1  0
 15 16  1  0
 15 51  1  1
 16 17  1  0
 16 52  1  0
 16 53  1  0
 17 18  1  0
 17 54  1  0
 17 55  1  0
 18 26  1  0
 18 19  1  0
 18 56  1  6
 19 20  1  0
 19 57  1  0
 19 58  1  0
 20 21  1  0
 20 59  1  0
 20 60  1  0
 21 27  1  0
 21 22  2  0
 22 23  1  0
 22 61  1  0
 23 25  1  0
 23 24  1  0
 23 62  1  6
 24 25  1  0
 25 26  1  0
 25 63  1  6
 26 27  1  6
 27 64  1  0
 27 65  1  0
M  END
>  <i_m_ct_stereo_status>  (119) 
1

>  <s_m_source_file>  (119) 
/var/tmp/pbs.5076255.sched01/tmpscvaj2_a/3886avry94.sdf

>  <i_m_source_file_index>  (119) 
16

>  <i_lp_mmshare_version>  (119) 
48012

>  <i_f3d_flags>  (119) 
0

>  <s_epik_input>  (119) 
W0NIMl0xW0NIMl1bQ0BIXShbT0hdKUMoW0NIM10pKFtDSDNdKVtDQEhdKFtDSDJdW0NIMl0yKVtDQF0xKFtDSDNdKVtDQEBIXShbQ0BAXTIoW0NAXTM0NSlbQ0gzXSlbQ0gyXVtDSDJdW0NASF0zW0NIMl1bQ0gyXUMoW0NIMl01KT1bQ0hdW0NAQEhdNltDQEhdNE82

>  <s_epik_cmdline>  (119) 
J2VwaWtfcHl0aG9uJywgJy1waHQnLCAnMi4wJywgJy1waCcsICc3LjAnLCAnLXRuJywgJzgnLCAnLW1hJywgJzIwMCcsICctaW1hZScsICc8aW5maWxlLm1hZT4nLCAnLW9tYWUnLCAnPG91dGZpbGUubWFlPic=

>  <r_lp_tautomer_probability>  (119) 
1

>  <r_epik_Ionization_Penalty>  (119) 
3.06208e-06

>  <r_epik_Ionization_Penalty_Charging>  (119) 
0

>  <r_epik_Ionization_Penalty_Neutral>  (119) 
3.06208e-06

>  <r_epik_State_Penalty>  (119) 
-0

>  <r_epik_Charging_Adjusted_Penalty>  (119) 
0

>  <i_epik_Tot_Q>  (119) 
0

>  <i_epik_Tot_abs_Q>  (119) 
0

>  <s_lp_Force_Field>  (119) 
OPLS3e

>  <r_lp_Energy>  (119) 
116.985

>  <b_lp_Chiralities_Consistent>  (119) 
1

>  <s_lp_Variant>  (119) 
43:0-1

>  <s_i_glide_gridfile>  (119) 
pfpi4k_grid

>  <i_i_glide_lignum>  (119) 
16

>  <i_i_glide_rotatable_bonds>  (119) 
1

>  <r_i_docking_score>  (119) 
-3.62271

>  <r_i_glide_ligand_efficiency>  (119) 
-0.134174

>  <r_i_glide_ligand_efficiency_sa>  (119) 
-0.402523

>  <r_i_glide_ligand_efficiency_ln>  (119) 
-0.843306

>  <r_i_glide_gscore>  (119) 
-3.62271

>  <r_i_glide_lipo>  (119) 
-0.556832

>  <r_i_glide_hbond>  (119) 
-0.16

>  <r_i_glide_metal>  (119) 
-0

>  <r_i_glide_rewards>  (119) 
-0.882491

>  <r_i_glide_evdw>  (119) 
-25.5194

>  <r_i_glide_ecoul>  (119) 
-4.98277

>  <r_i_glide_erotb>  (119) 
0

>  <r_i_glide_esite>  (119) 
0

>  <r_i_glide_emodel>  (119) 
-37.4881

>  <r_i_glide_energy>  (119) 
-30.5021

>  <r_i_glide_einternal>  (119) 
0.350567

>  <r_i_glide_intrahb_reward>  (119) 
-0

>  <i_i_glide_confnum>  (119) 
1

>  <i_i_glide_posenum>  (119) 
5

>  <r_i_glide_eff_state_penalty>  (119) 
0

>  <ligand_id>  (119) 
43

>  <original_smiles>  (119) 
CC1(C)C(O)CCC2(C)C1CCC1(C)C2CCC2CCC3=CC4OC4C21C3

>  <smiles>  (119) 
[H]OC1([H])C([H])([H])C([H])([H])C2(C([H])([H])[H])C([H])(C([H])([H])C([H])([H])C3(C([H])([H])[H])C2([H])C([H])([H])C([H])([H])C2([H])C([H])([H])C([H])([H])C4=C([H])C5([H])OC5([H])C23C4([H])[H])C1(C([H])([H])[H])C([H])([H])[H]

$$$$
44:0:0
     RDKit          3D

 48 51  0  0  1  0  0  0  0  0999 V2000
    4.6287   -6.6153    1.6824 C   0  0  0  0  0  0  0  0  0  0  0  0
    3.5663   -5.4981    1.4737 C   0  0  1  0  0  0  0  0  0  0  0  0
    2.1937   -6.2174    1.3104 C   0  0  0  0  0  0  0  0  0  0  0  0
    1.6900   -6.9762    2.5668 C   0  0  0  0  0  0  0  0  0  0  0  0
    1.8624   -6.1599    3.8505 C   0  0  0  0  0  0  0  0  0  0  0  0
    0.9802   -6.1137    4.7038 O   0  0  0  0  0  0  0  0  0  0  0  0
    3.1855   -5.4144    4.0213 C   0  0  0  0  0  0  0  0  0  0  0  0
    3.4201   -4.6367    2.7363 C   0  0  0  0  0  0  0  0  0  0  0  0
    3.2872   -3.2950    2.7048 C   0  0  0  0  0  0  0  0  0  0  0  0
    3.2301   -2.4683    1.4363 C   0  0  0  0  0  0  0  0  0  0  0  0
    3.0115   -3.3372    0.1718 C   0  0  2  0  0  0  0  0  0  0  0  0
    3.8889   -4.6089    0.1941 C   0  0  1  0  0  0  0  0  0  0  0  0
    5.3686   -4.1999   -0.0639 C   0  0  0  0  0  0  0  0  0  0  0  0
    6.3168   -4.9391    0.1802 O   0  0  0  0  0  0  0  0  0  0  0  0
    5.6694   -2.8408   -0.7142 C   0  0  0  0  0  0  0  0  0  0  0  0
    4.5763   -2.2947   -1.6614 C   0  0  1  0  0  0  0  0  0  0  0  0
    4.8092   -0.7741   -1.7823 C   0  0  0  0  0  0  0  0  0  0  0  0
    4.5896   -2.8858   -3.0955 C   0  0  1  0  0  0  0  0  0  0  0  0
    5.0170   -4.2275   -3.1458 O   0  0  0  0  0  0  0  0  0  0  0  0
    3.1387   -2.8209   -3.5700 C   0  0  0  0  0  0  0  0  0  0  0  0
    2.3308   -3.1278   -2.3137 C   0  0  0  0  0  0  0  0  0  0  0  0
    3.1359   -2.5333   -1.1448 C   0  0  1  0  0  0  0  0  0  0  0  0
    4.8751   -7.1098    0.7424 H   0  0  0  0  0  0  0  0  0  0  0  0
    4.3087   -7.4001    2.3658 H   0  0  0  0  0  0  0  0  0  0  0  0
    5.5504   -6.2199    2.1097 H   0  0  0  0  0  0  0  0  0  0  0  0
    1.4186   -5.5011    1.0532 H   0  0  0  0  0  0  0  0  0  0  0  0
    2.2398   -6.9165    0.4867 H   0  0  0  0  0  0  0  0  0  0  0  0
    0.6394   -7.2432    2.4476 H   0  0  0  0  0  0  0  0  0  0  0  0
    2.2242   -7.9187    2.6895 H   0  0  0  0  0  0  0  0  0  0  0  0
    3.1337   -4.7415    4.8792 H   0  0  0  0  0  0  0  0  0  0  0  0
    3.9957   -6.1199    4.2085 H   0  0  0  0  0  0  0  0  0  0  0  0
    3.1235   -2.7516    3.6252 H   0  0  0  0  0  0  0  0  0  0  0  0
    2.3959   -1.7717    1.5297 H   0  0  0  0  0  0  0  0  0  0  0  0
    4.1325   -1.8605    1.3864 H   0  0  0  0  0  0  0  0  0  0  0  0
    1.9682   -3.6388    0.2099 H   0  0  0  0  0  0  0  0  0  0  0  0
    3.6270   -5.2115   -0.6723 H   0  0  0  0  0  0  0  0  0  0  0  0
    5.8471   -2.1344    0.0930 H   0  0  0  0  0  0  0  0  0  0  0  0
    6.6102   -2.9110   -1.2560 H   0  0  0  0  0  0  0  0  0  0  0  0
    4.0889   -0.2927   -2.4471 H   0  0  0  0  0  0  0  0  0  0  0  0
    5.8028   -0.5623   -2.1725 H   0  0  0  0  0  0  0  0  0  0  0  0
    4.7261   -0.2801   -0.8118 H   0  0  0  0  0  0  0  0  0  0  0  0
    5.2458   -2.3214   -3.7546 H   0  0  0  0  0  0  0  0  0  0  0  0
    4.3465   -4.7792   -2.7567 H   0  0  0  0  0  0  0  0  0  0  0  0
    2.9025   -1.8113   -3.9111 H   0  0  0  0  0  0  0  0  0  0  0  0
    2.9159   -3.5021   -4.3908 H   0  0  0  0  0  0  0  0  0  0  0  0
    1.3227   -2.7219   -2.3719 H   0  0  0  0  0  0  0  0  0  0  0  0
    2.2119   -4.2025   -2.1872 H   0  0  0  0  0  0  0  0  0  0  0  0
    2.6926   -1.5588   -0.9574 H   0  0  0  0  0  0  0  0  0  0  0  0
  2  1  1  1
  1 23  1  0
  1 24  1  0
  1 25  1  0
  2  8  1  0
  2 12  1  0
  2  3  1  0
  3  4  1  0
  3 26  1  0
  3 27  1  0
  4  5  1  0
  4 28  1  0
  4 29  1  0
  5  6  2  0
  5  7  1  0
  7  8  1  0
  7 30  1  0
  7 31  1  0
  8  9  2  0
  9 10  1  0
  9 32  1  0
 10 11  1  0
 10 33  1  0
 10 34  1  0
 11 22  1  0
 11 12  1  0
 11 35  1  1
 12 13  1  0
 12 36  1  6
 13 14  2  0
 13 15  1  0
 15 16  1  0
 15 37  1  0
 15 38  1  0
 16 22  1  0
 16 17  1  6
 16 18  1  0
 17 39  1  0
 17 40  1  0
 17 41  1  0
 18 19  1  0
 18 20  1  0
 18 42  1  6
 19 43  1  0
 20 21  1  0
 20 44  1  0
 20 45  1  0
 21 22  1  0
 21 46  1  0
 21 47  1  0
 22 48  1  1
M  END
>  <i_m_ct_stereo_status>  (120) 
1

>  <s_m_source_file>  (120) 
/var/tmp/pbs.5076255.sched01/tmpscvaj2_a/3886avry94.sdf

>  <i_m_source_file_index>  (120) 
17

>  <i_lp_mmshare_version>  (120) 
48012

>  <i_f3d_flags>  (120) 
0

>  <s_epik_input>  (120) 
W0NIMl0xW0NIMl1DKD1PKVtDSDJdQyhbQ0BAXTEyW0NIM10pPVtDSF1bQ0gyXVtDQEBIXTNbQ0BIXTJDKD1PKVtDSDJdW0NAXTQoW0NIM10pW0NASF0zW0NIMl1bQ0gyXVtDQEBIXTRbT0hd

>  <s_epik_cmdline>  (120) 
J2VwaWtfcHl0aG9uJywgJy1waHQnLCAnMi4wJywgJy1waCcsICc3LjAnLCAnLXRuJywgJzgnLCAnLW1hJywgJzIwMCcsICctaW1hZScsICc8aW5maWxlLm1hZT4nLCAnLW9tYWUnLCAnPG91dGZpbGUubWFlPic=

>  <r_lp_tautomer_probability>  (120) 
1

>  <r_epik_Ionization_Penalty>  (120) 
9.00251e-07

>  <r_epik_Ionization_Penalty_Charging>  (120) 
0

>  <r_epik_Ionization_Penalty_Neutral>  (120) 
9.00251e-07

>  <r_epik_State_Penalty>  (120) 
-0

>  <r_epik_Charging_Adjusted_Penalty>  (120) 
0

>  <i_epik_Tot_Q>  (120) 
0

>  <i_epik_Tot_abs_Q>  (120) 
0

>  <s_lp_Force_Field>  (120) 
OPLS3e

>  <r_lp_Energy>  (120) 
36.8516

>  <b_lp_Chiralities_Consistent>  (120) 
1

>  <s_lp_Variant>  (120) 
44:0-1

>  <s_i_glide_gridfile>  (120) 
pfpi4k_grid

>  <i_i_glide_lignum>  (120) 
17

>  <i_i_glide_rotatable_bonds>  (120) 
1

>  <r_i_docking_score>  (120) 
-4.00129

>  <r_i_glide_ligand_efficiency>  (120) 
-0.181877

>  <r_i_glide_ligand_efficiency_sa>  (120) 
-0.509626

>  <r_i_glide_ligand_efficiency_ln>  (120) 
-0.978062

>  <r_i_glide_gscore>  (120) 
-4.00129

>  <r_i_glide_lipo>  (120) 
-0.521057

>  <r_i_glide_hbond>  (120) 
-0.32

>  <r_i_glide_metal>  (120) 
-0

>  <r_i_glide_rewards>  (120) 
-1.42803

>  <r_i_glide_evdw>  (120) 
-22.0622

>  <r_i_glide_ecoul>  (120) 
-4.16558

>  <r_i_glide_erotb>  (120) 
0

>  <r_i_glide_esite>  (120) 
-0.00426396

>  <r_i_glide_emodel>  (120) 
-32.2484

>  <r_i_glide_energy>  (120) 
-26.2277

>  <r_i_glide_einternal>  (120) 
0.127219

>  <r_i_glide_intrahb_reward>  (120) 
-0

>  <i_i_glide_confnum>  (120) 
2

>  <i_i_glide_posenum>  (120) 
1

>  <r_i_glide_eff_state_penalty>  (120) 
0

>  <ligand_id>  (120) 
44

>  <original_smiles>  (120) 
CC12CCC(=O)CC1=CCC1C2C(=O)CC2(C)C(O)CCC12

>  <smiles>  (120) 
[H]OC1([H])C([H])([H])C([H])([H])C2([H])C3([H])C([H])([H])C([H])=C4C([H])([H])C(=O)C([H])([H])C([H])([H])C4(C([H])([H])[H])C3([H])C(=O)C([H])([H])C12C([H])([H])[H]

$$$$
44:0:1
     RDKit          3D

 48 51  0  0  1  0  0  0  0  0999 V2000
    5.6557   -0.8134   -0.2806 C   0  0  0  0  0  0  0  0  0  0  0  0
    4.6253   -1.9567   -0.0909 C   0  0  1  0  0  0  0  0  0  0  0  0
    3.4388   -1.6381   -1.0444 C   0  0  0  0  0  0  0  0  0  0  0  0
    3.7598   -1.6884   -2.5617 C   0  0  0  0  0  0  0  0  0  0  0  0
    4.6103   -2.9028   -2.9432 C   0  0  0  0  0  0  0  0  0  0  0  0
    4.4026   -3.5306   -3.9760 O   0  0  0  0  0  0  0  0  0  0  0  0
    5.7601   -3.2552   -2.0018 C   0  0  0  0  0  0  0  0  0  0  0  0
    5.1980   -3.2875   -0.5931 C   0  0  0  0  0  0  0  0  0  0  0  0
    5.0255   -4.4543    0.0587 C   0  0  0  0  0  0  0  0  0  0  0  0
    4.2249   -4.6061    1.3375 C   0  0  0  0  0  0  0  0  0  0  0  0
    3.3423   -3.3687    1.6454 C   0  0  2  0  0  0  0  0  0  0  0  0
    4.1208   -2.0531    1.4090 C   0  0  1  0  0  0  0  0  0  0  0  0
    5.1624   -1.8613    2.5456 C   0  0  0  0  0  0  0  0  0  0  0  0
    6.0672   -1.0373    2.4764 O   0  0  0  0  0  0  0  0  0  0  0  0
    5.0124   -2.6648    3.8425 C   0  0  0  0  0  0  0  0  0  0  0  0
    3.5600   -3.0153    4.2456 C   0  0  1  0  0  0  0  0  0  0  0  0
    3.6432   -4.1893    5.2476 C   0  0  0  0  0  0  0  0  0  0  0  0
    2.7851   -1.8541    4.9365 C   0  0  1  0  0  0  0  0  0  0  0  0
    3.1458   -0.5714    4.4595 O   0  0  0  0  0  0  0  0  0  0  0  0
    1.3220   -2.0905    4.5718 C   0  0  0  0  0  0  0  0  0  0  0  0
    1.3959   -2.5958    3.1362 C   0  0  0  0  0  0  0  0  0  0  0  0
    2.6730   -3.4452    3.0415 C   0  0  1  0  0  0  0  0  0  0  0  0
    5.3282    0.0917    0.2319 H   0  0  0  0  0  0  0  0  0  0  0  0
    5.7933   -0.5381   -1.3245 H   0  0  0  0  0  0  0  0  0  0  0  0
    6.6434   -1.0835    0.0948 H   0  0  0  0  0  0  0  0  0  0  0  0
    2.6231   -2.3372   -0.8878 H   0  0  0  0  0  0  0  0  0  0  0  0
    3.0210   -0.6631   -0.7965 H   0  0  0  0  0  0  0  0  0  0  0  0
    2.8286   -1.7003   -3.1356 H   0  0  0  0  0  0  0  0  0  0  0  0
    4.2961   -0.7925   -2.8764 H   0  0  0  0  0  0  0  0  0  0  0  0
    6.1720   -4.2231   -2.2746 H   0  0  0  0  0  0  0  0  0  0  0  0
    6.5556   -2.5197   -2.1003 H   0  0  0  0  0  0  0  0  0  0  0  0
    5.3912   -5.3723   -0.3774 H   0  0  0  0  0  0  0  0  0  0  0  0
    3.5756   -5.4779    1.2128 H   0  0  0  0  0  0  0  0  0  0  0  0
    4.9200   -4.8472    2.1427 H   0  0  0  0  0  0  0  0  0  0  0  0
    2.5223   -3.4131    0.9283 H   0  0  0  0  0  0  0  0  0  0  0  0
    3.4347   -1.2199    1.5446 H   0  0  0  0  0  0  0  0  0  0  0  0
    5.6019   -3.5733    3.7452 H   0  0  0  0  0  0  0  0  0  0  0  0
    5.4780   -2.1054    4.6537 H   0  0  0  0  0  0  0  0  0  0  0  0
    2.6545   -4.4940    5.6004 H   0  0  0  0  0  0  0  0  0  0  0  0
    4.2338   -3.9201    6.1267 H   0  0  0  0  0  0  0  0  0  0  0  0
    4.1097   -5.0662    4.7938 H   0  0  0  0  0  0  0  0  0  0  0  0
    2.9277   -1.8479    6.0140 H   0  0  0  0  0  0  0  0  0  0  0  0
    2.9637   -0.5329    3.5346 H   0  0  0  0  0  0  0  0  0  0  0  0
    0.8976   -2.8671    5.2102 H   0  0  0  0  0  0  0  0  0  0  0  0
    0.6941   -1.2035    4.6755 H   0  0  0  0  0  0  0  0  0  0  0  0
    0.5148   -3.1798    2.8789 H   0  0  0  0  0  0  0  0  0  0  0  0
    1.4328   -1.7452    2.4520 H   0  0  0  0  0  0  0  0  0  0  0  0
    2.3581   -4.4807    3.1938 H   0  0  0  0  0  0  0  0  0  0  0  0
  2  1  1  1
  1 23  1  0
  1 24  1  0
  1 25  1  0
  2  8  1  0
  2 12  1  0
  2  3  1  0
  3  4  1  0
  3 26  1  0
  3 27  1  0
  4  5  1  0
  4 28  1  0
  4 29  1  0
  5  6  2  0
  5  7  1  0
  7  8  1  0
  7 30  1  0
  7 31  1  0
  8  9  2  0
  9 10  1  0
  9 32  1  0
 10 11  1  0
 10 33  1  0
 10 34  1  0
 11 22  1  0
 11 12  1  0
 11 35  1  6
 12 13  1  0
 12 36  1  1
 13 14  2  0
 13 15  1  0
 15 16  1  0
 15 37  1  0
 15 38  1  0
 16 22  1  0
 16 17  1  1
 16 18  1  0
 17 39  1  0
 17 40  1  0
 17 41  1  0
 18 19  1  0
 18 20  1  0
 18 42  1  1
 19 43  1  0
 20 21  1  0
 20 44  1  0
 20 45  1  0
 21 22  1  0
 21 46  1  0
 21 47  1  0
 22 48  1  1
M  END
>  <i_m_ct_stereo_status>  (121) 
1

>  <s_m_source_file>  (121) 
/var/tmp/pbs.5076255.sched01/tmpscvaj2_a/3886avry94.sdf

>  <i_m_source_file_index>  (121) 
17

>  <i_lp_mmshare_version>  (121) 
48012

>  <i_f3d_flags>  (121) 
0

>  <s_epik_input>  (121) 
W0NIMl0xW0NIMl1DKD1PKVtDSDJdQyhbQ0BAXTEyW0NIM10pPVtDSF1bQ0gyXVtDQEBIXTNbQ0BIXTJDKD1PKVtDSDJdW0NAXTQoW0NIM10pW0NASF0zW0NIMl1bQ0gyXVtDQEBIXTRbT0hd

>  <s_epik_cmdline>  (121) 
J2VwaWtfcHl0aG9uJywgJy1waHQnLCAnMi4wJywgJy1waCcsICc3LjAnLCAnLXRuJywgJzgnLCAnLW1hJywgJzIwMCcsICctaW1hZScsICc8aW5maWxlLm1hZT4nLCAnLW9tYWUnLCAnPG91dGZpbGUubWFlPic=

>  <r_lp_tautomer_probability>  (121) 
1

>  <r_epik_Ionization_Penalty>  (121) 
9.00251e-07

>  <r_epik_Ionization_Penalty_Charging>  (121) 
0

>  <r_epik_Ionization_Penalty_Neutral>  (121) 
9.00251e-07

>  <r_epik_State_Penalty>  (121) 
-0

>  <r_epik_Charging_Adjusted_Penalty>  (121) 
0

>  <i_epik_Tot_Q>  (121) 
0

>  <i_epik_Tot_abs_Q>  (121) 
0

>  <s_lp_Force_Field>  (121) 
OPLS3e

>  <r_lp_Energy>  (121) 
36.8516

>  <b_lp_Chiralities_Consistent>  (121) 
1

>  <s_lp_Variant>  (121) 
44:0-1

>  <s_i_glide_gridfile>  (121) 
pfpi4k_grid

>  <i_i_glide_lignum>  (121) 
17

>  <i_i_glide_rotatable_bonds>  (121) 
1

>  <r_i_docking_score>  (121) 
-3.4048

>  <r_i_glide_ligand_efficiency>  (121) 
-0.154764

>  <r_i_glide_ligand_efficiency_sa>  (121) 
-0.433654

>  <r_i_glide_ligand_efficiency_ln>  (121) 
-0.832258

>  <r_i_glide_gscore>  (121) 
-3.4048

>  <r_i_glide_lipo>  (121) 
-0.377627

>  <r_i_glide_hbond>  (121) 
-0.00478299

>  <r_i_glide_metal>  (121) 
-0

>  <r_i_glide_rewards>  (121) 
-1.61461

>  <r_i_glide_evdw>  (121) 
-22.6103

>  <r_i_glide_ecoul>  (121) 
-1.84847

>  <r_i_glide_erotb>  (121) 
0

>  <r_i_glide_esite>  (121) 
0

>  <r_i_glide_emodel>  (121) 
-29.6842

>  <r_i_glide_energy>  (121) 
-24.4588

>  <r_i_glide_einternal>  (121) 
0.000448041

>  <r_i_glide_intrahb_reward>  (121) 
-0

>  <i_i_glide_confnum>  (121) 
1

>  <i_i_glide_posenum>  (121) 
36

>  <r_i_glide_eff_state_penalty>  (121) 
0

>  <ligand_id>  (121) 
44

>  <original_smiles>  (121) 
CC12CCC(=O)CC1=CCC1C2C(=O)CC2(C)C(O)CCC12

>  <smiles>  (121) 
[H]OC1([H])C([H])([H])C([H])([H])C2([H])C3([H])C([H])([H])C([H])=C4C([H])([H])C(=O)C([H])([H])C([H])([H])C4(C([H])([H])[H])C3([H])C(=O)C([H])([H])C12C([H])([H])[H]

$$$$
44:0:2
     RDKit          3D

 48 51  0  0  1  0  0  0  0  0999 V2000
    6.0601   -1.5278   -0.7216 C   0  0  0  0  0  0  0  0  0  0  0  0
    4.6057   -2.0324   -0.5455 C   0  0  1  0  0  0  0  0  0  0  0  0
    3.7643   -1.3269   -1.6496 C   0  0  0  0  0  0  0  0  0  0  0  0
    4.0961   -1.7019   -3.1157 C   0  0  0  0  0  0  0  0  0  0  0  0
    4.3054   -3.1997   -3.3031 C   0  0  0  0  0  0  0  0  0  0  0  0
    3.9205   -3.7735   -4.3216 O   0  0  0  0  0  0  0  0  0  0  0  0
    5.0890   -3.9216   -2.2144 C   0  0  0  0  0  0  0  0  0  0  0  0
    4.5129   -3.5254   -0.8678 C   0  0  0  0  0  0  0  0  0  0  0  0
    3.7949   -4.3977   -0.1373 C   0  0  0  0  0  0  0  0  0  0  0  0
    2.9547   -4.0210    1.0637 C   0  0  0  0  0  0  0  0  0  0  0  0
    2.7324   -2.4920    1.1744 C   0  0  2  0  0  0  0  0  0  0  0  0
    4.0420   -1.7071    0.9003 C   0  0  1  0  0  0  0  0  0  0  0  0
    4.9966   -1.8830    2.1158 C   0  0  0  0  0  0  0  0  0  0  0  0
    6.1927   -1.5965    2.0665 O   0  0  0  0  0  0  0  0  0  0  0  0
    4.4113   -2.3600    3.4534 C   0  0  0  0  0  0  0  0  0  0  0  0
    2.9383   -1.9536    3.7308 C   0  0  1  0  0  0  0  0  0  0  0  0
    2.4095   -2.9049    4.8292 C   0  0  0  0  0  0  0  0  0  0  0  0
    2.7578   -0.4924    4.2330 C   0  0  1  0  0  0  0  0  0  0  0  0
    3.7016    0.4098    3.6914 O   0  0  0  0  0  0  0  0  0  0  0  0
    1.3746   -0.0717    3.7387 C   0  0  0  0  0  0  0  0  0  0  0  0
    1.2779   -0.7215    2.3630 C   0  0  0  0  0  0  0  0  0  0  0  0
    2.0185   -2.0697    2.4823 C   0  0  1  0  0  0  0  0  0  0  0  0
    6.1691   -0.5220   -0.3175 H   0  0  0  0  0  0  0  0  0  0  0  0
    6.3565   -1.4858   -1.7664 H   0  0  0  0  0  0  0  0  0  0  0  0
    6.7855   -2.1781   -0.2342 H   0  0  0  0  0  0  0  0  0  0  0  0
    2.7117   -1.5729   -1.5233 H   0  0  0  0  0  0  0  0  0  0  0  0
    3.8514   -0.2596   -1.5481 H   0  0  0  0  0  0  0  0  0  0  0  0
    3.2981   -1.3633   -3.7780 H   0  0  0  0  0  0  0  0  0  0  0  0
    5.0063   -1.2054   -3.4452 H   0  0  0  0  0  0  0  0  0  0  0  0
    5.0044   -4.9991   -2.3538 H   0  0  0  0  0  0  0  0  0  0  0  0
    6.1439   -3.6607   -2.2904 H   0  0  0  0  0  0  0  0  0  0  0  0
    3.7195   -5.4286   -0.4580 H   0  0  0  0  0  0  0  0  0  0  0  0
    1.9845   -4.5065    0.9371 H   0  0  0  0  0  0  0  0  0  0  0  0
    3.4065   -4.4609    1.9522 H   0  0  0  0  0  0  0  0  0  0  0  0
    2.0295   -2.2645    0.3855 H   0  0  0  0  0  0  0  0  0  0  0  0
    3.8027   -0.6474    0.8946 H   0  0  0  0  0  0  0  0  0  0  0  0
    4.5076   -3.4435    3.4935 H   0  0  0  0  0  0  0  0  0  0  0  0
    5.0397   -1.9853    4.2586 H   0  0  0  0  0  0  0  0  0  0  0  0
    1.3752   -2.6782    5.1012 H   0  0  0  0  0  0  0  0  0  0  0  0
    3.0100   -2.8328    5.7391 H   0  0  0  0  0  0  0  0  0  0  0  0
    2.4373   -3.9457    4.4995 H   0  0  0  0  0  0  0  0  0  0  0  0
    2.8327   -0.4196    5.3181 H   0  0  0  0  0  0  0  0  0  0  0  0
    3.5367    0.4927    2.7660 H   0  0  0  0  0  0  0  0  0  0  0  0
    0.6058   -0.4857    4.3922 H   0  0  0  0  0  0  0  0  0  0  0  0
    1.2299    1.0095    3.7065 H   0  0  0  0  0  0  0  0  0  0  0  0
    0.2453   -0.8433    2.0521 H   0  0  0  0  0  0  0  0  0  0  0  0
    1.7511   -0.0792    1.6199 H   0  0  0  0  0  0  0  0  0  0  0  0
    1.2474   -2.8178    2.6884 H   0  0  0  0  0  0  0  0  0  0  0  0
  2  1  1  1
  1 23  1  0
  1 24  1  0
  1 25  1  0
  2  8  1  0
  2 12  1  0
  2  3  1  0
  3  4  1  0
  3 26  1  0
  3 27  1  0
  4  5  1  0
  4 28  1  0
  4 29  1  0
  5  6  2  0
  5  7  1  0
  7  8  1  0
  7 30  1  0
  7 31  1  0
  8  9  2  0
  9 10  1  0
  9 32  1  0
 10 11  1  0
 10 33  1  0
 10 34  1  0
 11 22  1  0
 11 12  1  0
 11 35  1  6
 12 13  1  0
 12 36  1  6
 13 14  2  0
 13 15  1  0
 15 16  1  0
 15 37  1  0
 15 38  1  0
 16 22  1  0
 16 17  1  1
 16 18  1  0
 17 39  1  0
 17 40  1  0
 17 41  1  0
 18 19  1  0
 18 20  1  0
 18 42  1  1
 19 43  1  0
 20 21  1  0
 20 44  1  0
 20 45  1  0
 21 22  1  0
 21 46  1  0
 21 47  1  0
 22 48  1  1
M  END
>  <i_m_ct_stereo_status>  (122) 
1

>  <s_m_source_file>  (122) 
/var/tmp/pbs.5076255.sched01/tmpscvaj2_a/3886avry94.sdf

>  <i_m_source_file_index>  (122) 
17

>  <i_lp_mmshare_version>  (122) 
48012

>  <i_f3d_flags>  (122) 
0

>  <s_epik_input>  (122) 
W0NIMl0xW0NIMl1DKD1PKVtDSDJdQyhbQ0BAXTEyW0NIM10pPVtDSF1bQ0gyXVtDQEBIXTNbQ0BIXTJDKD1PKVtDSDJdW0NAXTQoW0NIM10pW0NASF0zW0NIMl1bQ0gyXVtDQEBIXTRbT0hd

>  <s_epik_cmdline>  (122) 
J2VwaWtfcHl0aG9uJywgJy1waHQnLCAnMi4wJywgJy1waCcsICc3LjAnLCAnLXRuJywgJzgnLCAnLW1hJywgJzIwMCcsICctaW1hZScsICc8aW5maWxlLm1hZT4nLCAnLW9tYWUnLCAnPG91dGZpbGUubWFlPic=

>  <r_lp_tautomer_probability>  (122) 
1

>  <r_epik_Ionization_Penalty>  (122) 
9.00251e-07

>  <r_epik_Ionization_Penalty_Charging>  (122) 
0

>  <r_epik_Ionization_Penalty_Neutral>  (122) 
9.00251e-07

>  <r_epik_State_Penalty>  (122) 
-0

>  <r_epik_Charging_Adjusted_Penalty>  (122) 
0

>  <i_epik_Tot_Q>  (122) 
0

>  <i_epik_Tot_abs_Q>  (122) 
0

>  <s_lp_Force_Field>  (122) 
OPLS3e

>  <r_lp_Energy>  (122) 
36.8516

>  <b_lp_Chiralities_Consistent>  (122) 
1

>  <s_lp_Variant>  (122) 
44:0-1

>  <s_i_glide_gridfile>  (122) 
pfpi4k_grid

>  <i_i_glide_lignum>  (122) 
17

>  <i_i_glide_rotatable_bonds>  (122) 
1

>  <r_i_docking_score>  (122) 
-3.34173

>  <r_i_glide_ligand_efficiency>  (122) 
-0.151897

>  <r_i_glide_ligand_efficiency_sa>  (122) 
-0.425621

>  <r_i_glide_ligand_efficiency_ln>  (122) 
-0.81684

>  <r_i_glide_gscore>  (122) 
-3.34173

>  <r_i_glide_lipo>  (122) 
-0.12295

>  <r_i_glide_hbond>  (122) 
-0.057457

>  <r_i_glide_metal>  (122) 
-0

>  <r_i_glide_rewards>  (122) 
-1.63208

>  <r_i_glide_evdw>  (122) 
-22.8544

>  <r_i_glide_ecoul>  (122) 
-2.57678

>  <r_i_glide_erotb>  (122) 
0

>  <r_i_glide_esite>  (122) 
0

>  <r_i_glide_emodel>  (122) 
-30.5152

>  <r_i_glide_energy>  (122) 
-25.4312

>  <r_i_glide_einternal>  (122) 
0.0536876

>  <r_i_glide_intrahb_reward>  (122) 
-0

>  <i_i_glide_confnum>  (122) 
1

>  <i_i_glide_posenum>  (122) 
35

>  <r_i_glide_eff_state_penalty>  (122) 
0

>  <ligand_id>  (122) 
44

>  <original_smiles>  (122) 
CC12CCC(=O)CC1=CCC1C2C(=O)CC2(C)C(O)CCC12

>  <smiles>  (122) 
[H]OC1([H])C([H])([H])C([H])([H])C2([H])C3([H])C([H])([H])C([H])=C4C([H])([H])C(=O)C([H])([H])C([H])([H])C4(C([H])([H])[H])C3([H])C(=O)C([H])([H])C12C([H])([H])[H]

$$$$
46:0:0
     RDKit          3D

 47 49  0  0  1  0  0  0  0  0999 V2000
    0.6591    1.9373    3.8737 C   0  0  0  0  0  0  0  0  0  0  0  0
    1.5437    0.6744    3.7936 C   0  0  0  0  0  0  0  0  0  0  0  0
    2.8717    0.9790    4.5135 C   0  0  0  0  0  0  0  0  0  0  0  0
    0.9026   -0.3691    4.5428 O   0  0  0  0  0  0  0  0  0  0  0  0
    1.2504   -1.6814    4.3131 C   0  0  0  0  0  0  0  0  0  0  0  0
    0.8024   -2.6623    5.2180 C   0  0  0  0  0  0  0  0  0  0  0  0
    1.1504   -4.0025    4.9944 C   0  0  0  0  0  0  0  0  0  0  0  0
    1.9478   -4.3173    3.8678 C   0  0  0  0  0  0  0  0  0  0  0  0
    2.3874   -3.3877    2.9951 N   0  0  0  0  0  0  0  0  0  0  0  0
    2.0400   -2.1023    3.2074 C   0  0  0  0  0  0  0  0  0  0  0  0
    2.5777   -1.0528    2.2460 C   0  0  1  0  0  0  0  0  0  0  0  0
    2.8291   -1.4686    0.8659 N   0  0  0  0  0  0  0  0  0  0  0  0
    4.0653   -1.7488    0.3211 C   0  0  0  0  0  0  0  0  0  0  0  0
    5.1380   -1.6138    1.0466 N   0  0  0  0  0  0  0  0  0  0  0  0
    6.3246   -1.7818    0.4814 C   0  0  0  0  0  0  0  0  0  0  0  0
    7.3848   -1.8538    0.0149 N   0  0  0  0  0  0  0  0  0  0  0  0
    3.9742   -2.1462   -1.0211 N   0  0  0  0  0  0  0  0  0  0  0  0
    4.4899   -1.3481   -2.1276 C   0  0  0  0  0  0  0  0  0  0  0  0
    3.3898   -1.0593   -3.1630 C   0  0  0  0  0  0  0  0  0  0  0  0
    2.7350   -2.3617   -3.6461 C   0  0  0  0  0  0  0  0  0  0  0  0
    2.2379   -3.1774   -2.4468 C   0  0  0  0  0  0  0  0  0  0  0  0
    3.3637   -3.4118   -1.4245 C   0  0  0  0  0  0  0  0  0  0  0  0
    1.7747    0.2473    2.3183 C   0  0  1  0  0  0  0  0  0  0  0  0
    0.5142    0.1001    1.6828 O   0  0  0  0  0  0  0  0  0  0  0  0
    1.0950    2.7523    3.2964 H   0  0  0  0  0  0  0  0  0  0  0  0
    0.5616    2.2847    4.8991 H   0  0  0  0  0  0  0  0  0  0  0  0
   -0.3474    1.7707    3.4905 H   0  0  0  0  0  0  0  0  0  0  0  0
    3.4452    1.7220    3.9615 H   0  0  0  0  0  0  0  0  0  0  0  0
    3.4918    0.0912    4.6309 H   0  0  0  0  0  0  0  0  0  0  0  0
    2.6880    1.3697    5.5129 H   0  0  0  0  0  0  0  0  0  0  0  0
    0.1954   -2.3881    6.0721 H   0  0  0  0  0  0  0  0  0  0  0  0
    0.8273   -4.7851    5.6625 H   0  0  0  0  0  0  0  0  0  0  0  0
    2.2135   -5.3426    3.6539 H   0  0  0  0  0  0  0  0  0  0  0  0
    3.5406   -0.7992    2.6819 H   0  0  0  0  0  0  0  0  0  0  0  0
    4.8844   -0.4088   -1.7440 H   0  0  0  0  0  0  0  0  0  0  0  0
    5.3148   -1.8853   -2.5963 H   0  0  0  0  0  0  0  0  0  0  0  0
    2.6272   -0.4159   -2.7200 H   0  0  0  0  0  0  0  0  0  0  0  0
    3.8005   -0.5105   -4.0095 H   0  0  0  0  0  0  0  0  0  0  0  0
    1.9015   -2.1431   -4.3169 H   0  0  0  0  0  0  0  0  0  0  0  0
    3.4494   -2.9546   -4.2173 H   0  0  0  0  0  0  0  0  0  0  0  0
    1.4145   -2.6562   -1.9677 H   0  0  0  0  0  0  0  0  0  0  0  0
    1.8304   -4.1273   -2.7878 H   0  0  0  0  0  0  0  0  0  0  0  0
    4.1215   -4.0610   -1.8656 H   0  0  0  0  0  0  0  0  0  0  0  0
    2.9630   -3.9471   -0.5637 H   0  0  0  0  0  0  0  0  0  0  0  0
    2.3268    1.0253    1.7873 H   0  0  0  0  0  0  0  0  0  0  0  0
    0.6126   -0.0956    0.7463 H   0  0  0  0  0  0  0  0  0  0  0  0
    2.0245   -1.4068    0.2400 H   0  0  0  0  0  0  0  0  0  0  0  0
  1  2  1  0
  1 25  1  0
  1 26  1  0
  1 27  1  0
  2 23  1  0
  2  3  1  0
  2  4  1  0
  3 28  1  0
  3 29  1  0
  3 30  1  0
  4  5  1  0
  5 10  2  0
  5  6  1  0
  6  7  2  0
  6 31  1  0
  7  8  1  0
  7 32  1  0
  8  9  2  0
  8 33  1  0
  9 10  1  0
 10 11  1  0
 11 12  1  0
 11 23  1  0
 11 34  1  1
 12 13  1  0
 12 47  1  0
 13 14  2  0
 13 17  1  0
 14 15  1  0
 15 16  3  0
 17 22  1  0
 17 18  1  0
 18 19  1  0
 18 35  1  0
 18 36  1  0
 19 20  1  0
 19 37  1  0
 19 38  1  0
 20 21  1  0
 20 39  1  0
 20 40  1  0
 21 22  1  0
 21 41  1  0
 21 42  1  0
 22 43  1  0
 22 44  1  0
 23 24  1  0
 23 45  1  6
 24 46  1  0
M  END
>  <i_m_ct_stereo_status>  (123) 
1

>  <s_m_source_file>  (123) 
/var/tmp/pbs.5076255.sched01/tmpscvaj2_a/3886avry94.sdf

>  <i_m_source_file_index>  (123) 
19

>  <i_lp_mmshare_version>  (123) 
48012

>  <i_f3d_flags>  (123) 
0

>  <s_epik_input>  (123) 
W2NIXTFbY0hdW2NIXW5jKGMxMilbQ0BIXShbQ0BASF0oW09IXSlDKE8yKShbQ0gzXSlbQ0gzXSkvTj1DKFxbTkhdQyNOKU4zW0NIMl1bQ0gyXVtDSDJdW0NIMl1bQ0gyXTM=

>  <s_epik_cmdline>  (123) 
J2VwaWtfcHl0aG9uJywgJy1waHQnLCAnMi4wJywgJy1waCcsICc3LjAnLCAnLXRuJywgJzgnLCAnLW1hJywgJzIwMCcsICctaW1hZScsICc8aW5maWxlLm1hZT4nLCAnLW9tYWUnLCAnPG91dGZpbGUubWFlPic=

>  <r_lp_tautomer_probability>  (123) 
1

>  <r_epik_Ionization_Penalty>  (123) 
0.0108548

>  <r_epik_Ionization_Penalty_Charging>  (123) 
0

>  <r_epik_Ionization_Penalty_Neutral>  (123) 
0.0108548

>  <r_epik_State_Penalty>  (123) 
0.00822255

>  <r_epik_Charging_Adjusted_Penalty>  (123) 
0.00822255

>  <i_epik_Tot_Q>  (123) 
0

>  <i_epik_Tot_abs_Q>  (123) 
0

>  <s_epik_Chemistry_Notes>  (123) 
This compound has an imine and may undergo hydrolysis.

>  <s_lp_Force_Field>  (123) 
OPLS3e

>  <r_lp_Energy>  (123) 
41.1904

>  <b_lp_Chiralities_Consistent>  (123) 
1

>  <s_lp_Variant>  (123) 
46:0-1

>  <s_i_glide_gridfile>  (123) 
pfpi4k_grid

>  <i_i_glide_lignum>  (123) 
19

>  <i_i_glide_rotatable_bonds>  (123) 
5

>  <r_i_docking_score>  (123) 
-4.32314

>  <r_i_glide_ligand_efficiency>  (123) 
-0.180131

>  <r_i_glide_ligand_efficiency_sa>  (123) 
-0.519588

>  <r_i_glide_ligand_efficiency_ln>  (123) 
-1.03473

>  <r_i_glide_gscore>  (123) 
-4.32314

>  <r_i_glide_lipo>  (123) 
-0.550752

>  <r_i_glide_hbond>  (123) 
-0.244474

>  <r_i_glide_metal>  (123) 
-0

>  <r_i_glide_rewards>  (123) 
-1.25541

>  <r_i_glide_evdw>  (123) 
-26.8447

>  <r_i_glide_ecoul>  (123) 
-10.1728

>  <r_i_glide_erotb>  (123) 
0.692864

>  <r_i_glide_esite>  (123) 
-0.0972169

>  <r_i_glide_emodel>  (123) 
-47.7554

>  <r_i_glide_energy>  (123) 
-37.0175

>  <r_i_glide_einternal>  (123) 
3.43998

>  <r_i_glide_intrahb_reward>  (123) 
-0

>  <i_i_glide_confnum>  (123) 
2

>  <i_i_glide_posenum>  (123) 
26

>  <r_i_glide_eff_state_penalty>  (123) 
0

>  <ligand_id>  (123) 
46

>  <original_smiles>  (123) 
CC1(C)Oc2cccnc2C(N=C(NC#N)N2CCCCC2)C1O

>  <smiles>  (123) 
[H]OC1([H])C([H])(N([H])C(=NC#N)N2C([H])([H])C([H])([H])C([H])([H])C([H])([H])C2([H])[H])c2nc([H])c([H])c([H])c2OC1(C([H])([H])[H])C([H])([H])[H]

$$$$
46:0:1
     RDKit          3D

 47 49  0  0  1  0  0  0  0  0999 V2000
    0.4698    2.2316    3.4737 C   0  0  0  0  0  0  0  0  0  0  0  0
    1.6349    1.2204    3.4515 C   0  0  0  0  0  0  0  0  0  0  0  0
    2.9171    1.9709    3.8531 C   0  0  0  0  0  0  0  0  0  0  0  0
    1.3947    0.2406    4.4695 O   0  0  0  0  0  0  0  0  0  0  0  0
    2.0588   -0.9667    4.4082 C   0  0  0  0  0  0  0  0  0  0  0  0
    2.0008   -1.8180    5.5302 C   0  0  0  0  0  0  0  0  0  0  0  0
    2.6602   -3.0574    5.4826 C   0  0  0  0  0  0  0  0  0  0  0  0
    3.3433   -3.4109    4.2981 C   0  0  0  0  0  0  0  0  0  0  0  0
    3.4014   -2.6088    3.2131 N   0  0  0  0  0  0  0  0  0  0  0  0
    2.7672   -1.4172    3.2672 C   0  0  0  0  0  0  0  0  0  0  0  0
    2.8854   -0.5051    2.0445 C   0  0  1  0  0  0  0  0  0  0  0  0
    3.0589   -1.1208    0.7291 N   0  0  0  0  0  0  0  0  0  0  0  0
    4.2839   -1.5261    0.2246 C   0  0  0  0  0  0  0  0  0  0  0  0
    5.3456   -1.4590    0.9704 N   0  0  0  0  0  0  0  0  0  0  0  0
    6.5289   -1.7378    0.4393 C   0  0  0  0  0  0  0  0  0  0  0  0
    7.5871   -1.8960   -0.0002 N   0  0  0  0  0  0  0  0  0  0  0  0
    4.1844   -1.9357   -1.1089 N   0  0  0  0  0  0  0  0  0  0  0  0
    4.5758   -1.0762   -2.2197 C   0  0  0  0  0  0  0  0  0  0  0  0
    3.4154   -0.8754   -3.2089 C   0  0  0  0  0  0  0  0  0  0  0  0
    2.8592   -2.2242   -3.6809 C   0  0  0  0  0  0  0  0  0  0  0  0
    2.4749   -3.0845   -2.4739 C   0  0  0  0  0  0  0  0  0  0  0  0
    3.6574   -3.2425   -1.5007 C   0  0  0  0  0  0  0  0  0  0  0  0
    1.7808    0.5560    2.0536 C   0  0  1  0  0  0  0  0  0  0  0  0
    0.5479   -0.0219    1.6814 O   0  0  0  0  0  0  0  0  0  0  0  0
    0.5996    2.9812    2.6970 H   0  0  0  0  0  0  0  0  0  0  0  0
    0.4239    2.7565    4.4259 H   0  0  0  0  0  0  0  0  0  0  0  0
   -0.4986    1.7592    3.3144 H   0  0  0  0  0  0  0  0  0  0  0  0
    3.1926    2.6969    3.0899 H   0  0  0  0  0  0  0  0  0  0  0  0
    3.7644    1.2996    3.9990 H   0  0  0  0  0  0  0  0  0  0  0  0
    2.7760    2.5107    4.7889 H   0  0  0  0  0  0  0  0  0  0  0  0
    1.4641   -1.5191    6.4194 H   0  0  0  0  0  0  0  0  0  0  0  0
    2.6423   -3.7353    6.3199 H   0  0  0  0  0  0  0  0  0  0  0  0
    3.8437   -4.3646    4.2128 H   0  0  0  0  0  0  0  0  0  0  0  0
    3.8059    0.0556    2.2095 H   0  0  0  0  0  0  0  0  0  0  0  0
    4.9073   -0.1132   -1.8404 H   0  0  0  0  0  0  0  0  0  0  0  0
    5.4209   -1.5428   -2.7217 H   0  0  0  0  0  0  0  0  0  0  0  0
    2.6207   -0.3031   -2.7298 H   0  0  0  0  0  0  0  0  0  0  0  0
    3.7486   -0.2881   -4.0627 H   0  0  0  0  0  0  0  0  0  0  0  0
    1.9880   -2.0724   -4.3206 H   0  0  0  0  0  0  0  0  0  0  0  0
    3.6008   -2.7496   -4.2849 H   0  0  0  0  0  0  0  0  0  0  0  0
    1.6228   -2.6535   -1.9529 H   0  0  0  0  0  0  0  0  0  0  0  0
    2.1278   -4.0506   -2.8232 H   0  0  0  0  0  0  0  0  0  0  0  0
    4.4540   -3.8201   -1.9754 H   0  0  0  0  0  0  0  0  0  0  0  0
    3.3406   -3.8089   -0.6246 H   0  0  0  0  0  0  0  0  0  0  0  0
    2.0151    1.3214    1.3096 H   0  0  0  0  0  0  0  0  0  0  0  0
    0.5864   -0.2396    0.7405 H   0  0  0  0  0  0  0  0  0  0  0  0
    2.2393   -1.1089    0.1251 H   0  0  0  0  0  0  0  0  0  0  0  0
  1  2  1  0
  1 25  1  0
  1 26  1  0
  1 27  1  0
  2 23  1  0
  2  3  1  0
  2  4  1  0
  3 28  1  0
  3 29  1  0
  3 30  1  0
  4  5  1  0
  5 10  2  0
  5  6  1  0
  6  7  2  0
  6 31  1  0
  7  8  1  0
  7 32  1  0
  8  9  2  0
  8 33  1  0
  9 10  1  0
 10 11  1  0
 11 12  1  0
 11 23  1  0
 11 34  1  1
 12 13  1  0
 12 47  1  0
 13 14  2  0
 13 17  1  0
 14 15  1  0
 15 16  3  0
 17 22  1  0
 17 18  1  0
 18 19  1  0
 18 35  1  0
 18 36  1  0
 19 20  1  0
 19 37  1  0
 19 38  1  0
 20 21  1  0
 20 39  1  0
 20 40  1  0
 21 22  1  0
 21 41  1  0
 21 42  1  0
 22 43  1  0
 22 44  1  0
 23 24  1  0
 23 45  1  6
 24 46  1  0
M  END
>  <i_m_ct_stereo_status>  (124) 
1

>  <s_m_source_file>  (124) 
/var/tmp/pbs.5076255.sched01/tmpscvaj2_a/3886avry94.sdf

>  <i_m_source_file_index>  (124) 
19

>  <i_lp_mmshare_version>  (124) 
48012

>  <i_f3d_flags>  (124) 
0

>  <s_epik_input>  (124) 
W2NIXTFbY0hdW2NIXW5jKGMxMilbQ0BIXShbQ0BASF0oW09IXSlDKE8yKShbQ0gzXSlbQ0gzXSkvTj1DKFxbTkhdQyNOKU4zW0NIMl1bQ0gyXVtDSDJdW0NIMl1bQ0gyXTM=

>  <s_epik_cmdline>  (124) 
J2VwaWtfcHl0aG9uJywgJy1waHQnLCAnMi4wJywgJy1waCcsICc3LjAnLCAnLXRuJywgJzgnLCAnLW1hJywgJzIwMCcsICctaW1hZScsICc8aW5maWxlLm1hZT4nLCAnLW9tYWUnLCAnPG91dGZpbGUubWFlPic=

>  <r_lp_tautomer_probability>  (124) 
1

>  <r_epik_Ionization_Penalty>  (124) 
0.0108548

>  <r_epik_Ionization_Penalty_Charging>  (124) 
0

>  <r_epik_Ionization_Penalty_Neutral>  (124) 
0.0108548

>  <r_epik_State_Penalty>  (124) 
0.00822255

>  <r_epik_Charging_Adjusted_Penalty>  (124) 
0.00822255

>  <i_epik_Tot_Q>  (124) 
0

>  <i_epik_Tot_abs_Q>  (124) 
0

>  <s_epik_Chemistry_Notes>  (124) 
This compound has an imine and may undergo hydrolysis.

>  <s_lp_Force_Field>  (124) 
OPLS3e

>  <r_lp_Energy>  (124) 
41.1904

>  <b_lp_Chiralities_Consistent>  (124) 
1

>  <s_lp_Variant>  (124) 
46:0-1

>  <s_i_glide_gridfile>  (124) 
pfpi4k_grid

>  <i_i_glide_lignum>  (124) 
19

>  <i_i_glide_rotatable_bonds>  (124) 
5

>  <r_i_docking_score>  (124) 
-4.16722

>  <r_i_glide_ligand_efficiency>  (124) 
-0.173634

>  <r_i_glide_ligand_efficiency_sa>  (124) 
-0.500847

>  <r_i_glide_ligand_efficiency_ln>  (124) 
-0.997406

>  <r_i_glide_gscore>  (124) 
-4.16722

>  <r_i_glide_lipo>  (124) 
-0.377852

>  <r_i_glide_hbond>  (124) 
-0.248529

>  <r_i_glide_metal>  (124) 
-0

>  <r_i_glide_rewards>  (124) 
-1.21003

>  <r_i_glide_evdw>  (124) 
-27.2499

>  <r_i_glide_ecoul>  (124) 
-10.3699

>  <r_i_glide_erotb>  (124) 
0.692864

>  <r_i_glide_esite>  (124) 
-0.105688

>  <r_i_glide_emodel>  (124) 
-48.1099

>  <r_i_glide_energy>  (124) 
-37.6198

>  <r_i_glide_einternal>  (124) 
2.96207

>  <r_i_glide_intrahb_reward>  (124) 
-0

>  <i_i_glide_confnum>  (124) 
2

>  <i_i_glide_posenum>  (124) 
20

>  <r_i_glide_eff_state_penalty>  (124) 
0

>  <ligand_id>  (124) 
46

>  <original_smiles>  (124) 
CC1(C)Oc2cccnc2C(N=C(NC#N)N2CCCCC2)C1O

>  <smiles>  (124) 
[H]OC1([H])C([H])(N([H])C(=NC#N)N2C([H])([H])C([H])([H])C([H])([H])C([H])([H])C2([H])[H])c2nc([H])c([H])c([H])c2OC1(C([H])([H])[H])C([H])([H])[H]

$$$$
46:0:2
     RDKit          3D

 47 49  0  0  1  0  0  0  0  0999 V2000
    1.1923    2.9104    3.3544 C   0  0  0  0  0  0  0  0  0  0  0  0
    1.7722    1.4870    3.4737 C   0  0  0  0  0  0  0  0  0  0  0  0
    3.0550    1.5622    4.3155 C   0  0  0  0  0  0  0  0  0  0  0  0
    0.8455    0.6819    4.2091 O   0  0  0  0  0  0  0  0  0  0  0  0
    0.9108   -0.6950    4.1081 C   0  0  0  0  0  0  0  0  0  0  0  0
    0.1730   -1.4619    5.0268 C   0  0  0  0  0  0  0  0  0  0  0  0
    0.2407   -2.8659    4.9391 C   0  0  0  0  0  0  0  0  0  0  0  0
    1.0595   -3.4427    3.9488 C   0  0  0  0  0  0  0  0  0  0  0  0
    1.7800   -2.7191    3.0704 N   0  0  0  0  0  0  0  0  0  0  0  0
    1.6932   -1.3700    3.1444 C   0  0  0  0  0  0  0  0  0  0  0  0
    2.5373   -0.5601    2.1866 C   0  0  1  0  0  0  0  0  0  0  0  0
    2.7905   -1.1587    0.8741 N   0  0  0  0  0  0  0  0  0  0  0  0
    4.0352   -1.4437    0.3423 C   0  0  0  0  0  0  0  0  0  0  0  0
    5.1045   -1.2750    1.0613 N   0  0  0  0  0  0  0  0  0  0  0  0
    6.2990   -1.4922    0.5214 C   0  0  0  0  0  0  0  0  0  0  0  0
    7.3548   -1.6104    0.0654 N   0  0  0  0  0  0  0  0  0  0  0  0
    3.9589   -1.9063   -0.9804 N   0  0  0  0  0  0  0  0  0  0  0  0
    4.3993   -1.1187   -2.1273 C   0  0  0  0  0  0  0  0  0  0  0  0
    3.2657   -0.9547   -3.1547 C   0  0  0  0  0  0  0  0  0  0  0  0
    2.7021   -2.3195   -3.5797 C   0  0  0  0  0  0  0  0  0  0  0  0
    2.2866   -3.1268   -2.3488 C   0  0  0  0  0  0  0  0  0  0  0  0
    3.4401   -3.2289   -1.3299 C   0  0  0  0  0  0  0  0  0  0  0  0
    2.0545    0.8862    2.0823 C   0  0  1  0  0  0  0  0  0  0  0  0
    0.8778    0.9485    1.2998 O   0  0  0  0  0  0  0  0  0  0  0  0
    1.8530    3.5573    2.7758 H   0  0  0  0  0  0  0  0  0  0  0  0
    1.0755    3.3660    4.3352 H   0  0  0  0  0  0  0  0  0  0  0  0
    0.2133    2.9340    2.8760 H   0  0  0  0  0  0  0  0  0  0  0  0
    3.8275    2.1137    3.7826 H   0  0  0  0  0  0  0  0  0  0  0  0
    3.4536    0.5783    4.5640 H   0  0  0  0  0  0  0  0  0  0  0  0
    2.8724    2.0761    5.2581 H   0  0  0  0  0  0  0  0  0  0  0  0
   -0.4402   -0.9841    5.7779 H   0  0  0  0  0  0  0  0  0  0  0  0
   -0.3191   -3.4929    5.6135 H   0  0  0  0  0  0  0  0  0  0  0  0
    1.1016   -4.5173    3.8286 H   0  0  0  0  0  0  0  0  0  0  0  0
    3.4842   -0.5065    2.7112 H   0  0  0  0  0  0  0  0  0  0  0  0
    4.7216   -0.1378   -1.7856 H   0  0  0  0  0  0  0  0  0  0  0  0
    5.2565   -1.6055   -2.5947 H   0  0  0  0  0  0  0  0  0  0  0  0
    2.4701   -0.3478   -2.7201 H   0  0  0  0  0  0  0  0  0  0  0  0
    3.6157   -0.4050   -4.0277 H   0  0  0  0  0  0  0  0  0  0  0  0
    1.8417   -2.1907   -4.2382 H   0  0  0  0  0  0  0  0  0  0  0  0
    3.4515   -2.8763   -4.1419 H   0  0  0  0  0  0  0  0  0  0  0  0
    1.4131   -2.6683   -1.9045 H   0  0  0  0  0  0  0  0  0  0  0  0
    1.9274   -4.1087   -2.6442 H   0  0  0  0  0  0  0  0  0  0  0  0
    4.2403   -3.8371   -1.7591 H   0  0  0  0  0  0  0  0  0  0  0  0
    3.0984   -3.7536   -0.4382 H   0  0  0  0  0  0  0  0  0  0  0  0
    2.8159    1.4600    1.5593 H   0  0  0  0  0  0  0  0  0  0  0  0
    0.6241    1.8465    1.1941 H   0  0  0  0  0  0  0  0  0  0  0  0
    1.9763   -1.0927    0.2613 H   0  0  0  0  0  0  0  0  0  0  0  0
  1  2  1  0
  1 25  1  0
  1 26  1  0
  1 27  1  0
  2 23  1  0
  2  3  1  0
  2  4  1  0
  3 28  1  0
  3 29  1  0
  3 30  1  0
  4  5  1  0
  5 10  2  0
  5  6  1  0
  6  7  2  0
  6 31  1  0
  7  8  1  0
  7 32  1  0
  8  9  2  0
  8 33  1  0
  9 10  1  0
 10 11  1  0
 11 12  1  0
 11 23  1  0
 11 34  1  1
 12 13  1  0
 12 47  1  0
 13 14  2  0
 13 17  1  0
 14 15  1  0
 15 16  3  0
 17 22  1  0
 17 18  1  0
 18 19  1  0
 18 35  1  0
 18 36  1  0
 19 20  1  0
 19 37  1  0
 19 38  1  0
 20 21  1  0
 20 39  1  0
 20 40  1  0
 21 22  1  0
 21 41  1  0
 21 42  1  0
 22 43  1  0
 22 44  1  0
 23 24  1  0
 23 45  1  6
 24 46  1  0
M  END
>  <i_m_ct_stereo_status>  (125) 
1

>  <s_m_source_file>  (125) 
/var/tmp/pbs.5076255.sched01/tmpscvaj2_a/3886avry94.sdf

>  <i_m_source_file_index>  (125) 
19

>  <i_lp_mmshare_version>  (125) 
48012

>  <i_f3d_flags>  (125) 
0

>  <s_epik_input>  (125) 
W2NIXTFbY0hdW2NIXW5jKGMxMilbQ0BIXShbQ0BASF0oW09IXSlDKE8yKShbQ0gzXSlbQ0gzXSkvTj1DKFxbTkhdQyNOKU4zW0NIMl1bQ0gyXVtDSDJdW0NIMl1bQ0gyXTM=

>  <s_epik_cmdline>  (125) 
J2VwaWtfcHl0aG9uJywgJy1waHQnLCAnMi4wJywgJy1waCcsICc3LjAnLCAnLXRuJywgJzgnLCAnLW1hJywgJzIwMCcsICctaW1hZScsICc8aW5maWxlLm1hZT4nLCAnLW9tYWUnLCAnPG91dGZpbGUubWFlPic=

>  <r_lp_tautomer_probability>  (125) 
1

>  <r_epik_Ionization_Penalty>  (125) 
0.0108548

>  <r_epik_Ionization_Penalty_Charging>  (125) 
0

>  <r_epik_Ionization_Penalty_Neutral>  (125) 
0.0108548

>  <r_epik_State_Penalty>  (125) 
0.00822255

>  <r_epik_Charging_Adjusted_Penalty>  (125) 
0.00822255

>  <i_epik_Tot_Q>  (125) 
0

>  <i_epik_Tot_abs_Q>  (125) 
0

>  <s_epik_Chemistry_Notes>  (125) 
This compound has an imine and may undergo hydrolysis.

>  <s_lp_Force_Field>  (125) 
OPLS3e

>  <r_lp_Energy>  (125) 
41.1904

>  <b_lp_Chiralities_Consistent>  (125) 
1

>  <s_lp_Variant>  (125) 
46:0-1

>  <s_i_glide_gridfile>  (125) 
pfpi4k_grid

>  <i_i_glide_lignum>  (125) 
19

>  <i_i_glide_rotatable_bonds>  (125) 
5

>  <r_i_docking_score>  (125) 
-3.93387

>  <r_i_glide_ligand_efficiency>  (125) 
-0.163911

>  <r_i_glide_ligand_efficiency_sa>  (125) 
-0.472801

>  <r_i_glide_ligand_efficiency_ln>  (125) 
-0.941555

>  <r_i_glide_gscore>  (125) 
-3.93387

>  <r_i_glide_lipo>  (125) 
-0.488523

>  <r_i_glide_hbond>  (125) 
-0.268535

>  <r_i_glide_metal>  (125) 
-0

>  <r_i_glide_rewards>  (125) 
-1.26224

>  <r_i_glide_evdw>  (125) 
-28.0615

>  <r_i_glide_ecoul>  (125) 
-7.31051

>  <r_i_glide_erotb>  (125) 
0.692864

>  <r_i_glide_esite>  (125) 
-0.107775

>  <r_i_glide_emodel>  (125) 
-44.9685

>  <r_i_glide_energy>  (125) 
-35.372

>  <r_i_glide_einternal>  (125) 
3.21063

>  <r_i_glide_intrahb_reward>  (125) 
-0

>  <i_i_glide_confnum>  (125) 
2

>  <i_i_glide_posenum>  (125) 
34

>  <r_i_glide_eff_state_penalty>  (125) 
0

>  <ligand_id>  (125) 
46

>  <original_smiles>  (125) 
CC1(C)Oc2cccnc2C(N=C(NC#N)N2CCCCC2)C1O

>  <smiles>  (125) 
[H]OC1([H])C([H])(N([H])C(=NC#N)N2C([H])([H])C([H])([H])C([H])([H])C([H])([H])C2([H])[H])c2nc([H])c([H])c([H])c2OC1(C([H])([H])[H])C([H])([H])[H]

$$$$
46:1:0
     RDKit          3D

 48 50  0  0  1  0  0  0  0  0999 V2000
    5.4605   -0.8493    2.1042 C   0  0  0  0  0  0  0  0  0  0  0  0
    4.3590   -1.4513    1.2072 C   0  0  0  0  0  0  0  0  0  0  0  0
    3.0011   -0.9605    1.7432 C   0  0  0  0  0  0  0  0  0  0  0  0
    4.4968   -0.9005   -0.1162 O   0  0  0  0  0  0  0  0  0  0  0  0
    3.9173   -1.5547   -1.1829 C   0  0  0  0  0  0  0  0  0  0  0  0
    3.8527   -0.8973   -2.4332 C   0  0  0  0  0  0  0  0  0  0  0  0
    3.2574   -1.5477   -3.5287 C   0  0  0  0  0  0  0  0  0  0  0  0
    2.7524   -2.8541   -3.3665 C   0  0  0  0  0  0  0  0  0  0  0  0
    2.8405   -3.4514   -2.1596 N   0  0  0  0  0  0  0  0  0  0  0  0
    3.3851   -2.8615   -1.0770 C   0  0  0  0  0  0  0  0  0  0  0  0
    3.3833   -3.6091    0.2399 C   0  0  1  0  0  0  0  0  0  0  0  0
    3.4715   -5.0626    0.1455 N   0  0  0  0  0  0  0  0  0  0  0  0
    2.7066   -5.9525    0.8838 C   0  0  0  0  0  0  0  0  0  0  0  0
    1.4167   -5.8620    0.8486 N   0  0  0  0  0  0  0  0  0  0  0  0
    0.6615   -6.6337    1.6251 C   0  0  0  0  0  0  0  0  0  0  0  0
   -0.0675   -7.1575    2.3572 N   0  0  0  0  0  0  0  0  0  0  0  0
    3.4984   -6.8848    1.5706 N   0  0  0  0  0  0  0  0  0  0  0  0
    4.5622   -7.6316    0.9047 C   0  0  0  0  0  0  0  0  0  0  0  0
    4.3846   -9.1361    1.1288 C   0  0  0  0  0  0  0  0  0  0  0  0
    4.2659   -9.4626    2.6242 C   0  0  0  0  0  0  0  0  0  0  0  0
    3.1561   -8.6271    3.2727 C   0  0  0  0  0  0  0  0  0  0  0  0
    3.3941   -7.1327    3.0081 C   0  0  0  0  0  0  0  0  0  0  0  0
    4.4367   -3.0085    1.1867 C   0  0  1  0  0  0  0  0  0  0  0  0
    5.7400   -3.4236    0.7837 O   0  0  0  0  0  0  0  0  0  0  0  0
    5.4107   -1.2507    3.1133 H   0  0  0  0  0  0  0  0  0  0  0  0
    5.3395    0.2256    2.1956 H   0  0  0  0  0  0  0  0  0  0  0  0
    6.4664   -1.0294    1.7236 H   0  0  0  0  0  0  0  0  0  0  0  0
    2.7927   -1.3821    2.7233 H   0  0  0  0  0  0  0  0  0  0  0  0
    2.1807   -1.2303    1.0822 H   0  0  0  0  0  0  0  0  0  0  0  0
    2.9778    0.1252    1.8362 H   0  0  0  0  0  0  0  0  0  0  0  0
    4.2341    0.1120   -2.5425 H   0  0  0  0  0  0  0  0  0  0  0  0
    3.1836   -1.0476   -4.4847 H   0  0  0  0  0  0  0  0  0  0  0  0
    2.3008   -3.4467   -4.1541 H   0  0  0  0  0  0  0  0  0  0  0  0
    2.4069   -3.3890    0.6737 H   0  0  0  0  0  0  0  0  0  0  0  0
    4.5733   -7.4306   -0.1653 H   0  0  0  0  0  0  0  0  0  0  0  0
    5.5244   -7.3030    1.2983 H   0  0  0  0  0  0  0  0  0  0  0  0
    3.4904   -9.4772    0.6049 H   0  0  0  0  0  0  0  0  0  0  0  0
    5.2193   -9.6830    0.6957 H   0  0  0  0  0  0  0  0  0  0  0  0
    4.0609  -10.5256    2.7554 H   0  0  0  0  0  0  0  0  0  0  0  0
    5.2142   -9.2522    3.1205 H   0  0  0  0  0  0  0  0  0  0  0  0
    2.1893   -8.9305    2.8653 H   0  0  0  0  0  0  0  0  0  0  0  0
    3.1123   -8.8061    4.3448 H   0  0  0  0  0  0  0  0  0  0  0  0
    4.3065   -6.7826    3.4967 H   0  0  0  0  0  0  0  0  0  0  0  0
    2.5925   -6.5468    3.4494 H   0  0  0  0  0  0  0  0  0  0  0  0
    4.2705   -3.3964    2.1900 H   0  0  0  0  0  0  0  0  0  0  0  0
    5.8339   -4.3559    0.8987 H   0  0  0  0  0  0  0  0  0  0  0  0
    4.3716   -5.3659   -0.1759 H   0  0  0  0  0  0  0  0  0  0  0  0
    2.5196   -4.4216   -2.0739 H   0  0  0  0  0  0  0  0  0  0  0  0
  1  2  1  0
  1 25  1  0
  1 26  1  0
  1 27  1  0
  2 23  1  0
  2  3  1  0
  2  4  1  0
  3 28  1  0
  3 29  1  0
  3 30  1  0
  4  5  1  0
  5 10  2  0
  5  6  1  0
  6  7  2  0
  6 31  1  0
  7  8  1  0
  7 32  1  0
  8  9  2  0
  8 33  1  0
  9 10  1  0
  9 48  1  0
 10 11  1  0
 11 12  1  0
 11 23  1  0
 11 34  1  1
 12 13  1  0
 12 47  1  0
 13 14  2  0
 13 17  1  0
 14 15  1  0
 15 16  3  0
 17 22  1  0
 17 18  1  0
 18 19  1  0
 18 35  1  0
 18 36  1  0
 19 20  1  0
 19 37  1  0
 19 38  1  0
 20 21  1  0
 20 39  1  0
 20 40  1  0
 21 22  1  0
 21 41  1  0
 21 42  1  0
 22 43  1  0
 22 44  1  0
 23 24  1  0
 23 45  1  1
 24 46  1  0
M  CHG  1   9   1
M  END
>  <i_m_ct_stereo_status>  (126) 
1

>  <s_m_source_file>  (126) 
/var/tmp/pbs.5076255.sched01/tmpscvaj2_a/3886avry94.sdf

>  <i_m_source_file_index>  (126) 
20

>  <i_lp_mmshare_version>  (126) 
48012

>  <i_f3d_flags>  (126) 
0

>  <s_epik_input>  (126) 
W2NIXTFbY0hdW2NIXW5jKGMxMilbQ0BIXShbQ0BASF0oW09IXSlDKE8yKShbQ0gzXSlbQ0gzXSkvTj1DKFxbTkhdQyNOKU4zW0NIMl1bQ0gyXVtDSDJdW0NIMl1bQ0gyXTM=

>  <s_epik_cmdline>  (126) 
J2VwaWtfcHl0aG9uJywgJy1waHQnLCAnMi4wJywgJy1waCcsICc3LjAnLCAnLXRuJywgJzgnLCAnLW1hJywgJzIwMCcsICctaW1hZScsICc8aW5maWxlLm1hZT4nLCAnLW9tYWUnLCAnPG91dGZpbGUubWFlPic=

>  <r_epik_Ionization_Penalty>  (126) 
2.38195

>  <r_epik_Ionization_Penalty_Charging>  (126) 
2.38188

>  <r_epik_Ionization_Penalty_Neutral>  (126) 
6.32207e-05

>  <r_epik_State_Penalty>  (126) 
2.53843

>  <r_epik_Charging_Adjusted_Penalty>  (126) 
4.92032

>  <i_epik_Tot_Q>  (126) 
1

>  <i_epik_Tot_abs_Q>  (126) 
1

>  <s_epik_Chemistry_Notes>  (126) 
This compound has an imine and may undergo hydrolysis.

>  <s_lp_Force_Field>  (126) 
OPLS3e

>  <r_lp_Energy>  (126) 
46.0518

>  <b_lp_Chiralities_Consistent>  (126) 
1

>  <s_lp_Variant>  (126) 
46:0-2

>  <s_i_glide_gridfile>  (126) 
pfpi4k_grid

>  <i_i_glide_lignum>  (126) 
20

>  <i_i_glide_rotatable_bonds>  (126) 
5

>  <r_i_docking_score>  (126) 
-4.26038

>  <r_i_glide_ligand_efficiency>  (126) 
-0.177516

>  <r_i_glide_ligand_efficiency_sa>  (126) 
-0.512044

>  <r_i_glide_ligand_efficiency_ln>  (126) 
-1.0197

>  <r_i_glide_gscore>  (126) 
-4.26038

>  <r_i_glide_lipo>  (126) 
-0.558952

>  <r_i_glide_hbond>  (126) 
-0.161415

>  <r_i_glide_metal>  (126) 
-0

>  <r_i_glide_rewards>  (126) 
-1.2325

>  <r_i_glide_evdw>  (126) 
-32.7134

>  <r_i_glide_ecoul>  (126) 
-8.29253

>  <r_i_glide_erotb>  (126) 
0.689132

>  <r_i_glide_esite>  (126) 
-0.11709

>  <r_i_glide_emodel>  (126) 
-50.615

>  <r_i_glide_energy>  (126) 
-41.0059

>  <r_i_glide_einternal>  (126) 
4.64022

>  <r_i_glide_intrahb_reward>  (126) 
-0

>  <i_i_glide_confnum>  (126) 
2

>  <i_i_glide_posenum>  (126) 
15

>  <r_i_glide_eff_state_penalty>  (126) 
0

>  <ligand_id>  (126) 
46

>  <original_smiles>  (126) 
CC1(C)Oc2cccnc2C(N=C(NC#N)N2CCCCC2)C1O

>  <smiles>  (126) 
[H]OC1([H])C([H])(N([H])C(=NC#N)N2C([H])([H])C([H])([H])C([H])([H])C([H])([H])C2([H])[H])c2c(c([H])c([H])c([H])[n+]2[H])OC1(C([H])([H])[H])C([H])([H])[H]

$$$$
46:1:1
     RDKit          3D

 48 50  0  0  1  0  0  0  0  0999 V2000
    5.6127   -0.9438    1.9647 C   0  0  0  0  0  0  0  0  0  0  0  0
    4.4523   -1.4895    1.1109 C   0  0  0  0  0  0  0  0  0  0  0  0
    3.1394   -0.9100    1.6755 C   0  0  0  0  0  0  0  0  0  0  0  0
    4.5972   -0.9835   -0.2270 O   0  0  0  0  0  0  0  0  0  0  0  0
    3.9260   -1.6050   -1.2603 C   0  0  0  0  0  0  0  0  0  0  0  0
    3.8608   -0.9623   -2.5155 C   0  0  0  0  0  0  0  0  0  0  0  0
    3.1980   -1.5971   -3.5843 C   0  0  0  0  0  0  0  0  0  0  0  0
    2.6277   -2.8704   -3.3842 C   0  0  0  0  0  0  0  0  0  0  0  0
    2.7097   -3.4546   -2.1684 N   0  0  0  0  0  0  0  0  0  0  0  0
    3.3130   -2.8741   -1.1117 C   0  0  0  0  0  0  0  0  0  0  0  0
    3.3124   -3.5954    0.2188 C   0  0  1  0  0  0  0  0  0  0  0  0
    3.3096   -5.0496    0.1384 N   0  0  0  0  0  0  0  0  0  0  0  0
    2.8039   -5.8818    1.1168 C   0  0  0  0  0  0  0  0  0  0  0  0
    1.7110   -5.5232    1.7237 N   0  0  0  0  0  0  0  0  0  0  0  0
    1.2655   -6.2476    2.7474 C   0  0  0  0  0  0  0  0  0  0  0  0
    0.8346   -6.8442    3.6447 N   0  0  0  0  0  0  0  0  0  0  0  0
    3.5945   -7.0304    1.2966 N   0  0  0  0  0  0  0  0  0  0  0  0
    3.0904   -8.4074    1.3605 C   0  0  0  0  0  0  0  0  0  0  0  0
    3.5691   -9.1019    2.6427 C   0  0  0  0  0  0  0  0  0  0  0  0
    5.0998   -9.0391    2.7573 C   0  0  0  0  0  0  0  0  0  0  0  0
    5.5883   -7.5890    2.6437 C   0  0  0  0  0  0  0  0  0  0  0  0
    5.0538   -6.9450    1.3632 C   0  0  0  0  0  0  0  0  0  0  0  0
    4.4323   -3.0432    1.1214 C   0  0  1  0  0  0  0  0  0  0  0  0
    5.6854   -3.5521    0.6876 O   0  0  0  0  0  0  0  0  0  0  0  0
    5.5626   -1.3298    2.9821 H   0  0  0  0  0  0  0  0  0  0  0  0
    5.5639    0.1417    2.0351 H   0  0  0  0  0  0  0  0  0  0  0  0
    6.5929   -1.1960    1.5606 H   0  0  0  0  0  0  0  0  0  0  0  0
    2.9401   -1.3046    2.6695 H   0  0  0  0  0  0  0  0  0  0  0  0
    2.2781   -1.1365    1.0497 H   0  0  0  0  0  0  0  0  0  0  0  0
    3.1895    0.1751    1.7536 H   0  0  0  0  0  0  0  0  0  0  0  0
    4.2995    0.0162   -2.6563 H   0  0  0  0  0  0  0  0  0  0  0  0
    3.1260   -1.1091   -4.5470 H   0  0  0  0  0  0  0  0  0  0  0  0
    2.1247   -3.4448   -4.1535 H   0  0  0  0  0  0  0  0  0  0  0  0
    2.3653   -3.3143    0.6759 H   0  0  0  0  0  0  0  0  0  0  0  0
    2.0031   -8.4256    1.3092 H   0  0  0  0  0  0  0  0  0  0  0  0
    3.4373   -8.9630    0.4871 H   0  0  0  0  0  0  0  0  0  0  0  0
    3.1172   -8.6193    3.5101 H   0  0  0  0  0  0  0  0  0  0  0  0
    3.2328  -10.1387    2.6493 H   0  0  0  0  0  0  0  0  0  0  0  0
    5.4233   -9.4670    3.7068 H   0  0  0  0  0  0  0  0  0  0  0  0
    5.5494   -9.6385    1.9636 H   0  0  0  0  0  0  0  0  0  0  0  0
    5.2512   -7.0105    3.5059 H   0  0  0  0  0  0  0  0  0  0  0  0
    6.6782   -7.5504    2.6508 H   0  0  0  0  0  0  0  0  0  0  0  0
    5.4856   -7.4146    0.4828 H   0  0  0  0  0  0  0  0  0  0  0  0
    5.3842   -5.9116    1.3545 H   0  0  0  0  0  0  0  0  0  0  0  0
    4.2862   -3.4003    2.1407 H   0  0  0  0  0  0  0  0  0  0  0  0
    5.8310   -3.2778   -0.2044 H   0  0  0  0  0  0  0  0  0  0  0  0
    4.0648   -5.4038   -0.4270 H   0  0  0  0  0  0  0  0  0  0  0  0
    2.3250   -4.3987   -2.0582 H   0  0  0  0  0  0  0  0  0  0  0  0
  1  2  1  0
  1 25  1  0
  1 26  1  0
  1 27  1  0
  2 23  1  0
  2  3  1  0
  2  4  1  0
  3 28  1  0
  3 29  1  0
  3 30  1  0
  4  5  1  0
  5 10  2  0
  5  6  1  0
  6  7  2  0
  6 31  1  0
  7  8  1  0
  7 32  1  0
  8  9  2  0
  8 33  1  0
  9 10  1  0
  9 48  1  0
 10 11  1  0
 11 12  1  0
 11 23  1  0
 11 34  1  1
 12 13  1  0
 12 47  1  0
 13 14  2  0
 13 17  1  0
 14 15  1  0
 15 16  3  0
 17 22  1  0
 17 18  1  0
 18 19  1  0
 18 35  1  0
 18 36  1  0
 19 20  1  0
 19 37  1  0
 19 38  1  0
 20 21  1  0
 20 39  1  0
 20 40  1  0
 21 22  1  0
 21 41  1  0
 21 42  1  0
 22 43  1  0
 22 44  1  0
 23 24  1  0
 23 45  1  1
 24 46  1  0
M  CHG  1   9   1
M  END
>  <i_m_ct_stereo_status>  (127) 
1

>  <s_m_source_file>  (127) 
/var/tmp/pbs.5076255.sched01/tmpscvaj2_a/3886avry94.sdf

>  <i_m_source_file_index>  (127) 
20

>  <i_lp_mmshare_version>  (127) 
48012

>  <i_f3d_flags>  (127) 
0

>  <s_epik_input>  (127) 
W2NIXTFbY0hdW2NIXW5jKGMxMilbQ0BIXShbQ0BASF0oW09IXSlDKE8yKShbQ0gzXSlbQ0gzXSkvTj1DKFxbTkhdQyNOKU4zW0NIMl1bQ0gyXVtDSDJdW0NIMl1bQ0gyXTM=

>  <s_epik_cmdline>  (127) 
J2VwaWtfcHl0aG9uJywgJy1waHQnLCAnMi4wJywgJy1waCcsICc3LjAnLCAnLXRuJywgJzgnLCAnLW1hJywgJzIwMCcsICctaW1hZScsICc8aW5maWxlLm1hZT4nLCAnLW9tYWUnLCAnPG91dGZpbGUubWFlPic=

>  <r_epik_Ionization_Penalty>  (127) 
2.38195

>  <r_epik_Ionization_Penalty_Charging>  (127) 
2.38188

>  <r_epik_Ionization_Penalty_Neutral>  (127) 
6.32207e-05

>  <r_epik_State_Penalty>  (127) 
2.53843

>  <r_epik_Charging_Adjusted_Penalty>  (127) 
4.92032

>  <i_epik_Tot_Q>  (127) 
1

>  <i_epik_Tot_abs_Q>  (127) 
1

>  <s_epik_Chemistry_Notes>  (127) 
This compound has an imine and may undergo hydrolysis.

>  <s_lp_Force_Field>  (127) 
OPLS3e

>  <r_lp_Energy>  (127) 
46.0518

>  <b_lp_Chiralities_Consistent>  (127) 
1

>  <s_lp_Variant>  (127) 
46:0-2

>  <s_i_glide_gridfile>  (127) 
pfpi4k_grid

>  <i_i_glide_lignum>  (127) 
20

>  <i_i_glide_rotatable_bonds>  (127) 
5

>  <r_i_docking_score>  (127) 
-3.81972

>  <r_i_glide_ligand_efficiency>  (127) 
-0.159155

>  <r_i_glide_ligand_efficiency_sa>  (127) 
-0.459083

>  <r_i_glide_ligand_efficiency_ln>  (127) 
-0.914235

>  <r_i_glide_gscore>  (127) 
-3.81972

>  <r_i_glide_lipo>  (127) 
-0.63462

>  <r_i_glide_hbond>  (127) 
-0.0510948

>  <r_i_glide_metal>  (127) 
-0

>  <r_i_glide_rewards>  (127) 
-1.25682

>  <r_i_glide_evdw>  (127) 
-30.1452

>  <r_i_glide_ecoul>  (127) 
-6.64464

>  <r_i_glide_erotb>  (127) 
0.689132

>  <r_i_glide_esite>  (127) 
-0.0623627

>  <r_i_glide_emodel>  (127) 
-47.1071

>  <r_i_glide_energy>  (127) 
-36.7899

>  <r_i_glide_einternal>  (127) 
1.07815

>  <r_i_glide_intrahb_reward>  (127) 
-0

>  <i_i_glide_confnum>  (127) 
2

>  <i_i_glide_posenum>  (127) 
5

>  <r_i_glide_eff_state_penalty>  (127) 
0

>  <ligand_id>  (127) 
46

>  <original_smiles>  (127) 
CC1(C)Oc2cccnc2C(N=C(NC#N)N2CCCCC2)C1O

>  <smiles>  (127) 
[H]OC1([H])C([H])(N([H])C(=NC#N)N2C([H])([H])C([H])([H])C([H])([H])C([H])([H])C2([H])[H])c2c(c([H])c([H])c([H])[n+]2[H])OC1(C([H])([H])[H])C([H])([H])[H]

$$$$
46:1:2
     RDKit          3D

 48 50  0  0  1  0  0  0  0  0999 V2000
    4.6339   -4.6434   -0.5498 C   0  0  0  0  0  0  0  0  0  0  0  0
    4.0465   -4.5157    0.8710 C   0  0  0  0  0  0  0  0  0  0  0  0
    5.1946   -4.6879    1.8912 C   0  0  0  0  0  0  0  0  0  0  0  0
    3.5831   -3.1460    1.0177 O   0  0  0  0  0  0  0  0  0  0  0  0
    2.6645   -2.8403    2.0087 C   0  0  0  0  0  0  0  0  0  0  0  0
    2.3410   -1.4795    2.2822 C   0  0  0  0  0  0  0  0  0  0  0  0
    1.4196   -1.1696    3.3039 C   0  0  0  0  0  0  0  0  0  0  0  0
    0.7692   -2.2325    3.9762 C   0  0  0  0  0  0  0  0  0  0  0  0
    1.1029   -3.4954    3.6774 N   0  0  0  0  0  0  0  0  0  0  0  0
    1.9686   -3.8486    2.7156 C   0  0  0  0  0  0  0  0  0  0  0  0
    2.2376   -5.3444    2.5192 C   0  0  1  0  0  0  0  0  0  0  0  0
    1.1979   -6.3311    2.8498 N   0  0  0  0  0  0  0  0  0  0  0  0
    0.7998   -6.6900    4.1353 C   0  0  0  0  0  0  0  0  0  0  0  0
    0.7256   -5.7755    5.0664 N   0  0  0  0  0  0  0  0  0  0  0  0
    0.3586   -6.0709    6.3122 C   0  0  0  0  0  0  0  0  0  0  0  0
    0.0993   -6.2213    7.4447 N   0  0  0  0  0  0  0  0  0  0  0  0
    0.5170   -8.0431    4.2665 N   0  0  0  0  0  0  0  0  0  0  0  0
    1.1070   -8.8671    5.3250 C   0  0  0  0  0  0  0  0  0  0  0  0
    1.9034  -10.0328    4.7369 C   0  0  0  0  0  0  0  0  0  0  0  0
    1.0181  -10.8410    3.7832 C   0  0  0  0  0  0  0  0  0  0  0  0
    0.4048   -9.9333    2.7060 C   0  0  0  0  0  0  0  0  0  0  0  0
   -0.3582   -8.7663    3.3438 C   0  0  0  0  0  0  0  0  0  0  0  0
    2.8744   -5.5584    1.1251 C   0  0  1  0  0  0  0  0  0  0  0  0
    1.8823   -5.5176    0.0954 O   0  0  0  0  0  0  0  0  0  0  0  0
    4.9983   -5.6396   -0.7442 H   0  0  0  0  0  0  0  0  0  0  0  0
    5.4674   -3.9710   -0.6795 H   0  0  0  0  0  0  0  0  0  0  0  0
    3.9162   -4.3849   -1.3201 H   0  0  0  0  0  0  0  0  0  0  0  0
    5.6029   -5.6888    1.8739 H   0  0  0  0  0  0  0  0  0  0  0  0
    4.8914   -4.4647    2.9111 H   0  0  0  0  0  0  0  0  0  0  0  0
    6.0029   -4.0042    1.6629 H   0  0  0  0  0  0  0  0  0  0  0  0
    2.8477   -0.7024    1.7301 H   0  0  0  0  0  0  0  0  0  0  0  0
    1.1700   -0.1506    3.5609 H   0  0  0  0  0  0  0  0  0  0  0  0
    0.0385   -2.1417    4.7711 H   0  0  0  0  0  0  0  0  0  0  0  0
    3.0203   -5.6028    3.2385 H   0  0  0  0  0  0  0  0  0  0  0  0
    1.8007   -8.2620    5.9039 H   0  0  0  0  0  0  0  0  0  0  0  0
    0.3089   -9.2068    5.9943 H   0  0  0  0  0  0  0  0  0  0  0  0
    2.7762   -9.6406    4.2072 H   0  0  0  0  0  0  0  0  0  0  0  0
    2.2709  -10.6530    5.5542 H   0  0  0  0  0  0  0  0  0  0  0  0
    1.6010  -11.6399    3.3223 H   0  0  0  0  0  0  0  0  0  0  0  0
    0.2165  -11.3036    4.3616 H   0  0  0  0  0  0  0  0  0  0  0  0
    1.1956   -9.5486    2.0564 H   0  0  0  0  0  0  0  0  0  0  0  0
   -0.2732  -10.5032    2.0786 H   0  0  0  0  0  0  0  0  0  0  0  0
   -1.2336   -9.1144    3.8954 H   0  0  0  0  0  0  0  0  0  0  0  0
   -0.7200   -8.0981    2.5696 H   0  0  0  0  0  0  0  0  0  0  0  0
    3.2839   -6.5692    1.0960 H   0  0  0  0  0  0  0  0  0  0  0  0
    2.3473   -5.5070   -0.7494 H   0  0  0  0  0  0  0  0  0  0  0  0
    1.1063   -7.0024    2.1048 H   0  0  0  0  0  0  0  0  0  0  0  0
    0.7068   -4.2911    4.2171 H   0  0  0  0  0  0  0  0  0  0  0  0
  1  2  1  0
  1 25  1  0
  1 26  1  0
  1 27  1  0
  2 23  1  0
  2  3  1  0
  2  4  1  0
  3 28  1  0
  3 29  1  0
  3 30  1  0
  4  5  1  0
  5 10  2  0
  5  6  1  0
  6  7  2  0
  6 31  1  0
  7  8  1  0
  7 32  1  0
  8  9  2  0
  8 33  1  0
  9 10  1  0
  9 48  1  0
 10 11  1  0
 11 12  1  0
 11 23  1  0
 11 34  1  1
 12 13  1  0
 12 47  1  0
 13 14  2  0
 13 17  1  0
 14 15  1  0
 15 16  3  0
 17 22  1  0
 17 18  1  0
 18 19  1  0
 18 35  1  0
 18 36  1  0
 19 20  1  0
 19 37  1  0
 19 38  1  0
 20 21  1  0
 20 39  1  0
 20 40  1  0
 21 22  1  0
 21 41  1  0
 21 42  1  0
 22 43  1  0
 22 44  1  0
 23 24  1  0
 23 45  1  1
 24 46  1  0
M  CHG  1   9   1
M  END
>  <i_m_ct_stereo_status>  (128) 
1

>  <s_m_source_file>  (128) 
/var/tmp/pbs.5076255.sched01/tmpscvaj2_a/3886avry94.sdf

>  <i_m_source_file_index>  (128) 
20

>  <i_lp_mmshare_version>  (128) 
48012

>  <i_f3d_flags>  (128) 
0

>  <s_epik_input>  (128) 
W2NIXTFbY0hdW2NIXW5jKGMxMilbQ0BIXShbQ0BASF0oW09IXSlDKE8yKShbQ0gzXSlbQ0gzXSkvTj1DKFxbTkhdQyNOKU4zW0NIMl1bQ0gyXVtDSDJdW0NIMl1bQ0gyXTM=

>  <s_epik_cmdline>  (128) 
J2VwaWtfcHl0aG9uJywgJy1waHQnLCAnMi4wJywgJy1waCcsICc3LjAnLCAnLXRuJywgJzgnLCAnLW1hJywgJzIwMCcsICctaW1hZScsICc8aW5maWxlLm1hZT4nLCAnLW9tYWUnLCAnPG91dGZpbGUubWFlPic=

>  <r_epik_Ionization_Penalty>  (128) 
2.38195

>  <r_epik_Ionization_Penalty_Charging>  (128) 
2.38188

>  <r_epik_Ionization_Penalty_Neutral>  (128) 
6.32207e-05

>  <r_epik_State_Penalty>  (128) 
2.53843

>  <r_epik_Charging_Adjusted_Penalty>  (128) 
4.92032

>  <i_epik_Tot_Q>  (128) 
1

>  <i_epik_Tot_abs_Q>  (128) 
1

>  <s_epik_Chemistry_Notes>  (128) 
This compound has an imine and may undergo hydrolysis.

>  <s_lp_Force_Field>  (128) 
OPLS3e

>  <r_lp_Energy>  (128) 
46.0518

>  <b_lp_Chiralities_Consistent>  (128) 
1

>  <s_lp_Variant>  (128) 
46:0-2

>  <s_i_glide_gridfile>  (128) 
pfpi4k_grid

>  <i_i_glide_lignum>  (128) 
20

>  <i_i_glide_rotatable_bonds>  (128) 
5

>  <r_i_docking_score>  (128) 
-3.70772

>  <r_i_glide_ligand_efficiency>  (128) 
-0.154488

>  <r_i_glide_ligand_efficiency_sa>  (128) 
-0.445621

>  <r_i_glide_ligand_efficiency_ln>  (128) 
-0.887427

>  <r_i_glide_gscore>  (128) 
-3.70772

>  <r_i_glide_lipo>  (128) 
-0.246059

>  <r_i_glide_hbond>  (128) 
0

>  <r_i_glide_metal>  (128) 
-0

>  <r_i_glide_rewards>  (128) 
-1.65633

>  <r_i_glide_evdw>  (128) 
-24.9293

>  <r_i_glide_ecoul>  (128) 
-7.90092

>  <r_i_glide_erotb>  (128) 
0.689132

>  <r_i_glide_esite>  (128) 
-0.062857

>  <r_i_glide_emodel>  (128) 
-44.5657

>  <r_i_glide_energy>  (128) 
-32.8302

>  <r_i_glide_einternal>  (128) 
4.71319

>  <r_i_glide_intrahb_reward>  (128) 
-0.5

>  <i_i_glide_confnum>  (128) 
3

>  <i_i_glide_posenum>  (128) 
25

>  <r_i_glide_eff_state_penalty>  (128) 
0

>  <ligand_id>  (128) 
46

>  <original_smiles>  (128) 
CC1(C)Oc2cccnc2C(N=C(NC#N)N2CCCCC2)C1O

>  <smiles>  (128) 
[H]OC1([H])C([H])(N([H])C(=NC#N)N2C([H])([H])C([H])([H])C([H])([H])C([H])([H])C2([H])[H])c2c(c([H])c([H])c([H])[n+]2[H])OC1(C([H])([H])[H])C([H])([H])[H]

$$$$
47:0:0
     RDKit          3D

 56 61  0  0  1  0  0  0  0  0999 V2000
    3.7434   -1.6296   -2.0084 C   0  0  0  0  0  0  0  0  0  0  0  0
    3.9976   -2.3779   -0.7141 C   0  0  0  0  0  0  0  0  0  0  0  0
    3.0633   -3.1872   -0.1694 C   0  0  0  0  0  0  0  0  0  0  0  0
    3.2553   -3.9590    1.1291 C   0  0  0  0  0  0  0  0  0  0  0  0
    4.5775   -3.6336    1.8860 C   0  0  1  0  0  0  0  0  0  0  0  0
    5.6374   -3.3940    0.8449 C   0  0  0  0  0  0  0  0  0  0  0  0
    6.7409   -4.0786    0.5248 C   0  0  0  0  0  0  0  0  0  0  0  0
    7.3156   -3.4527   -0.6390 C   0  0  0  0  0  0  0  0  0  0  0  0
    6.5331   -2.4258   -1.0076 C   0  0  0  0  0  0  0  0  0  0  0  0
    5.3710   -2.2137   -0.0555 C   0  0  1  0  0  0  0  0  0  0  0  0
    5.4850   -0.9195    0.7845 C   0  0  0  0  0  0  0  0  0  0  0  0
    4.8998   -1.0013    2.2292 C   0  0  2  0  0  0  0  0  0  0  0  0
    4.5850   -2.3956    2.8418 C   0  0  1  0  0  0  0  0  0  0  0  0
    3.3735   -2.1667    3.7777 C   0  0  0  0  0  0  0  0  0  0  0  0
    3.2924   -0.6387    3.9947 C   0  0  1  0  0  0  0  0  0  0  0  0
    3.7297   -0.0755    2.6282 C   0  0  2  0  0  0  0  0  0  0  0  0
    2.5861   -0.0483    1.5956 C   0  0  0  0  0  0  0  0  0  0  0  0
    1.1871    0.0713    2.1632 C   0  0  0  0  0  0  0  0  0  0  0  0
    0.8760    0.0788    3.4719 C   0  0  0  0  0  0  0  0  0  0  0  0
   -0.5667    0.3235    3.9214 C   0  0  0  0  0  0  0  0  0  0  0  0
   -0.9473   -0.4890    5.1582 C   0  0  0  0  0  0  0  0  0  0  0  0
   -2.0338   -1.0589    5.2665 O   0  0  0  0  0  0  0  0  0  0  0  0
    0.0691   -0.5116    6.2882 C   0  0  0  0  0  0  0  0  0  0  0  0
    1.4513   -0.9117    5.7504 C   0  0  0  0  0  0  0  0  0  0  0  0
    1.9534   -0.0417    4.5605 C   0  0  1  0  0  0  0  0  0  0  0  0
    2.2213    1.3948    5.0723 C   0  0  0  0  0  0  0  0  0  0  0  0
    3.9062   -0.5623   -1.8682 H   0  0  0  0  0  0  0  0  0  0  0  0
    2.7086   -1.7602   -2.3306 H   0  0  0  0  0  0  0  0  0  0  0  0
    4.3890   -1.9795   -2.8112 H   0  0  0  0  0  0  0  0  0  0  0  0
    2.1122   -3.3126   -0.6647 H   0  0  0  0  0  0  0  0  0  0  0  0
    2.3722   -3.8397    1.7501 H   0  0  0  0  0  0  0  0  0  0  0  0
    3.2705   -5.0118    0.8461 H   0  0  0  0  0  0  0  0  0  0  0  0
    4.8563   -4.5160    2.4645 H   0  0  0  0  0  0  0  0  0  0  0  0
    7.1036   -4.9810    1.0015 H   0  0  0  0  0  0  0  0  0  0  0  0
    8.2067   -3.7696   -1.1606 H   0  0  0  0  0  0  0  0  0  0  0  0
    6.6930   -1.8089   -1.8756 H   0  0  0  0  0  0  0  0  0  0  0  0
    6.5481   -0.6954    0.8885 H   0  0  0  0  0  0  0  0  0  0  0  0
    5.0785   -0.0679    0.2391 H   0  0  0  0  0  0  0  0  0  0  0  0
    5.7172   -0.6259    2.8442 H   0  0  0  0  0  0  0  0  0  0  0  0
    5.4326   -2.5892    3.5012 H   0  0  0  0  0  0  0  0  0  0  0  0
    2.4391   -2.5004    3.3331 H   0  0  0  0  0  0  0  0  0  0  0  0
    3.4984   -2.7072    4.7177 H   0  0  0  0  0  0  0  0  0  0  0  0
    4.0790   -0.3983    4.7128 H   0  0  0  0  0  0  0  0  0  0  0  0
    4.0862    0.9440    2.7687 H   0  0  0  0  0  0  0  0  0  0  0  0
    2.7482    0.7794    0.9054 H   0  0  0  0  0  0  0  0  0  0  0  0
    2.5836   -0.9511    1.0010 H   0  0  0  0  0  0  0  0  0  0  0  0
    0.4114    0.1855    1.4193 H   0  0  0  0  0  0  0  0  0  0  0  0
   -0.6850    1.3777    4.1592 H   0  0  0  0  0  0  0  0  0  0  0  0
   -1.2543    0.1090    3.1055 H   0  0  0  0  0  0  0  0  0  0  0  0
    0.0993    0.4752    6.7465 H   0  0  0  0  0  0  0  0  0  0  0  0
   -0.2499   -1.2117    7.0590 H   0  0  0  0  0  0  0  0  0  0  0  0
    2.1781   -0.8829    6.5648 H   0  0  0  0  0  0  0  0  0  0  0  0
    1.3811   -1.9570    5.4526 H   0  0  0  0  0  0  0  0  0  0  0  0
    2.9534    1.4128    5.8803 H   0  0  0  0  0  0  0  0  0  0  0  0
    1.3109    1.8686    5.4459 H   0  0  0  0  0  0  0  0  0  0  0  0
    2.5912    2.0349    4.2696 H   0  0  0  0  0  0  0  0  0  0  0  0
  1  2  1  0
  1 27  1  0
  1 28  1  0
  1 29  1  0
  2 10  1  0
  2  3  2  0
  3  4  1  0
  3 30  1  0
  4  5  1  0
  4 31  1  0
  4 32  1  0
  5 13  1  0
  5  6  1  0
  5 33  1  1
  6 10  1  0
  6  7  2  0
  7  8  1  0
  7 34  1  0
  8  9  2  0
  8 35  1  0
  9 10  1  0
  9 36  1  0
 10 11  1  1
 11 12  1  0
 11 37  1  0
 11 38  1  0
 12 16  1  0
 12 13  1  0
 12 39  1  1
 13 14  1  0
 13 40  1  1
 14 15  1  0
 14 41  1  0
 14 42  1  0
 15 25  1  0
 15 16  1  0
 15 43  1  1
 16 17  1  0
 16 44  1  1
 17 18  1  0
 17 45  1  0
 17 46  1  0
 18 19  2  0
 18 47  1  0
 19 25  1  0
 19 20  1  0
 20 21  1  0
 20 48  1  0
 20 49  1  0
 21 22  2  0
 21 23  1  0
 23 24  1  0
 23 50  1  0
 23 51  1  0
 24 25  1  0
 24 52  1  0
 24 53  1  0
 25 26  1  1
 26 54  1  0
 26 55  1  0
 26 56  1  0
M  END
>  <i_m_ct_stereo_status>  (129) 
1

>  <s_m_source_file>  (129) 
/var/tmp/pbs.5076255.sched01/tmpscvaj2_a/3886avry94.sdf

>  <i_m_source_file_index>  (129) 
21

>  <i_lp_mmshare_version>  (129) 
48012

>  <i_f3d_flags>  (129) 
0

>  <s_epik_input>  (129) 
W0NIM11DMT1bQ0hdW0NIMl1bQ0hdKEMoW0NAXTEyMyk9W0NIXVtDSF09W0NIXTIpW0NASF00W0NAQEhdKFtDSDJdMylbQ0BASF01W0NASF0oW0NIMl00KVtDQEBdNihbQ0gzXSlDKD1bQ0hdW0NIMl01KVtDSDJdQyg9TylbQ0gyXVtDSDJdNg==

>  <s_epik_cmdline>  (129) 
J2VwaWtfcHl0aG9uJywgJy1waHQnLCAnMi4wJywgJy1waCcsICc3LjAnLCAnLXRuJywgJzgnLCAnLW1hJywgJzIwMCcsICctaW1hZScsICc8aW5maWxlLm1hZT4nLCAnLW9tYWUnLCAnPG91dGZpbGUubWFlPic=

>  <r_lp_tautomer_probability>  (129) 
1

>  <r_epik_Ionization_Penalty>  (129) 
1.73131e-13

>  <r_epik_Ionization_Penalty_Charging>  (129) 
0

>  <r_epik_Ionization_Penalty_Neutral>  (129) 
1.73131e-13

>  <r_epik_State_Penalty>  (129) 
-0

>  <r_epik_Charging_Adjusted_Penalty>  (129) 
0

>  <i_epik_Tot_Q>  (129) 
0

>  <i_epik_Tot_abs_Q>  (129) 
0

>  <s_lp_Force_Field>  (129) 
OPLS3e

>  <r_lp_Energy>  (129) 
44.6651

>  <b_lp_Chiralities_Consistent>  (129) 
1

>  <s_lp_Variant>  (129) 
47:0-1

>  <s_i_glide_gridfile>  (129) 
pfpi4k_grid

>  <i_i_glide_lignum>  (129) 
21

>  <i_i_glide_rotatable_bonds>  (129) 
0

>  <r_i_docking_score>  (129) 
-3.35916

>  <r_i_glide_ligand_efficiency>  (129) 
-0.129198

>  <r_i_glide_ligand_efficiency_sa>  (129) 
-0.38275

>  <r_i_glide_ligand_efficiency_ln>  (129) 
-0.788888

>  <r_i_glide_gscore>  (129) 
-3.35916

>  <r_i_glide_lipo>  (129) 
-0.633385

>  <r_i_glide_hbond>  (129) 
0

>  <r_i_glide_metal>  (129) 
-0

>  <r_i_glide_rewards>  (129) 
-1.04656

>  <r_i_glide_evdw>  (129) 
-29.7689

>  <r_i_glide_ecoul>  (129) 
-1.04995

>  <r_i_glide_erotb>  (129) 
0

>  <r_i_glide_esite>  (129) 
-0.0332829

>  <r_i_glide_emodel>  (129) 
-37.2259

>  <r_i_glide_energy>  (129) 
-30.8188

>  <r_i_glide_einternal>  (129) 
0

>  <r_i_glide_intrahb_reward>  (129) 
-0

>  <i_i_glide_confnum>  (129) 
1

>  <i_i_glide_posenum>  (129) 
1

>  <r_i_glide_eff_state_penalty>  (129) 
0

>  <ligand_id>  (129) 
47

>  <original_smiles>  (129) 
CC1=CCC2C3=CC=CC13CC1C2CC2C1CC=C1CC(=O)CCC12C

>  <smiles>  (129) 
[H]C1=C([H])C23C(C([H])([H])[H])=C([H])C([H])([H])C([H])(C2=C1[H])C1([H])C([H])([H])C2([H])C([H])(C([H])([H])C([H])=C4C([H])([H])C(=O)C([H])([H])C([H])([H])C42C([H])([H])[H])C1([H])C3([H])[H]

$$$$
47:0:1
     RDKit          3D

 56 61  0  0  1  0  0  0  0  0999 V2000
    6.6121   -2.2103    1.2497 C   0  0  0  0  0  0  0  0  0  0  0  0
    5.2164   -2.6046    0.8396 C   0  0  0  0  0  0  0  0  0  0  0  0
    4.1367   -2.1985    1.5374 C   0  0  0  0  0  0  0  0  0  0  0  0
    2.7077   -2.5727    1.1777 C   0  0  0  0  0  0  0  0  0  0  0  0
    2.5959   -3.5984    0.0138 C   0  0  1  0  0  0  0  0  0  0  0  0
    3.6846   -3.2952   -0.9660 C   0  0  0  0  0  0  0  0  0  0  0  0
    3.6480   -2.8287   -2.2205 C   0  0  0  0  0  0  0  0  0  0  0  0
    5.0094   -2.6226   -2.6370 C   0  0  0  0  0  0  0  0  0  0  0  0
    5.8320   -2.9549   -1.6273 C   0  0  0  0  0  0  0  0  0  0  0  0
    5.0706   -3.4702   -0.4147 C   0  0  1  0  0  0  0  0  0  0  0  0
    5.2965   -4.9740   -0.1362 C   0  0  0  0  0  0  0  0  0  0  0  0
    4.0851   -5.7611    0.4445 C   0  0  2  0  0  0  0  0  0  0  0  0
    2.6779   -5.1166    0.3809 C   0  0  1  0  0  0  0  0  0  0  0  0
    1.9331   -5.6470    1.6281 C   0  0  0  0  0  0  0  0  0  0  0  0
    2.7555   -6.8561    2.1230 C   0  0  1  0  0  0  0  0  0  0  0  0
    4.2068   -6.4320    1.8239 C   0  0  2  0  0  0  0  0  0  0  0  0
    4.7988   -5.4982    2.9007 C   0  0  0  0  0  0  0  0  0  0  0  0
    4.2185   -5.6581    4.2896 C   0  0  0  0  0  0  0  0  0  0  0  0
    3.2071   -6.4771    4.6219 C   0  0  0  0  0  0  0  0  0  0  0  0
    2.7971   -6.6345    6.0869 C   0  0  0  0  0  0  0  0  0  0  0  0
    1.2924   -6.8103    6.2651 C   0  0  0  0  0  0  0  0  0  0  0  0
    0.6691   -6.2252    7.1518 O   0  0  0  0  0  0  0  0  0  0  0  0
    0.6030   -7.7777    5.3161 C   0  0  0  0  0  0  0  0  0  0  0  0
    0.9679   -7.4369    3.8622 C   0  0  0  0  0  0  0  0  0  0  0  0
    2.4991   -7.3625    3.5849 C   0  0  1  0  0  0  0  0  0  0  0  0
    3.1011   -8.7813    3.7355 C   0  0  0  0  0  0  0  0  0  0  0  0
    7.2246   -3.1033    1.3871 H   0  0  0  0  0  0  0  0  0  0  0  0
    6.5976   -1.6676    2.1939 H   0  0  0  0  0  0  0  0  0  0  0  0
    7.0916   -1.5732    0.5075 H   0  0  0  0  0  0  0  0  0  0  0  0
    4.2527   -1.5666    2.4065 H   0  0  0  0  0  0  0  0  0  0  0  0
    2.1751   -2.8797    2.0718 H   0  0  0  0  0  0  0  0  0  0  0  0
    2.2320   -1.6420    0.8708 H   0  0  0  0  0  0  0  0  0  0  0  0
    1.6593   -3.4177   -0.5101 H   0  0  0  0  0  0  0  0  0  0  0  0
    2.7639   -2.6029   -2.7984 H   0  0  0  0  0  0  0  0  0  0  0  0
    5.3243   -2.2585   -3.6024 H   0  0  0  0  0  0  0  0  0  0  0  0
    6.9087   -2.9091   -1.6632 H   0  0  0  0  0  0  0  0  0  0  0  0
    5.4817   -5.4311   -1.1066 H   0  0  0  0  0  0  0  0  0  0  0  0
    6.2049   -5.1327    0.4468 H   0  0  0  0  0  0  0  0  0  0  0  0
    4.0092   -6.6136   -0.2299 H   0  0  0  0  0  0  0  0  0  0  0  0
    2.1937   -5.6033   -0.4655 H   0  0  0  0  0  0  0  0  0  0  0  0
    1.8837   -4.9063    2.4213 H   0  0  0  0  0  0  0  0  0  0  0  0
    0.9108   -5.9354    1.3812 H   0  0  0  0  0  0  0  0  0  0  0  0
    2.5068   -7.6795    1.4491 H   0  0  0  0  0  0  0  0  0  0  0  0
    4.8332   -7.3222    1.7522 H   0  0  0  0  0  0  0  0  0  0  0  0
    5.8758   -5.6553    2.9502 H   0  0  0  0  0  0  0  0  0  0  0  0
    4.6464   -4.4631    2.6341 H   0  0  0  0  0  0  0  0  0  0  0  0
    4.7072   -5.0714    5.0549 H   0  0  0  0  0  0  0  0  0  0  0  0
    3.2900   -7.5132    6.4962 H   0  0  0  0  0  0  0  0  0  0  0  0
    3.1375   -5.7755    6.6630 H   0  0  0  0  0  0  0  0  0  0  0  0
    0.9101   -8.7908    5.5714 H   0  0  0  0  0  0  0  0  0  0  0  0
   -0.4755   -7.7322    5.4613 H   0  0  0  0  0  0  0  0  0  0  0  0
    0.5023   -8.1641    3.1953 H   0  0  0  0  0  0  0  0  0  0  0  0
    0.4959   -6.4809    3.6410 H   0  0  0  0  0  0  0  0  0  0  0  0
    2.6346   -9.4999    3.0591 H   0  0  0  0  0  0  0  0  0  0  0  0
    2.9827   -9.1667    4.7510 H   0  0  0  0  0  0  0  0  0  0  0  0
    4.1739   -8.7780    3.5330 H   0  0  0  0  0  0  0  0  0  0  0  0
  1  2  1  0
  1 27  1  0
  1 28  1  0
  1 29  1  0
  2 10  1  0
  2  3  2  0
  3  4  1  0
  3 30  1  0
  4  5  1  0
  4 31  1  0
  4 32  1  0
  5 13  1  0
  5  6  1  0
  5 33  1  6
  6 10  1  0
  6  7  2  0
  7  8  1  0
  7 34  1  0
  8  9  2  0
  8 35  1  0
  9 10  1  0
  9 36  1  0
 10 11  1  1
 11 12  1  0
 11 37  1  0
 11 38  1  0
 12 16  1  0
 12 13  1  0
 12 39  1  6
 13 14  1  0
 13 40  1  6
 14 15  1  0
 14 41  1  0
 14 42  1  0
 15 25  1  0
 15 16  1  0
 15 43  1  6
 16 17  1  0
 16 44  1  6
 17 18  1  0
 17 45  1  0
 17 46  1  0
 18 19  2  0
 18 47  1  0
 19 25  1  0
 19 20  1  0
 20 21  1  0
 20 48  1  0
 20 49  1  0
 21 22  2  0
 21 23  1  0
 23 24  1  0
 23 50  1  0
 23 51  1  0
 24 25  1  0
 24 52  1  0
 24 53  1  0
 25 26  1  6
 26 54  1  0
 26 55  1  0
 26 56  1  0
M  END
>  <i_m_ct_stereo_status>  (130) 
1

>  <s_m_source_file>  (130) 
/var/tmp/pbs.5076255.sched01/tmpscvaj2_a/3886avry94.sdf

>  <i_m_source_file_index>  (130) 
21

>  <i_lp_mmshare_version>  (130) 
48012

>  <i_f3d_flags>  (130) 
0

>  <s_epik_input>  (130) 
W0NIM11DMT1bQ0hdW0NIMl1bQ0hdKEMoW0NAXTEyMyk9W0NIXVtDSF09W0NIXTIpW0NASF00W0NAQEhdKFtDSDJdMylbQ0BASF01W0NASF0oW0NIMl00KVtDQEBdNihbQ0gzXSlDKD1bQ0hdW0NIMl01KVtDSDJdQyg9TylbQ0gyXVtDSDJdNg==

>  <s_epik_cmdline>  (130) 
J2VwaWtfcHl0aG9uJywgJy1waHQnLCAnMi4wJywgJy1waCcsICc3LjAnLCAnLXRuJywgJzgnLCAnLW1hJywgJzIwMCcsICctaW1hZScsICc8aW5maWxlLm1hZT4nLCAnLW9tYWUnLCAnPG91dGZpbGUubWFlPic=

>  <r_lp_tautomer_probability>  (130) 
1

>  <r_epik_Ionization_Penalty>  (130) 
1.73131e-13

>  <r_epik_Ionization_Penalty_Charging>  (130) 
0

>  <r_epik_Ionization_Penalty_Neutral>  (130) 
1.73131e-13

>  <r_epik_State_Penalty>  (130) 
-0

>  <r_epik_Charging_Adjusted_Penalty>  (130) 
0

>  <i_epik_Tot_Q>  (130) 
0

>  <i_epik_Tot_abs_Q>  (130) 
0

>  <s_lp_Force_Field>  (130) 
OPLS3e

>  <r_lp_Energy>  (130) 
44.6651

>  <b_lp_Chiralities_Consistent>  (130) 
1

>  <s_lp_Variant>  (130) 
47:0-1

>  <s_i_glide_gridfile>  (130) 
pfpi4k_grid

>  <i_i_glide_lignum>  (130) 
21

>  <i_i_glide_rotatable_bonds>  (130) 
0

>  <r_i_docking_score>  (130) 
-2.79199

>  <r_i_glide_ligand_efficiency>  (130) 
-0.107384

>  <r_i_glide_ligand_efficiency_sa>  (130) 
-0.318126

>  <r_i_glide_ligand_efficiency_ln>  (130) 
-0.65569

>  <r_i_glide_gscore>  (130) 
-2.79199

>  <r_i_glide_lipo>  (130) 
-0.550857

>  <r_i_glide_hbond>  (130) 
0

>  <r_i_glide_metal>  (130) 
-0

>  <r_i_glide_rewards>  (130) 
-1.04656

>  <r_i_glide_evdw>  (130) 
-24.0786

>  <r_i_glide_ecoul>  (130) 
0.0779166

>  <r_i_glide_erotb>  (130) 
0

>  <r_i_glide_esite>  (130) 
-0.00233656

>  <r_i_glide_emodel>  (130) 
-29.2351

>  <r_i_glide_energy>  (130) 
-24.0007

>  <r_i_glide_einternal>  (130) 
0

>  <r_i_glide_intrahb_reward>  (130) 
-0

>  <i_i_glide_confnum>  (130) 
1

>  <i_i_glide_posenum>  (130) 
2

>  <r_i_glide_eff_state_penalty>  (130) 
0

>  <ligand_id>  (130) 
47

>  <original_smiles>  (130) 
CC1=CCC2C3=CC=CC13CC1C2CC2C1CC=C1CC(=O)CCC12C

>  <smiles>  (130) 
[H]C1=C([H])C23C(C([H])([H])[H])=C([H])C([H])([H])C([H])(C2=C1[H])C1([H])C([H])([H])C2([H])C([H])(C([H])([H])C([H])=C4C([H])([H])C(=O)C([H])([H])C([H])([H])C42C([H])([H])[H])C1([H])C3([H])[H]

$$$$
47:0:2
     RDKit          3D

 56 61  0  0  1  0  0  0  0  0999 V2000
    6.8686   -1.8764    0.6884 C   0  0  0  0  0  0  0  0  0  0  0  0
    5.4218   -2.2781    0.5002 C   0  0  0  0  0  0  0  0  0  0  0  0
    4.4688   -1.9294    1.3934 C   0  0  0  0  0  0  0  0  0  0  0  0
    3.0030   -2.3185    1.2661 C   0  0  0  0  0  0  0  0  0  0  0  0
    2.6969   -3.2890    0.0887 C   0  0  1  0  0  0  0  0  0  0  0  0
    3.6009   -2.9105   -1.0480 C   0  0  0  0  0  0  0  0  0  0  0  0
    3.3403   -2.3835   -2.2486 C   0  0  0  0  0  0  0  0  0  0  0  0
    4.6037   -2.1204   -2.8863 C   0  0  0  0  0  0  0  0  0  0  0  0
    5.5933   -2.4862   -2.0521 C   0  0  0  0  0  0  0  0  0  0  0  0
    5.0655   -3.0796   -0.7564 C   0  0  1  0  0  0  0  0  0  0  0  0
    5.3625   -4.5856   -0.6094 C   0  0  0  0  0  0  0  0  0  0  0  0
    4.2823   -5.4306    0.1289 C   0  0  2  0  0  0  0  0  0  0  0  0
    2.8696   -4.8221    0.3445 C   0  0  1  0  0  0  0  0  0  0  0  0
    2.3657   -5.4301    1.6752 C   0  0  0  0  0  0  0  0  0  0  0  0
    3.2823   -6.6420    1.9548 C   0  0  1  0  0  0  0  0  0  0  0  0
    4.6537   -6.1661    1.4310 C   0  0  2  0  0  0  0  0  0  0  0  0
    5.4122   -5.2773    2.4377 C   0  0  0  0  0  0  0  0  0  0  0  0
    5.0883   -5.5214    3.8966 C   0  0  0  0  0  0  0  0  0  0  0  0
    4.1622   -6.3833    4.3545 C   0  0  0  0  0  0  0  0  0  0  0  0
    4.0197   -6.6255    5.8570 C   0  0  0  0  0  0  0  0  0  0  0  0
    2.5717   -6.8420    6.2860 C   0  0  0  0  0  0  0  0  0  0  0  0
    2.1076   -6.3120    7.2948 O   0  0  0  0  0  0  0  0  0  0  0  0
    1.7413   -7.7781    5.4222 C   0  0  0  0  0  0  0  0  0  0  0  0
    1.8391   -7.3549    3.9474 C   0  0  0  0  0  0  0  0  0  0  0  0
    3.2971   -7.2298    3.4105 C   0  0  1  0  0  0  0  0  0  0  0  0
    3.9357   -8.6395    3.3746 C   0  0  0  0  0  0  0  0  0  0  0  0
    7.5130   -2.7555    0.6695 H   0  0  0  0  0  0  0  0  0  0  0  0
    7.0092   -1.3802    1.6495 H   0  0  0  0  0  0  0  0  0  0  0  0
    7.1910   -1.1869   -0.0852 H   0  0  0  0  0  0  0  0  0  0  0  0
    4.7273   -1.3414    2.2613 H   0  0  0  0  0  0  0  0  0  0  0  0
    2.6418   -2.6822    2.2240 H   0  0  0  0  0  0  0  0  0  0  0  0
    2.4637   -1.3872    1.0891 H   0  0  0  0  0  0  0  0  0  0  0  0
    1.6852   -3.0949   -0.2574 H   0  0  0  0  0  0  0  0  0  0  0  0
    2.3620   -2.1450   -2.6488 H   0  0  0  0  0  0  0  0  0  0  0  0
    4.7353   -1.6987   -3.8706 H   0  0  0  0  0  0  0  0  0  0  0  0
    6.6486   -2.4175   -2.2716 H   0  0  0  0  0  0  0  0  0  0  0  0
    5.4166   -4.9850   -1.6215 H   0  0  0  0  0  0  0  0  0  0  0  0
    6.3552   -4.7462   -0.1903 H   0  0  0  0  0  0  0  0  0  0  0  0
    4.1155   -6.2592   -0.5589 H   0  0  0  0  0  0  0  0  0  0  0  0
    2.2576   -5.2798   -0.4337 H   0  0  0  0  0  0  0  0  0  0  0  0
    2.4497   -4.7319    2.5049 H   0  0  0  0  0  0  0  0  0  0  0  0
    1.3185   -5.7259    1.6030 H   0  0  0  0  0  0  0  0  0  0  0  0
    2.9336   -7.4367    1.2919 H   0  0  0  0  0  0  0  0  0  0  0  0
    5.2700   -7.0368    1.2041 H   0  0  0  0  0  0  0  0  0  0  0  0
    6.4847   -5.4108    2.2912 H   0  0  0  0  0  0  0  0  0  0  0  0
    5.1980   -4.2338    2.2611 H   0  0  0  0  0  0  0  0  0  0  0  0
    5.6940   -4.9643    4.5956 H   0  0  0  0  0  0  0  0  0  0  0  0
    4.5895   -7.5104    6.1283 H   0  0  0  0  0  0  0  0  0  0  0  0
    4.4425   -5.7892    6.4110 H   0  0  0  0  0  0  0  0  0  0  0  0
    2.1023   -8.7952    5.5635 H   0  0  0  0  0  0  0  0  0  0  0  0
    0.7046   -7.7636    5.7560 H   0  0  0  0  0  0  0  0  0  0  0  0
    1.2739   -8.0581    3.3327 H   0  0  0  0  0  0  0  0  0  0  0  0
    1.3206   -6.4011    3.8626 H   0  0  0  0  0  0  0  0  0  0  0  0
    3.3681   -9.3327    2.7520 H   0  0  0  0  0  0  0  0  0  0  0  0
    4.0023   -9.0793    4.3725 H   0  0  0  0  0  0  0  0  0  0  0  0
    4.9554   -8.6001    2.9886 H   0  0  0  0  0  0  0  0  0  0  0  0
  1  2  1  0
  1 27  1  0
  1 28  1  0
  1 29  1  0
  2 10  1  0
  2  3  2  0
  3  4  1  0
  3 30  1  0
  4  5  1  0
  4 31  1  0
  4 32  1  0
  5 13  1  0
  5  6  1  0
  5 33  1  6
  6 10  1  0
  6  7  2  0
  7  8  1  0
  7 34  1  0
  8  9  2  0
  8 35  1  0
  9 10  1  0
  9 36  1  0
 10 11  1  1
 11 12  1  0
 11 37  1  0
 11 38  1  0
 12 16  1  0
 12 13  1  0
 12 39  1  6
 13 14  1  0
 13 40  1  6
 14 15  1  0
 14 41  1  0
 14 42  1  0
 15 25  1  0
 15 16  1  0
 15 43  1  6
 16 17  1  0
 16 44  1  6
 17 18  1  0
 17 45  1  0
 17 46  1  0
 18 19  2  0
 18 47  1  0
 19 25  1  0
 19 20  1  0
 20 21  1  0
 20 48  1  0
 20 49  1  0
 21 22  2  0
 21 23  1  0
 23 24  1  0
 23 50  1  0
 23 51  1  0
 24 25  1  0
 24 52  1  0
 24 53  1  0
 25 26  1  6
 26 54  1  0
 26 55  1  0
 26 56  1  0
M  END
>  <i_m_ct_stereo_status>  (131) 
1

>  <s_m_source_file>  (131) 
/var/tmp/pbs.5076255.sched01/tmpscvaj2_a/3886avry94.sdf

>  <i_m_source_file_index>  (131) 
21

>  <i_lp_mmshare_version>  (131) 
48012

>  <i_f3d_flags>  (131) 
0

>  <s_epik_input>  (131) 
W0NIM11DMT1bQ0hdW0NIMl1bQ0hdKEMoW0NAXTEyMyk9W0NIXVtDSF09W0NIXTIpW0NASF00W0NAQEhdKFtDSDJdMylbQ0BASF01W0NASF0oW0NIMl00KVtDQEBdNihbQ0gzXSlDKD1bQ0hdW0NIMl01KVtDSDJdQyg9TylbQ0gyXVtDSDJdNg==

>  <s_epik_cmdline>  (131) 
J2VwaWtfcHl0aG9uJywgJy1waHQnLCAnMi4wJywgJy1waCcsICc3LjAnLCAnLXRuJywgJzgnLCAnLW1hJywgJzIwMCcsICctaW1hZScsICc8aW5maWxlLm1hZT4nLCAnLW9tYWUnLCAnPG91dGZpbGUubWFlPic=

>  <r_lp_tautomer_probability>  (131) 
1

>  <r_epik_Ionization_Penalty>  (131) 
1.73131e-13

>  <r_epik_Ionization_Penalty_Charging>  (131) 
0

>  <r_epik_Ionization_Penalty_Neutral>  (131) 
1.73131e-13

>  <r_epik_State_Penalty>  (131) 
-0

>  <r_epik_Charging_Adjusted_Penalty>  (131) 
0

>  <i_epik_Tot_Q>  (131) 
0

>  <i_epik_Tot_abs_Q>  (131) 
0

>  <s_lp_Force_Field>  (131) 
OPLS3e

>  <r_lp_Energy>  (131) 
44.6651

>  <b_lp_Chiralities_Consistent>  (131) 
1

>  <s_lp_Variant>  (131) 
47:0-1

>  <s_i_glide_gridfile>  (131) 
pfpi4k_grid

>  <i_i_glide_lignum>  (131) 
21

>  <i_i_glide_rotatable_bonds>  (131) 
0

>  <r_i_docking_score>  (131) 
-2.5153

>  <r_i_glide_ligand_efficiency>  (131) 
-0.0967422

>  <r_i_glide_ligand_efficiency_sa>  (131) 
-0.286598

>  <r_i_glide_ligand_efficiency_ln>  (131) 
-0.590709

>  <r_i_glide_gscore>  (131) 
-2.5153

>  <r_i_glide_lipo>  (131) 
-0.309287

>  <r_i_glide_hbond>  (131) 
0

>  <r_i_glide_metal>  (131) 
-0

>  <r_i_glide_rewards>  (131) 
-1.04656

>  <r_i_glide_evdw>  (131) 
-24.2393

>  <r_i_glide_ecoul>  (131) 
0.350073

>  <r_i_glide_erotb>  (131) 
0

>  <r_i_glide_esite>  (131) 
0

>  <r_i_glide_emodel>  (131) 
-28.609

>  <r_i_glide_energy>  (131) 
-23.8892

>  <r_i_glide_einternal>  (131) 
0

>  <r_i_glide_intrahb_reward>  (131) 
-0

>  <i_i_glide_confnum>  (131) 
1

>  <i_i_glide_posenum>  (131) 
16

>  <r_i_glide_eff_state_penalty>  (131) 
0

>  <ligand_id>  (131) 
47

>  <original_smiles>  (131) 
CC1=CCC2C3=CC=CC13CC1C2CC2C1CC=C1CC(=O)CCC12C

>  <smiles>  (131) 
[H]C1=C([H])C23C(C([H])([H])[H])=C([H])C([H])([H])C([H])(C2=C1[H])C1([H])C([H])([H])C2([H])C([H])(C([H])([H])C([H])=C4C([H])([H])C(=O)C([H])([H])C([H])([H])C42C([H])([H])[H])C1([H])C3([H])[H]

$$$$
48:0:0
     RDKit          3D

 55 59  0  0  1  0  0  0  0  0999 V2000
    5.5920   -3.7483    5.1468 C   0  0  0  0  0  0  0  0  0  0  0  0
    5.1219   -4.0748    3.7153 C   0  0  2  0  0  0  0  0  0  0  0  0
    5.6056   -5.4526    3.2381 C   0  0  1  0  0  0  0  0  0  0  0  0
    5.3174   -6.4477    4.1871 O   0  0  0  0  0  0  0  0  0  0  0  0
    4.8527   -5.7963    1.9657 C   0  0  0  0  0  0  0  0  0  0  0  0
    5.0430   -4.7455    0.8293 C   0  0  1  0  0  0  0  0  0  0  0  0
    5.8131   -5.4835   -0.0700 O   0  0  0  0  0  0  0  0  0  0  0  0
    3.7428   -4.4739    0.0488 C   0  0  1  0  0  0  0  0  0  0  0  0
    2.7074   -3.7967    0.9607 C   0  0  0  0  0  0  0  0  0  0  0  0
    2.7166   -2.2636    1.0520 C   0  0  0  0  0  0  0  0  0  0  0  0
    4.0922   -1.6007    1.2321 C   0  0  1  0  0  0  0  0  0  0  0  0
    4.5485   -1.7585    2.6727 C   0  0  0  0  0  0  0  0  0  0  0  0
    5.4752   -2.9676    2.6698 C   0  0  2  0  0  0  0  0  0  0  0  0
    5.7775   -3.3967    1.1952 C   0  0  1  0  0  0  0  0  0  0  0  0
    7.3196   -3.5062    1.0032 C   0  0  0  0  0  0  0  0  0  0  0  0
    5.2410   -2.1885    0.3654 C   0  0  1  0  0  0  0  0  0  0  0  0
    4.9087   -2.4631   -1.1371 C   0  0  2  0  0  0  0  0  0  0  0  0
    6.2003   -2.7078   -1.9704 C   0  0  0  0  0  0  0  0  0  0  0  0
    4.0993   -1.3121   -1.7989 C   0  0  1  0  0  0  0  0  0  0  0  0
    4.9007   -0.3076   -2.3478 O   0  0  0  0  0  0  0  0  0  0  0  0
    3.1862   -1.9715   -2.8254 C   0  0  0  0  0  0  0  0  0  0  0  0
    2.7761   -3.2751   -2.1555 C   0  0  0  0  0  0  0  0  0  0  0  0
    3.9956   -3.7065   -1.2935 C   0  0  2  0  0  0  0  0  0  0  0  0
    6.6681   -3.8395    5.2800 H   0  0  0  0  0  0  0  0  0  0  0  0
    5.1577   -4.4424    5.8645 H   0  0  0  0  0  0  0  0  0  0  0  0
    5.3056   -2.7405    5.4565 H   0  0  0  0  0  0  0  0  0  0  0  0
    4.0394   -4.1456    3.7860 H   0  0  0  0  0  0  0  0  0  0  0  0
    6.6808   -5.4521    3.0730 H   0  0  0  0  0  0  0  0  0  0  0  0
    5.6731   -7.2662    3.8656 H   0  0  0  0  0  0  0  0  0  0  0  0
    5.1174   -6.8119    1.6537 H   0  0  0  0  0  0  0  0  0  0  0  0
    3.7999   -5.9066    2.2336 H   0  0  0  0  0  0  0  0  0  0  0  0
    5.7741   -5.0598   -0.9145 H   0  0  0  0  0  0  0  0  0  0  0  0
    3.3106   -5.4449   -0.2260 H   0  0  0  0  0  0  0  0  0  0  0  0
    1.7840   -4.0984    0.5049 H   0  0  0  0  0  0  0  0  0  0  0  0
    2.6757   -4.1998    1.9726 H   0  0  0  0  0  0  0  0  0  0  0  0
    2.2515   -1.8725    0.1670 H   0  0  0  0  0  0  0  0  0  0  0  0
    2.0500   -1.9401    1.8521 H   0  0  0  0  0  0  0  0  0  0  0  0
    3.9816   -0.5306    1.0324 H   0  0  0  0  0  0  0  0  0  0  0  0
    5.1199   -0.8724    2.9526 H   0  0  0  0  0  0  0  0  0  0  0  0
    3.7294   -1.8340    3.3852 H   0  0  0  0  0  0  0  0  0  0  0  0
    6.3943   -2.4898    2.9651 H   0  0  0  0  0  0  0  0  0  0  0  0
    7.7934   -2.5536    1.2159 H   0  0  0  0  0  0  0  0  0  0  0  0
    7.6467   -3.7671    0.0034 H   0  0  0  0  0  0  0  0  0  0  0  0
    7.7742   -4.2359    1.6680 H   0  0  0  0  0  0  0  0  0  0  0  0
    6.0136   -1.4187    0.3763 H   0  0  0  0  0  0  0  0  0  0  0  0
    6.0004   -2.6701   -3.0386 H   0  0  0  0  0  0  0  0  0  0  0  0
    6.6332   -3.6879   -1.8088 H   0  0  0  0  0  0  0  0  0  0  0  0
    6.9709   -1.9690   -1.7568 H   0  0  0  0  0  0  0  0  0  0  0  0
    3.4409   -0.7970   -1.1127 H   0  0  0  0  0  0  0  0  0  0  0  0
    4.9961    0.4009   -1.7115 H   0  0  0  0  0  0  0  0  0  0  0  0
    2.3193   -1.3593   -3.0730 H   0  0  0  0  0  0  0  0  0  0  0  0
    3.7314   -2.1763   -3.7495 H   0  0  0  0  0  0  0  0  0  0  0  0
    1.8741   -3.1177   -1.5695 H   0  0  0  0  0  0  0  0  0  0  0  0
    2.5183   -3.9866   -2.9386 H   0  0  0  0  0  0  0  0  0  0  0  0
    4.5189   -4.4080   -1.9411 H   0  0  0  0  0  0  0  0  0  0  0  0
  1  2  1  0
  1 24  1  0
  1 25  1  0
  1 26  1  0
  2 13  1  0
  2  3  1  0
  2 27  1  1
  3  4  1  0
  3  5  1  0
  3 28  1  6
  4 29  1  0
  5  6  1  0
  5 30  1  0
  5 31  1  0
  6 14  1  0
  6  7  1  6
  6  8  1  0
  7 32  1  0
  8 23  1  0
  8  9  1  0
  8 33  1  6
  9 10  1  0
  9 34  1  0
  9 35  1  0
 10 11  1  0
 10 36  1  0
 10 37  1  0
 11 16  1  0
 11 12  1  0
 11 38  1  6
 12 13  1  0
 12 39  1  0
 12 40  1  0
 13 14  1  0
 13 41  1  1
 14 15  1  1
 14 16  1  0
 15 42  1  0
 15 43  1  0
 15 44  1  0
 16 17  1  0
 16 45  1  6
 17 23  1  0
 17 18  1  6
 17 19  1  0
 18 46  1  0
 18 47  1  0
 18 48  1  0
 19 20  1  0
 19 21  1  0
 19 49  1  1
 20 50  1  0
 21 22  1  0
 21 51  1  0
 21 52  1  0
 22 23  1  0
 22 53  1  0
 22 54  1  0
 23 55  1  6
M  END
>  <i_m_ct_stereo_status>  (132) 
1

>  <s_m_source_file>  (132) 
/var/tmp/pbs.5076255.sched01/tmpscvaj2_a/3886avry94.sdf

>  <i_m_source_file_index>  (132) 
22

>  <i_lp_mmshare_version>  (132) 
48012

>  <i_f3d_flags>  (132) 
0

>  <s_epik_input>  (132) 
W09IXVtDQEBIXShbQ0gyXTEpW0NAQEhdKFtDSDNdKVtDQEBIXShbQ0BAXTIzW0NIM10pW0NIMl1bQ0BIXShbQ0gyXVtDSDJdNClbQ0BASF0zW0NAXShbQ0gzXSkoW0NAQEhdKFtPSF0pW0NIMl1bQ0gyXTUpW0NASF01W0NASF00W0NAXTEyW09IXQ==

>  <s_epik_cmdline>  (132) 
J2VwaWtfcHl0aG9uJywgJy1waHQnLCAnMi4wJywgJy1waCcsICc3LjAnLCAnLXRuJywgJzgnLCAnLW1hJywgJzIwMCcsICctaW1hZScsICc8aW5maWxlLm1hZT4nLCAnLW9tYWUnLCAnPG91dGZpbGUubWFlPic=

>  <r_lp_tautomer_probability>  (132) 
1

>  <r_epik_Ionization_Penalty>  (132) 
8.90186e-06

>  <r_epik_Ionization_Penalty_Charging>  (132) 
0

>  <r_epik_Ionization_Penalty_Neutral>  (132) 
8.90186e-06

>  <r_epik_State_Penalty>  (132) 
-0

>  <r_epik_Charging_Adjusted_Penalty>  (132) 
0

>  <i_epik_Tot_Q>  (132) 
0

>  <i_epik_Tot_abs_Q>  (132) 
0

>  <s_lp_Force_Field>  (132) 
OPLS3e

>  <r_lp_Energy>  (132) 
65.1006

>  <b_lp_Chiralities_Consistent>  (132) 
1

>  <s_lp_Variant>  (132) 
48:0-1

>  <s_i_glide_gridfile>  (132) 
pfpi4k_grid

>  <i_i_glide_lignum>  (132) 
22

>  <i_i_glide_rotatable_bonds>  (132) 
3

>  <r_i_docking_score>  (132) 
-3.22247

>  <r_i_glide_ligand_efficiency>  (132) 
-0.140107

>  <r_i_glide_ligand_efficiency_sa>  (132) 
-0.398447

>  <r_i_glide_ligand_efficiency_ln>  (132) 
-0.779223

>  <r_i_glide_gscore>  (132) 
-3.22247

>  <r_i_glide_lipo>  (132) 
-0.420208

>  <r_i_glide_hbond>  (132) 
-0.32

>  <r_i_glide_metal>  (132) 
-0

>  <r_i_glide_rewards>  (132) 
-1.22409

>  <r_i_glide_evdw>  (132) 
-11.6785

>  <r_i_glide_ecoul>  (132) 
-4.49495

>  <r_i_glide_erotb>  (132) 
0

>  <r_i_glide_esite>  (132) 
0

>  <r_i_glide_emodel>  (132) 
-17.5493

>  <r_i_glide_energy>  (132) 
-16.1735

>  <r_i_glide_einternal>  (132) 
1.658

>  <r_i_glide_intrahb_reward>  (132) 
-0

>  <i_i_glide_confnum>  (132) 
2

>  <i_i_glide_posenum>  (132) 
19

>  <r_i_glide_eff_state_penalty>  (132) 
0

>  <ligand_id>  (132) 
48

>  <original_smiles>  (132) 
CC1C(O)CC2(O)C3CCC4CC1C2(C)C4C1(C)C(O)CCC31

>  <smiles>  (132) 
[H]OC1([H])C([H])([H])C2(O[H])C3([H])C([H])([H])C([H])([H])C4([H])C([H])([H])C([H])(C1([H])C([H])([H])[H])C2(C([H])([H])[H])C4([H])C1(C([H])([H])[H])C([H])(O[H])C([H])([H])C([H])([H])C31[H]

$$$$
48:0:1
     RDKit          3D

 55 59  0  0  1  0  0  0  0  0999 V2000
    2.6644   -2.5287   -3.3619 C   0  0  0  0  0  0  0  0  0  0  0  0
    3.3277   -2.1510   -2.0138 C   0  0  2  0  0  0  0  0  0  0  0  0
    4.6566   -1.4492   -2.1798 C   0  0  1  0  0  0  0  0  0  0  0  0
    4.4901   -0.3746   -3.0533 O   0  0  0  0  0  0  0  0  0  0  0  0
    5.0672   -0.9048   -0.8156 C   0  0  0  0  0  0  0  0  0  0  0  0
    5.2247   -1.9789    0.2842 C   0  0  1  0  0  0  0  0  0  0  0  0
    6.6312   -1.9892    0.4613 O   0  0  0  0  0  0  0  0  0  0  0  0
    4.6701   -1.4703    1.6521 C   0  0  1  0  0  0  0  0  0  0  0  0
    3.1362   -1.2236    1.6356 C   0  0  0  0  0  0  0  0  0  0  0  0
    2.2444   -2.4331    1.8966 C   0  0  0  0  0  0  0  0  0  0  0  0
    2.6149   -3.7507    1.1619 C   0  0  1  0  0  0  0  0  0  0  0  0
    2.2573   -3.7493   -0.3293 C   0  0  0  0  0  0  0  0  0  0  0  0
    3.5119   -3.3910   -1.1094 C   0  0  2  0  0  0  0  0  0  0  0  0
    4.6853   -3.4066   -0.0736 C   0  0  1  0  0  0  0  0  0  0  0  0
    5.7732   -4.2839   -0.7126 C   0  0  0  0  0  0  0  0  0  0  0  0
    4.1031   -4.1376    1.1759 C   0  0  1  0  0  0  0  0  0  0  0  0
    4.8426   -3.9381    2.5283 C   0  0  2  0  0  0  0  0  0  0  0  0
    6.1878   -4.7083    2.4787 C   0  0  0  0  0  0  0  0  0  0  0  0
    4.0551   -4.4229    3.7825 C   0  0  1  0  0  0  0  0  0  0  0  0
    4.3245   -5.7579    4.1534 O   0  0  0  0  0  0  0  0  0  0  0  0
    4.4543   -3.4739    4.9148 C   0  0  0  0  0  0  0  0  0  0  0  0
    4.6127   -2.1099    4.2351 C   0  0  0  0  0  0  0  0  0  0  0  0
    5.1012   -2.4274    2.8044 C   0  0  2  0  0  0  0  0  0  0  0  0
    3.3155   -3.1429   -3.9807 H   0  0  0  0  0  0  0  0  0  0  0  0
    2.4244   -1.6288   -3.9226 H   0  0  0  0  0  0  0  0  0  0  0  0
    1.7289   -3.0655   -3.2097 H   0  0  0  0  0  0  0  0  0  0  0  0
    2.6626   -1.4388   -1.5410 H   0  0  0  0  0  0  0  0  0  0  0  0
    5.4072   -2.1217   -2.5941 H   0  0  0  0  0  0  0  0  0  0  0  0
    3.7926    0.1967   -2.7392 H   0  0  0  0  0  0  0  0  0  0  0  0
    5.9745   -0.3211   -0.9225 H   0  0  0  0  0  0  0  0  0  0  0  0
    4.3369   -0.1613   -0.5215 H   0  0  0  0  0  0  0  0  0  0  0  0
    6.8388   -2.6936    1.0620 H   0  0  0  0  0  0  0  0  0  0  0  0
    5.1297   -0.4982    1.8447 H   0  0  0  0  0  0  0  0  0  0  0  0
    2.8965   -0.4605    2.3822 H   0  0  0  0  0  0  0  0  0  0  0  0
    2.8028   -0.7861    0.6946 H   0  0  0  0  0  0  0  0  0  0  0  0
    2.1788   -2.5939    2.9696 H   0  0  0  0  0  0  0  0  0  0  0  0
    1.2277   -2.1426    1.6438 H   0  0  0  0  0  0  0  0  0  0  0  0
    2.0425   -4.5478    1.6410 H   0  0  0  0  0  0  0  0  0  0  0  0
    1.9294   -4.7472   -0.6281 H   0  0  0  0  0  0  0  0  0  0  0  0
    1.4629   -3.0557   -0.5713 H   0  0  0  0  0  0  0  0  0  0  0  0
    3.6851   -4.1963   -1.8050 H   0  0  0  0  0  0  0  0  0  0  0  0
    5.3643   -5.2765   -0.9093 H   0  0  0  0  0  0  0  0  0  0  0  0
    6.6508   -4.4465   -0.1126 H   0  0  0  0  0  0  0  0  0  0  0  0
    6.1105   -3.8904   -1.6636 H   0  0  0  0  0  0  0  0  0  0  0  0
    4.1059   -5.2058    0.9685 H   0  0  0  0  0  0  0  0  0  0  0  0
    6.5526   -4.8382    3.4939 H   0  0  0  0  0  0  0  0  0  0  0  0
    6.9677   -4.1824    1.9428 H   0  0  0  0  0  0  0  0  0  0  0  0
    6.0804   -5.7006    2.0494 H   0  0  0  0  0  0  0  0  0  0  0  0
    2.9835   -4.3694    3.6683 H   0  0  0  0  0  0  0  0  0  0  0  0
    4.0243   -6.3244    3.4471 H   0  0  0  0  0  0  0  0  0  0  0  0
    3.7085   -3.4504    5.7064 H   0  0  0  0  0  0  0  0  0  0  0  0
    5.4033   -3.7787    5.3593 H   0  0  0  0  0  0  0  0  0  0  0  0
    3.6625   -1.5851    4.2560 H   0  0  0  0  0  0  0  0  0  0  0  0
    5.3298   -1.4808    4.7727 H   0  0  0  0  0  0  0  0  0  0  0  0
    6.1736   -2.3029    2.8810 H   0  0  0  0  0  0  0  0  0  0  0  0
  1  2  1  0
  1 24  1  0
  1 25  1  0
  1 26  1  0
  2 13  1  0
  2  3  1  0
  2 27  1  1
  3  4  1  0
  3  5  1  0
  3 28  1  6
  4 29  1  0
  5  6  1  0
  5 30  1  0
  5 31  1  0
  6 14  1  0
  6  7  1  1
  6  8  1  0
  7 32  1  0
  8 23  1  0
  8  9  1  0
  8 33  1  1
  9 10  1  0
  9 34  1  0
  9 35  1  0
 10 11  1  0
 10 36  1  0
 10 37  1  0
 11 16  1  0
 11 12  1  0
 11 38  1  1
 12 13  1  0
 12 39  1  0
 12 40  1  0
 13 14  1  0
 13 41  1  6
 14 15  1  6
 14 16  1  0
 15 42  1  0
 15 43  1  0
 15 44  1  0
 16 17  1  0
 16 45  1  6
 17 23  1  0
 17 18  1  6
 17 19  1  0
 18 46  1  0
 18 47  1  0
 18 48  1  0
 19 20  1  0
 19 21  1  0
 19 49  1  6
 20 50  1  0
 21 22  1  0
 21 51  1  0
 21 52  1  0
 22 23  1  0
 22 53  1  0
 22 54  1  0
 23 55  1  1
M  END
>  <i_m_ct_stereo_status>  (133) 
1

>  <s_m_source_file>  (133) 
/var/tmp/pbs.5076255.sched01/tmpscvaj2_a/3886avry94.sdf

>  <i_m_source_file_index>  (133) 
22

>  <i_lp_mmshare_version>  (133) 
48012

>  <i_f3d_flags>  (133) 
0

>  <s_epik_input>  (133) 
W09IXVtDQEBIXShbQ0gyXTEpW0NAQEhdKFtDSDNdKVtDQEBIXShbQ0BAXTIzW0NIM10pW0NIMl1bQ0BIXShbQ0gyXVtDSDJdNClbQ0BASF0zW0NAXShbQ0gzXSkoW0NAQEhdKFtPSF0pW0NIMl1bQ0gyXTUpW0NASF01W0NASF00W0NAXTEyW09IXQ==

>  <s_epik_cmdline>  (133) 
J2VwaWtfcHl0aG9uJywgJy1waHQnLCAnMi4wJywgJy1waCcsICc3LjAnLCAnLXRuJywgJzgnLCAnLW1hJywgJzIwMCcsICctaW1hZScsICc8aW5maWxlLm1hZT4nLCAnLW9tYWUnLCAnPG91dGZpbGUubWFlPic=

>  <r_lp_tautomer_probability>  (133) 
1

>  <r_epik_Ionization_Penalty>  (133) 
8.90186e-06

>  <r_epik_Ionization_Penalty_Charging>  (133) 
0

>  <r_epik_Ionization_Penalty_Neutral>  (133) 
8.90186e-06

>  <r_epik_State_Penalty>  (133) 
-0

>  <r_epik_Charging_Adjusted_Penalty>  (133) 
0

>  <i_epik_Tot_Q>  (133) 
0

>  <i_epik_Tot_abs_Q>  (133) 
0

>  <s_lp_Force_Field>  (133) 
OPLS3e

>  <r_lp_Energy>  (133) 
65.1006

>  <b_lp_Chiralities_Consistent>  (133) 
1

>  <s_lp_Variant>  (133) 
48:0-1

>  <s_i_glide_gridfile>  (133) 
pfpi4k_grid

>  <i_i_glide_lignum>  (133) 
22

>  <i_i_glide_rotatable_bonds>  (133) 
3

>  <r_i_docking_score>  (133) 
-3.09127

>  <r_i_glide_ligand_efficiency>  (133) 
-0.134403

>  <r_i_glide_ligand_efficiency_sa>  (133) 
-0.382224

>  <r_i_glide_ligand_efficiency_ln>  (133) 
-0.747497

>  <r_i_glide_gscore>  (133) 
-3.09127

>  <r_i_glide_lipo>  (133) 
-0.518679

>  <r_i_glide_hbond>  (133) 
0

>  <r_i_glide_metal>  (133) 
-0

>  <r_i_glide_rewards>  (133) 
-1.22409

>  <r_i_glide_evdw>  (133) 
-18.8679

>  <r_i_glide_ecoul>  (133) 
-2.70071

>  <r_i_glide_erotb>  (133) 
0

>  <r_i_glide_esite>  (133) 
0

>  <r_i_glide_emodel>  (133) 
-24.3443

>  <r_i_glide_energy>  (133) 
-21.5686

>  <r_i_glide_einternal>  (133) 
0.336623

>  <r_i_glide_intrahb_reward>  (133) 
-0

>  <i_i_glide_confnum>  (133) 
2

>  <i_i_glide_posenum>  (133) 
6

>  <r_i_glide_eff_state_penalty>  (133) 
0

>  <ligand_id>  (133) 
48

>  <original_smiles>  (133) 
CC1C(O)CC2(O)C3CCC4CC1C2(C)C4C1(C)C(O)CCC31

>  <smiles>  (133) 
[H]OC1([H])C([H])([H])C2(O[H])C3([H])C([H])([H])C([H])([H])C4([H])C([H])([H])C([H])(C1([H])C([H])([H])[H])C2(C([H])([H])[H])C4([H])C1(C([H])([H])[H])C([H])(O[H])C([H])([H])C([H])([H])C31[H]

$$$$
48:0:2
     RDKit          3D

 55 59  0  0  1  0  0  0  0  0999 V2000
    2.6915   -2.4533   -3.2421 C   0  0  0  0  0  0  0  0  0  0  0  0
    3.3495   -2.1611   -1.8846 C   0  0  2  0  0  0  0  0  0  0  0  0
    4.6575   -1.3934   -1.9934 C   0  0  1  0  0  0  0  0  0  0  0  0
    4.4534   -0.2613   -2.8163 O   0  0  0  0  0  0  0  0  0  0  0  0
    5.0631   -0.9285   -0.6002 C   0  0  0  0  0  0  0  0  0  0  0  0
    5.2195   -2.0663    0.4463 C   0  0  1  0  0  0  0  0  0  0  0  0
    6.6284   -2.0896    0.6285 O   0  0  0  0  0  0  0  0  0  0  0  0
    4.6584   -1.6609    1.8442 C   0  0  1  0  0  0  0  0  0  0  0  0
    3.1289   -1.4174    1.8278 C   0  0  0  0  0  0  0  0  0  0  0  0
    2.2368   -2.6502    2.0172 C   0  0  0  0  0  0  0  0  0  0  0  0
    2.6250   -3.9230    1.2093 C   0  0  1  0  0  0  0  0  0  0  0  0
    2.2722   -3.8266   -0.2816 C   0  0  0  0  0  0  0  0  0  0  0  0
    3.5296   -3.4401   -1.0348 C   0  0  2  0  0  0  0  0  0  0  0  0
    4.7075   -3.4941   -0.0029 C   0  0  1  0  0  0  0  0  0  0  0  0
    5.7979   -4.3191   -0.6964 C   0  0  0  0  0  0  0  0  0  0  0  0
    4.1158   -4.2980    1.2112 C   0  0  1  0  0  0  0  0  0  0  0  0
    4.8647   -4.1652    2.5846 C   0  0  2  0  0  0  0  0  0  0  0  0
    6.2247   -4.9164    2.5050 C   0  0  0  0  0  0  0  0  0  0  0  0
    4.0793   -4.7405    3.8013 C   0  0  1  0  0  0  0  0  0  0  0  0
    4.3609   -6.0845    4.0885 O   0  0  0  0  0  0  0  0  0  0  0  0
    4.4400   -3.8413    4.9862 C   0  0  0  0  0  0  0  0  0  0  0  0
    4.5989   -2.4431    4.3867 C   0  0  0  0  0  0  0  0  0  0  0  0
    5.1076   -2.6748    2.9428 C   0  0  2  0  0  0  0  0  0  0  0  0
    3.3518   -3.0181   -3.9010 H   0  0  0  0  0  0  0  0  0  0  0  0
    2.4391   -1.5237   -3.7480 H   0  0  0  0  0  0  0  0  0  0  0  0
    1.7550   -3.0082   -3.1289 H   0  0  0  0  0  0  0  0  0  0  0  0
    2.6705   -1.4940   -1.3576 H   0  0  0  0  0  0  0  0  0  0  0  0
    5.4210   -2.0177   -2.4513 H   0  0  0  0  0  0  0  0  0  0  0  0
    3.7352    0.2376   -2.4738 H   0  0  0  0  0  0  0  0  0  0  0  0
    5.9703   -0.3370   -0.6796 H   0  0  0  0  0  0  0  0  0  0  0  0
    4.3303   -0.1991   -0.2643 H   0  0  0  0  0  0  0  0  0  0  0  0
    6.8287   -2.8224    1.1961 H   0  0  0  0  0  0  0  0  0  0  0  0
    5.1053   -0.6942    2.0956 H   0  0  0  0  0  0  0  0  0  0  0  0
    2.8743   -0.7098    2.6180 H   0  0  0  0  0  0  0  0  0  0  0  0
    2.7975   -0.9390    0.9113 H   0  0  0  0  0  0  0  0  0  0  0  0
    2.1674   -2.8755    3.0775 H   0  0  0  0  0  0  0  0  0  0  0  0
    1.2346   -2.3184    1.7669 H   0  0  0  0  0  0  0  0  0  0  0  0
    2.0576   -4.7518    1.6341 H   0  0  0  0  0  0  0  0  0  0  0  0
    1.9377   -4.8051   -0.6323 H   0  0  0  0  0  0  0  0  0  0  0  0
    1.4749   -3.1195   -0.4793 H   0  0  0  0  0  0  0  0  0  0  0  0
    3.6938   -4.2381   -1.7542 H   0  0  0  0  0  0  0  0  0  0  0  0
    5.3975   -5.2913   -0.9534 H   0  0  0  0  0  0  0  0  0  0  0  0
    6.6789   -4.5112   -0.0955 H   0  0  0  0  0  0  0  0  0  0  0  0
    6.1375   -3.8601   -1.6209 H   0  0  0  0  0  0  0  0  0  0  0  0
    4.1438   -5.3553    0.9483 H   0  0  0  0  0  0  0  0  0  0  0  0
    6.6362   -5.0699    3.4961 H   0  0  0  0  0  0  0  0  0  0  0  0
    6.9877   -4.3639    1.9729 H   0  0  0  0  0  0  0  0  0  0  0  0
    6.1337   -5.9000    2.0343 H   0  0  0  0  0  0  0  0  0  0  0  0
    2.9997   -4.6851    3.6682 H   0  0  0  0  0  0  0  0  0  0  0  0
    3.7910   -6.3755    4.7813 H   0  0  0  0  0  0  0  0  0  0  0  0
    3.6859   -3.8684    5.7754 H   0  0  0  0  0  0  0  0  0  0  0  0
    5.3891   -4.1625    5.4263 H   0  0  0  0  0  0  0  0  0  0  0  0
    3.6369   -1.9311    4.4214 H   0  0  0  0  0  0  0  0  0  0  0  0
    5.2980   -1.8382    4.9678 H   0  0  0  0  0  0  0  0  0  0  0  0
    6.1788   -2.5406    3.0366 H   0  0  0  0  0  0  0  0  0  0  0  0
  1  2  1  0
  1 24  1  0
  1 25  1  0
  1 26  1  0
  2 13  1  0
  2  3  1  0
  2 27  1  1
  3  4  1  0
  3  5  1  0
  3 28  1  6
  4 29  1  0
  5  6  1  0
  5 30  1  0
  5 31  1  0
  6 14  1  0
  6  7  1  1
  6  8  1  0
  7 32  1  0
  8 23  1  0
  8  9  1  0
  8 33  1  1
  9 10  1  0
  9 34  1  0
  9 35  1  0
 10 11  1  0
 10 36  1  0
 10 37  1  0
 11 16  1  0
 11 12  1  0
 11 38  1  1
 12 13  1  0
 12 39  1  0
 12 40  1  0
 13 14  1  0
 13 41  1  6
 14 15  1  6
 14 16  1  0
 15 42  1  0
 15 43  1  0
 15 44  1  0
 16 17  1  0
 16 45  1  6
 17 23  1  0
 17 18  1  6
 17 19  1  0
 18 46  1  0
 18 47  1  0
 18 48  1  0
 19 20  1  0
 19 21  1  0
 19 49  1  6
 20 50  1  0
 21 22  1  0
 21 51  1  0
 21 52  1  0
 22 23  1  0
 22 53  1  0
 22 54  1  0
 23 55  1  1
M  END
>  <i_m_ct_stereo_status>  (134) 
1

>  <s_m_source_file>  (134) 
/var/tmp/pbs.5076255.sched01/tmpscvaj2_a/3886avry94.sdf

>  <i_m_source_file_index>  (134) 
22

>  <i_lp_mmshare_version>  (134) 
48012

>  <i_f3d_flags>  (134) 
0

>  <s_epik_input>  (134) 
W09IXVtDQEBIXShbQ0gyXTEpW0NAQEhdKFtDSDNdKVtDQEBIXShbQ0BAXTIzW0NIM10pW0NIMl1bQ0BIXShbQ0gyXVtDSDJdNClbQ0BASF0zW0NAXShbQ0gzXSkoW0NAQEhdKFtPSF0pW0NIMl1bQ0gyXTUpW0NASF01W0NASF00W0NAXTEyW09IXQ==

>  <s_epik_cmdline>  (134) 
J2VwaWtfcHl0aG9uJywgJy1waHQnLCAnMi4wJywgJy1waCcsICc3LjAnLCAnLXRuJywgJzgnLCAnLW1hJywgJzIwMCcsICctaW1hZScsICc8aW5maWxlLm1hZT4nLCAnLW9tYWUnLCAnPG91dGZpbGUubWFlPic=

>  <r_lp_tautomer_probability>  (134) 
1

>  <r_epik_Ionization_Penalty>  (134) 
8.90186e-06

>  <r_epik_Ionization_Penalty_Charging>  (134) 
0

>  <r_epik_Ionization_Penalty_Neutral>  (134) 
8.90186e-06

>  <r_epik_State_Penalty>  (134) 
-0

>  <r_epik_Charging_Adjusted_Penalty>  (134) 
0

>  <i_epik_Tot_Q>  (134) 
0

>  <i_epik_Tot_abs_Q>  (134) 
0

>  <s_lp_Force_Field>  (134) 
OPLS3e

>  <r_lp_Energy>  (134) 
65.1006

>  <b_lp_Chiralities_Consistent>  (134) 
1

>  <s_lp_Variant>  (134) 
48:0-1

>  <s_i_glide_gridfile>  (134) 
pfpi4k_grid

>  <i_i_glide_lignum>  (134) 
22

>  <i_i_glide_rotatable_bonds>  (134) 
3

>  <r_i_docking_score>  (134) 
-2.92818

>  <r_i_glide_ligand_efficiency>  (134) 
-0.127312

>  <r_i_glide_ligand_efficiency_sa>  (134) 
-0.362059

>  <r_i_glide_ligand_efficiency_ln>  (134) 
-0.70806

>  <r_i_glide_gscore>  (134) 
-2.92818

>  <r_i_glide_lipo>  (134) 
-0.445139

>  <r_i_glide_hbond>  (134) 
0

>  <r_i_glide_metal>  (134) 
-0

>  <r_i_glide_rewards>  (134) 
-1.22409

>  <r_i_glide_evdw>  (134) 
-18.7621

>  <r_i_glide_ecoul>  (134) 
-2.13895

>  <r_i_glide_erotb>  (134) 
0

>  <r_i_glide_esite>  (134) 
0

>  <r_i_glide_emodel>  (134) 
-23.5856

>  <r_i_glide_energy>  (134) 
-20.901

>  <r_i_glide_einternal>  (134) 
0.383282

>  <r_i_glide_intrahb_reward>  (134) 
-0

>  <i_i_glide_confnum>  (134) 
2

>  <i_i_glide_posenum>  (134) 
20

>  <r_i_glide_eff_state_penalty>  (134) 
0

>  <ligand_id>  (134) 
48

>  <original_smiles>  (134) 
CC1C(O)CC2(O)C3CCC4CC1C2(C)C4C1(C)C(O)CCC31

>  <smiles>  (134) 
[H]OC1([H])C([H])([H])C2(O[H])C3([H])C([H])([H])C([H])([H])C4([H])C([H])([H])C([H])(C1([H])C([H])([H])[H])C2(C([H])([H])[H])C4([H])C1(C([H])([H])[H])C([H])(O[H])C([H])([H])C([H])([H])C31[H]

$$$$
49:0:0
     RDKit          3D

 27 32  0  0  1  0  0  0  0  0999 V2000
   -5.0477   -4.6566   -4.7328 O   0  0  0  0  0  0  0  0  0  0  0  0
   -6.3246   -4.6844   -4.1157 C   0  0  0  0  0  0  0  0  0  0  0  0
   -7.4088   -4.2977   -5.0974 C   0  0  1  0  0  0  0  0  0  0  0  0
   -7.4748   -4.9222   -6.4838 C   0  0  1  0  0  0  0  0  0  0  0  0
   -8.5238   -5.2755   -5.4496 C   0  0  2  0  0  0  0  0  0  0  0  0
   -9.8905   -4.8444   -6.0075 C   0  0  1  0  0  0  0  0  0  0  0  0
   -9.4185   -3.8212   -6.9744 C   0  0  1  0  0  0  0  0  0  0  0  0
   -8.1856   -4.2460   -7.6695 C   0  0  2  0  0  0  0  0  0  0  0  0
   -8.9566   -5.1334   -8.7546 C   0  0  1  0  0  0  0  0  0  0  0  0
  -10.5546   -5.4376   -8.7125 C   0  0  2  0  0  0  0  0  0  0  0  0
  -10.6087   -5.7564   -7.1167 C   0  0  1  0  0  0  0  0  0  0  0  0
   -9.5911   -6.1083   -7.9819 C   0  0  1  0  0  0  0  0  0  0  0  0
  -10.2125   -4.3576   -8.0220 C   0  0  2  0  0  0  0  0  0  0  0  0
   -4.6943   -3.7625   -4.6744 H   0  0  0  0  0  0  0  0  0  0  0  0
   -6.5121   -5.6738   -3.6880 H   0  0  0  0  0  0  0  0  0  0  0  0
   -6.3321   -3.9733   -3.2959 H   0  0  0  0  0  0  0  0  0  0  0  0
   -7.7066   -3.2512   -5.0136 H   0  0  0  0  0  0  0  0  0  0  0  0
   -6.7151   -5.6662   -6.7208 H   0  0  0  0  0  0  0  0  0  0  0  0
   -8.4790   -6.2565   -4.9940 H   0  0  0  0  0  0  0  0  0  0  0  0
  -10.5519   -4.4186   -5.2510 H   0  0  0  0  0  0  0  0  0  0  0  0
   -9.5309   -2.7683   -6.7206 H   0  0  0  0  0  0  0  0  0  0  0  0
   -7.6124   -3.4244   -8.0946 H   0  0  0  0  0  0  0  0  0  0  0  0
   -8.3706   -5.6160   -9.5455 H   0  0  0  0  0  0  0  0  0  0  0  0
  -11.3511   -5.0916   -9.3765 H   0  0  0  0  0  0  0  0  0  0  0  0
  -11.3047   -6.5656   -6.8443 H   0  0  0  0  0  0  0  0  0  0  0  0
   -8.8192   -6.6483   -7.4232 H   0  0  0  0  0  0  0  0  0  0  0  0
  -11.2288   -3.8967   -7.9130 H   0  0  0  0  0  0  0  0  0  0  0  0
  1  2  1  0
  1 14  1  0
  2  3  1  0
  2 15  1  0
  2 16  1  0
  3  5  1  0
  3  4  1  0
  3 17  1  6
  4  8  1  0
  4  5  1  0
  4 18  1  6
  5  6  1  0
  5 19  1  1
  6 11  1  0
  6  7  1  0
  6 20  1  1
  7 13  1  0
  7  8  1  0
  7 21  1  1
  8  9  1  0
  8 22  1  6
  9 12  1  0
  9 10  1  0
  9 23  1  6
 10 13  1  0
 10 11  1  0
 10 24  1  6
 11 12  1  0
 11 25  1  1
 12 13  1  0
 12 26  1  6
 13 27  1  6
M  END
>  <i_m_ct_stereo_status>  (135) 
1

>  <s_m_source_file>  (135) 
/var/tmp/pbs.5076255.sched01/tmpscvaj2_a/3886avry94.sdf

>  <i_m_source_file_index>  (135) 
23

>  <i_lp_mmshare_version>  (135) 
48012

>  <i_f3d_flags>  (135) 
2

>  <s_epik_input>  (135) 
W09IXVtDSDJdW0NASF0xW0NAQEhdKFtDQEBIXTEyKVtDSF0zW0NASF00W0NIXTJbQ0BIXTVbQ0BIXTZbQ0BASF0zW0NAQEhdNVtDSF00Ng==

>  <s_epik_cmdline>  (135) 
J2VwaWtfcHl0aG9uJywgJy1waHQnLCAnMi4wJywgJy1waCcsICc3LjAnLCAnLXRuJywgJzgnLCAnLW1hJywgJzIwMCcsICctaW1hZScsICc8aW5maWxlLm1hZT4nLCAnLW9tYWUnLCAnPG91dGZpbGUubWFlPic=

>  <r_lp_tautomer_probability>  (135) 
1

>  <r_epik_Ionization_Penalty>  (135) 
9.30861e-07

>  <r_epik_Ionization_Penalty_Charging>  (135) 
0

>  <r_epik_Ionization_Penalty_Neutral>  (135) 
9.30861e-07

>  <r_epik_State_Penalty>  (135) 
-0

>  <r_epik_Charging_Adjusted_Penalty>  (135) 
0

>  <i_epik_Tot_Q>  (135) 
0

>  <i_epik_Tot_abs_Q>  (135) 
0

>  <s_lp_Force_Field>  (135) 
OPLS3e

>  <r_lp_Energy>  (135) 
370.761

>  <b_lp_Chiralities_Consistent>  (135) 
0

>  <s_lp_Variant>  (135) 
49:0-1

>  <s_i_glide_gridfile>  (135) 
pfpi4k_grid

>  <i_i_glide_lignum>  (135) 
23

>  <i_i_glide_rotatable_bonds>  (135) 
2

>  <r_i_docking_score>  (135) 
-6.17203

>  <r_i_glide_ligand_efficiency>  (135) 
-0.474771

>  <r_i_glide_ligand_efficiency_sa>  (135) 
-1.11635

>  <r_i_glide_ligand_efficiency_ln>  (135) 
-1.73131

>  <r_i_glide_gscore>  (135) 
-6.17203

>  <r_i_glide_lipo>  (135) 
-1.7134

>  <r_i_glide_hbond>  (135) 
-0.479758

>  <r_i_glide_metal>  (135) 
-0

>  <r_i_glide_rewards>  (135) 
-2.70189

>  <r_i_glide_evdw>  (135) 
-11.9581

>  <r_i_glide_ecoul>  (135) 
-4.52723

>  <r_i_glide_erotb>  (135) 
0

>  <r_i_glide_esite>  (135) 
0

>  <r_i_glide_emodel>  (135) 
-20.703

>  <r_i_glide_energy>  (135) 
-16.4853

>  <r_i_glide_einternal>  (135) 
3.39352

>  <r_i_glide_intrahb_reward>  (135) 
-0

>  <i_i_glide_confnum>  (135) 
1

>  <i_i_glide_posenum>  (135) 
7

>  <r_i_glide_eff_state_penalty>  (135) 
0

>  <ligand_id>  (135) 
49

>  <original_smiles>  (135) 
OCC1C2C1C1C3C2C2C4C1C2C34

>  <smiles>  (135) 
[H]OC([H])([H])C1([H])C2([H])C1([H])C1([H])C3([H])C2([H])C2([H])C4([H])C1([H])C2([H])C34[H]

$$$$
49:0:1
     RDKit          3D

 27 32  0  0  1  0  0  0  0  0999 V2000
   -5.3574   -4.8383   -5.1144 O   0  0  0  0  0  0  0  0  0  0  0  0
   -6.4098   -5.4985   -4.4397 C   0  0  0  0  0  0  0  0  0  0  0  0
   -6.6372   -6.9201   -4.9285 C   0  0  1  0  0  0  0  0  0  0  0  0
   -6.6224   -7.2873   -6.4039 C   0  0  1  0  0  0  0  0  0  0  0  0
   -5.5125   -7.7843   -5.4803 C   0  0  2  0  0  0  0  0  0  0  0  0
   -5.5639   -9.3189   -5.4733 C   0  0  1  0  0  0  0  0  0  0  0  0
   -6.9695   -9.5031   -5.9373 C   0  0  1  0  0  0  0  0  0  0  0  0
   -7.3442   -8.5175   -6.9801 C   0  0  2  0  0  0  0  0  0  0  0  0
   -6.6673   -9.3529   -8.1709 C   0  0  1  0  0  0  0  0  0  0  0  0
   -5.7629  -10.7004   -7.9447 C   0  0  2  0  0  0  0  0  0  0  0  0
   -4.9126  -10.1027   -6.6848 C   0  0  2  0  0  0  0  0  0  0  0  0
   -5.3257   -9.4010   -7.8168 C   0  0  1  0  0  0  0  0  0  0  0  0
   -6.6141  -10.4210   -6.9651 C   0  0  2  0  0  0  0  0  0  0  0  0
   -5.2327   -3.9767   -4.7411 H   0  0  0  0  0  0  0  0  0  0  0  0
   -6.1868   -5.5311   -3.3708 H   0  0  0  0  0  0  0  0  0  0  0  0
   -7.3339   -4.9264   -4.5539 H   0  0  0  0  0  0  0  0  0  0  0  0
   -7.3864   -7.4342   -4.3274 H   0  0  0  0  0  0  0  0  0  0  0  0
   -6.4312   -6.4757   -7.0941 H   0  0  0  0  0  0  0  0  0  0  0  0
   -4.5251   -7.3339   -5.5417 H   0  0  0  0  0  0  0  0  0  0  0  0
   -5.3335   -9.7488   -4.4975 H   0  0  0  0  0  0  0  0  0  0  0  0
   -7.7295   -9.8155   -5.2200 H   0  0  0  0  0  0  0  0  0  0  0  0
   -8.4198   -8.3649   -7.0972 H   0  0  0  0  0  0  0  0  0  0  0  0
   -6.7576   -8.9757   -9.1916 H   0  0  0  0  0  0  0  0  0  0  0  0
   -5.9751  -11.7399   -8.2432 H   0  0  0  0  0  0  0  0  0  0  0  0
   -3.8320  -10.2530   -6.6873 H   0  0  0  0  0  0  0  0  0  0  0  0
   -4.9967   -8.3673   -7.7369 H   0  0  0  0  0  0  0  0  0  0  0  0
   -6.6040  -11.4270   -6.4890 H   0  0  0  0  0  0  0  0  0  0  0  0
  1  2  1  0
  1 14  1  0
  2  3  1  0
  2 15  1  0
  2 16  1  0
  3  5  1  0
  3  4  1  0
  3 17  1  1
  4  8  1  0
  4  5  1  0
  4 18  1  6
  5  6  1  0
  5 19  1  6
  6 11  1  0
  6  7  1  0
  6 20  1  1
  7 13  1  0
  7  8  1  0
  7 21  1  1
  8  9  1  0
  8 22  1  6
  9 12  1  0
  9 10  1  0
  9 23  1  6
 10 13  1  0
 10 11  1  0
 10 24  1  6
 11 12  1  0
 11 25  1  1
 12 13  1  0
 12 26  1  6
 13 27  1  6
M  END
>  <i_m_ct_stereo_status>  (136) 
1

>  <s_m_source_file>  (136) 
/var/tmp/pbs.5076255.sched01/tmpscvaj2_a/3886avry94.sdf

>  <i_m_source_file_index>  (136) 
23

>  <i_lp_mmshare_version>  (136) 
48012

>  <i_f3d_flags>  (136) 
2

>  <s_epik_input>  (136) 
W09IXVtDSDJdW0NASF0xW0NAQEhdKFtDQEBIXTEyKVtDSF0zW0NASF00W0NIXTJbQ0BIXTVbQ0BIXTZbQ0BASF0zW0NAQEhdNVtDSF00Ng==

>  <s_epik_cmdline>  (136) 
J2VwaWtfcHl0aG9uJywgJy1waHQnLCAnMi4wJywgJy1waCcsICc3LjAnLCAnLXRuJywgJzgnLCAnLW1hJywgJzIwMCcsICctaW1hZScsICc8aW5maWxlLm1hZT4nLCAnLW9tYWUnLCAnPG91dGZpbGUubWFlPic=

>  <r_lp_tautomer_probability>  (136) 
1

>  <r_epik_Ionization_Penalty>  (136) 
9.30861e-07

>  <r_epik_Ionization_Penalty_Charging>  (136) 
0

>  <r_epik_Ionization_Penalty_Neutral>  (136) 
9.30861e-07

>  <r_epik_State_Penalty>  (136) 
-0

>  <r_epik_Charging_Adjusted_Penalty>  (136) 
0

>  <i_epik_Tot_Q>  (136) 
0

>  <i_epik_Tot_abs_Q>  (136) 
0

>  <s_lp_Force_Field>  (136) 
OPLS3e

>  <r_lp_Energy>  (136) 
370.761

>  <b_lp_Chiralities_Consistent>  (136) 
0

>  <s_lp_Variant>  (136) 
49:0-1

>  <s_i_glide_gridfile>  (136) 
pfpi4k_grid

>  <i_i_glide_lignum>  (136) 
23

>  <i_i_glide_rotatable_bonds>  (136) 
2

>  <r_i_docking_score>  (136) 
-6.13506

>  <r_i_glide_ligand_efficiency>  (136) 
-0.471927

>  <r_i_glide_ligand_efficiency_sa>  (136) 
-1.10966

>  <r_i_glide_ligand_efficiency_ln>  (136) 
-1.72094

>  <r_i_glide_gscore>  (136) 
-6.13506

>  <r_i_glide_lipo>  (136) 
-2.19088

>  <r_i_glide_hbond>  (136) 
-0.00542024

>  <r_i_glide_metal>  (136) 
-0

>  <r_i_glide_rewards>  (136) 
-2.77707

>  <r_i_glide_evdw>  (136) 
-15.0989

>  <r_i_glide_ecoul>  (136) 
-2.71157

>  <r_i_glide_erotb>  (136) 
0

>  <r_i_glide_esite>  (136) 
0

>  <r_i_glide_emodel>  (136) 
-22.5829

>  <r_i_glide_energy>  (136) 
-17.8105

>  <r_i_glide_einternal>  (136) 
3.7411

>  <r_i_glide_intrahb_reward>  (136) 
-0

>  <i_i_glide_confnum>  (136) 
2

>  <i_i_glide_posenum>  (136) 
2

>  <r_i_glide_eff_state_penalty>  (136) 
0

>  <ligand_id>  (136) 
49

>  <original_smiles>  (136) 
OCC1C2C1C1C3C2C2C4C1C2C34

>  <smiles>  (136) 
[H]OC([H])([H])C1([H])C2([H])C1([H])C1([H])C3([H])C2([H])C2([H])C4([H])C1([H])C2([H])C34[H]

$$$$
49:0:2
     RDKit          3D

 27 32  0  0  1  0  0  0  0  0999 V2000
   -5.7775   -5.9836   -4.3180 O   0  0  0  0  0  0  0  0  0  0  0  0
   -6.4196   -4.7624   -4.0005 C   0  0  0  0  0  0  0  0  0  0  0  0
   -7.4713   -4.3664   -5.0182 C   0  0  1  0  0  0  0  0  0  0  0  0
   -7.5047   -4.9494   -6.4284 C   0  0  1  0  0  0  0  0  0  0  0  0
   -8.5808   -5.3232   -5.4190 C   0  0  2  0  0  0  0  0  0  0  0  0
   -9.9351   -4.8679   -5.9837 C   0  0  1  0  0  0  0  0  0  0  0  0
   -9.4324   -3.8340   -6.9233 C   0  0  1  0  0  0  0  0  0  0  0  0
   -8.1918   -4.2502   -7.6102 C   0  0  2  0  0  0  0  0  0  0  0  0
   -8.9534   -5.1241   -8.7168 C   0  0  1  0  0  0  0  0  0  0  0  0
  -10.5521   -5.4184   -8.7056 C   0  0  2  0  0  0  0  0  0  0  0  0
  -10.6415   -5.7602   -7.1167 C   0  0  1  0  0  0  0  0  0  0  0  0
   -9.6103   -6.1042   -7.9686 C   0  0  1  0  0  0  0  0  0  0  0  0
  -10.2118   -4.3491   -7.9929 C   0  0  2  0  0  0  0  0  0  0  0  0
   -6.4316   -6.6640   -4.3706 H   0  0  0  0  0  0  0  0  0  0  0  0
   -6.8774   -4.8344   -3.0123 H   0  0  0  0  0  0  0  0  0  0  0  0
   -5.6745   -3.9657   -3.9539 H   0  0  0  0  0  0  0  0  0  0  0  0
   -7.7846   -3.3350   -4.8908 H   0  0  0  0  0  0  0  0  0  0  0  0
   -6.7533   -5.6937   -6.6887 H   0  0  0  0  0  0  0  0  0  0  0  0
   -8.5538   -6.3016   -4.9558 H   0  0  0  0  0  0  0  0  0  0  0  0
  -10.6033   -4.4497   -5.2321 H   0  0  0  0  0  0  0  0  0  0  0  0
   -9.5497   -2.7836   -6.6546 H   0  0  0  0  0  0  0  0  0  0  0  0
   -7.6062   -3.4272   -8.0122 H   0  0  0  0  0  0  0  0  0  0  0  0
   -8.3608   -5.6047   -9.4971 H   0  0  0  0  0  0  0  0  0  0  0  0
  -11.3429   -5.0675   -9.3858 H   0  0  0  0  0  0  0  0  0  0  0  0
  -11.3269   -6.5772   -6.8604 H   0  0  0  0  0  0  0  0  0  0  0  0
   -8.8502   -6.6482   -7.3953 H   0  0  0  0  0  0  0  0  0  0  0  0
  -11.2226   -3.8849   -7.8992 H   0  0  0  0  0  0  0  0  0  0  0  0
  1  2  1  0
  1 14  1  0
  2  3  1  0
  2 15  1  0
  2 16  1  0
  3  5  1  0
  3  4  1  0
  3 17  1  6
  4  8  1  0
  4  5  1  0
  4 18  1  6
  5  6  1  0
  5 19  1  1
  6 11  1  0
  6  7  1  0
  6 20  1  1
  7 13  1  0
  7  8  1  0
  7 21  1  1
  8  9  1  0
  8 22  1  6
  9 12  1  0
  9 10  1  0
  9 23  1  6
 10 13  1  0
 10 11  1  0
 10 24  1  6
 11 12  1  0
 11 25  1  1
 12 13  1  0
 12 26  1  6
 13 27  1  6
M  END
>  <i_m_ct_stereo_status>  (137) 
1

>  <s_m_source_file>  (137) 
/var/tmp/pbs.5076255.sched01/tmpscvaj2_a/3886avry94.sdf

>  <i_m_source_file_index>  (137) 
23

>  <i_lp_mmshare_version>  (137) 
48012

>  <i_f3d_flags>  (137) 
2

>  <s_epik_input>  (137) 
W09IXVtDSDJdW0NASF0xW0NAQEhdKFtDQEBIXTEyKVtDSF0zW0NASF00W0NIXTJbQ0BIXTVbQ0BIXTZbQ0BASF0zW0NAQEhdNVtDSF00Ng==

>  <s_epik_cmdline>  (137) 
J2VwaWtfcHl0aG9uJywgJy1waHQnLCAnMi4wJywgJy1waCcsICc3LjAnLCAnLXRuJywgJzgnLCAnLW1hJywgJzIwMCcsICctaW1hZScsICc8aW5maWxlLm1hZT4nLCAnLW9tYWUnLCAnPG91dGZpbGUubWFlPic=

>  <r_lp_tautomer_probability>  (137) 
1

>  <r_epik_Ionization_Penalty>  (137) 
9.30861e-07

>  <r_epik_Ionization_Penalty_Charging>  (137) 
0

>  <r_epik_Ionization_Penalty_Neutral>  (137) 
9.30861e-07

>  <r_epik_State_Penalty>  (137) 
-0

>  <r_epik_Charging_Adjusted_Penalty>  (137) 
0

>  <i_epik_Tot_Q>  (137) 
0

>  <i_epik_Tot_abs_Q>  (137) 
0

>  <s_lp_Force_Field>  (137) 
OPLS3e

>  <r_lp_Energy>  (137) 
370.761

>  <b_lp_Chiralities_Consistent>  (137) 
0

>  <s_lp_Variant>  (137) 
49:0-1

>  <s_i_glide_gridfile>  (137) 
pfpi4k_grid

>  <i_i_glide_lignum>  (137) 
23

>  <i_i_glide_rotatable_bonds>  (137) 
2

>  <r_i_docking_score>  (137) 
-5.23202

>  <r_i_glide_ligand_efficiency>  (137) 
-0.402463

>  <r_i_glide_ligand_efficiency_sa>  (137) 
-0.946326

>  <r_i_glide_ligand_efficiency_ln>  (137) 
-1.46763

>  <r_i_glide_gscore>  (137) 
-5.23202

>  <r_i_glide_lipo>  (137) 
-1.70519

>  <r_i_glide_hbond>  (137) 
0

>  <r_i_glide_metal>  (137) 
-0

>  <r_i_glide_rewards>  (137) 
-2.70489

>  <r_i_glide_evdw>  (137) 
-13.6802

>  <r_i_glide_ecoul>  (137) 
-0.919519

>  <r_i_glide_erotb>  (137) 
0

>  <r_i_glide_esite>  (137) 
0

>  <r_i_glide_emodel>  (137) 
-18.3625

>  <r_i_glide_energy>  (137) 
-14.5997

>  <r_i_glide_einternal>  (137) 
3.69398

>  <r_i_glide_intrahb_reward>  (137) 
-0

>  <i_i_glide_confnum>  (137) 
1

>  <i_i_glide_posenum>  (137) 
32

>  <r_i_glide_eff_state_penalty>  (137) 
0

>  <ligand_id>  (137) 
49

>  <original_smiles>  (137) 
OCC1C2C1C1C3C2C2C4C1C2C34

>  <smiles>  (137) 
[H]OC([H])([H])C1([H])C2([H])C1([H])C1([H])C3([H])C2([H])C2([H])C4([H])C1([H])C2([H])C34[H]

$$$$
50:0:0
     RDKit          3D

 63 68  0  0  1  0  0  0  0  0999 V2000
    3.1726    1.9845    7.1079 C   0  0  0  0  0  0  0  0  0  0  0  0
    2.1736    2.1282    5.8718 C   0  0  1  0  0  0  0  0  0  0  0  0
    0.9823    1.0714    5.3509 C   0  0  0  0  0  0  0  0  0  0  0  0
    0.8218    0.0160    4.2130 C   0  0  2  0  0  0  0  0  0  0  0  0
   -0.3636   -0.9802    4.4727 C   0  0  0  0  0  0  0  0  0  0  0  0
   -1.7321   -0.2654    4.9176 C   0  0  1  0  0  0  0  0  0  0  0  0
   -2.0120   -0.7192    6.1082 F   0  0  0  0  0  0  0  0  0  0  0  0
   -1.7813    1.2881    4.8611 C   0  0  0  0  0  0  0  0  0  0  0  0
   -1.7274    1.7127    3.5744 C   0  0  0  0  0  0  0  0  0  0  0  0
   -0.9909    2.9080    3.0090 C   0  0  0  0  0  0  0  0  0  0  0  0
    0.2780    3.3824    3.8038 C   0  0  2  0  0  0  0  0  0  0  0  0
    0.4695    4.6837    3.2818 O   0  0  0  0  0  0  0  0  0  0  0  0
    1.8250    2.5773    3.4432 C   0  0  2  0  0  0  0  0  0  0  0  0
    1.9231    1.6624    2.1526 C   0  0  0  0  0  0  0  0  0  0  0  0
    2.4623    0.2402    2.4496 C   0  0  0  0  0  0  0  0  0  0  0  0
    3.6928   -0.0019    1.9671 F   0  0  0  0  0  0  0  0  0  0  0  0
    2.1719   -0.3153    3.6537 C   0  0  0  0  0  0  0  0  0  0  0  0
    3.0784    0.1505    4.7732 C   0  0  2  0  0  0  0  0  0  0  0  0
    2.7058   -0.7061    6.2184 C   0  0  0  0  0  0  0  0  0  0  0  0
    1.4727   -0.5814    7.4251 C   0  0  0  0  0  0  0  0  0  0  0  0
    0.6132    0.6888    8.1047 C   0  0  0  0  0  0  0  0  0  0  0  0
    0.9892    1.0459    9.2192 O   0  0  0  0  0  0  0  0  0  0  0  0
   -0.7708    1.4658    7.5422 C   0  0  0  0  0  0  0  0  0  0  0  0
   -1.3172    2.2347    6.0786 C   0  0  2  0  0  0  0  0  0  0  0  0
   -2.6726    2.8054    6.5732 C   0  0  0  0  0  0  0  0  0  0  0  0
   -0.4414    3.5135    5.3480 C   0  0  2  0  0  0  0  0  0  0  0  0
   -1.3691    4.4607    5.1461 F   0  0  0  0  0  0  0  0  0  0  0  0
    0.5435    4.2184    6.2740 C   0  0  1  0  0  0  0  0  0  0  0  0
    0.2046    4.2388    7.6495 O   0  0  0  0  0  0  0  0  0  0  0  0
    1.9406    3.6934    6.0282 C   0  0  0  0  0  0  0  0  0  0  0  0
    2.8342    1.8178    4.6055 C   0  0  2  0  0  0  0  0  0  0  0  0
    4.1079    2.4063    4.5079 O   0  0  0  0  0  0  0  0  0  0  0  0
    3.6513    1.0619    7.3753 H   0  0  0  0  0  0  0  0  0  0  0  0
    2.7246    2.3475    8.0299 H   0  0  0  0  0  0  0  0  0  0  0  0
    4.0433    2.6328    6.9772 H   0  0  0  0  0  0  0  0  0  0  0  0
    0.3338    0.5278    5.8919 H   0  0  0  0  0  0  0  0  0  0  0  0
    0.3860    1.5335    4.7875 H   0  0  0  0  0  0  0  0  0  0  0  0
    0.3297    0.4018    3.3264 H   0  0  0  0  0  0  0  0  0  0  0  0
   -0.5344   -1.5327    3.5594 H   0  0  0  0  0  0  0  0  0  0  0  0
   -0.0689   -1.7397    5.1964 H   0  0  0  0  0  0  0  0  0  0  0  0
   -2.5533   -0.6550    4.3183 H   0  0  0  0  0  0  0  0  0  0  0  0
   -1.9178    0.9938    2.7904 H   0  0  0  0  0  0  0  0  0  0  0  0
   -0.7275    2.6151    2.0017 H   0  0  0  0  0  0  0  0  0  0  0  0
   -1.7293    3.7048    2.8955 H   0  0  0  0  0  0  0  0  0  0  0  0
    0.4099    4.6107    2.3142 H   0  0  0  0  0  0  0  0  0  0  0  0
    2.4275    3.4355    3.1423 H   0  0  0  0  0  0  0  0  0  0  0  0
    0.9962    1.5856    1.5946 H   0  0  0  0  0  0  0  0  0  0  0  0
    2.6108    2.1282    1.4733 H   0  0  0  0  0  0  0  0  0  0  0  0
    4.0957   -0.1070    4.4825 H   0  0  0  0  0  0  0  0  0  0  0  0
    2.5570   -1.7231    5.8533 H   0  0  0  0  0  0  0  0  0  0  0  0
    3.6497   -0.8492    6.7425 H   0  0  0  0  0  0  0  0  0  0  0  0
    0.6953   -1.2798    7.1228 H   0  0  0  0  0  0  0  0  0  0  0  0
    1.9087   -1.0766    8.2931 H   0  0  0  0  0  0  0  0  0  0  0  0
   -1.5497    0.7594    7.8039 H   0  0  0  0  0  0  0  0  0  0  0  0
   -0.9204    2.2167    8.3147 H   0  0  0  0  0  0  0  0  0  0  0  0
   -2.5537    3.6026    7.3099 H   0  0  0  0  0  0  0  0  0  0  0  0
   -3.2923    2.0295    7.0226 H   0  0  0  0  0  0  0  0  0  0  0  0
   -3.2672    3.2062    5.7502 H   0  0  0  0  0  0  0  0  0  0  0  0
    0.5764    5.2745    5.9938 H   0  0  0  0  0  0  0  0  0  0  0  0
    0.2369    3.3558    7.9849 H   0  0  0  0  0  0  0  0  0  0  0  0
    2.5463    4.1499    6.8116 H   0  0  0  0  0  0  0  0  0  0  0  0
    2.3558    4.2425    5.1844 H   0  0  0  0  0  0  0  0  0  0  0  0
    4.3685    2.4211    3.5937 H   0  0  0  0  0  0  0  0  0  0  0  0
  2  1  1  1
  1 33  1  0
  1 34  1  0
  1 35  1  0
  2 30  1  0
  2 31  1  0
  2  3  1  0
  3  4  1  0
  3 36  1  0
  3 37  1  0
  4 17  1  0
  4  5  1  0
  4 38  1  6
  5  6  1  0
  5 39  1  0
  5 40  1  0
  6  7  1  0
  6  8  1  0
  6 41  1  6
  8 24  1  0
  8  9  2  0
  9 10  1  0
  9 42  1  0
 10 11  1  0
 10 43  1  0
 10 44  1  0
 11 26  1  0
 11 12  1  6
 11 13  1  0
 12 45  1  0
 13 31  1  0
 13 14  1  0
 13 46  1  6
 14 15  1  0
 14 47  1  0
 14 48  1  0
 15 16  1  0
 15 17  2  0
 17 18  1  0
 18 19  1  0
 18 31  1  0
 18 49  1  6
 19 20  1  0
 19 50  1  0
 19 51  1  0
 20 21  1  0
 20 52  1  0
 20 53  1  0
 21 22  2  0
 21 23  1  0
 23 24  1  0
 23 54  1  0
 23 55  1  0
 24 25  1  1
 24 26  1  0
 25 56  1  0
 25 57  1  0
 25 58  1  0
 26 27  1  6
 26 28  1  0
 28 29  1  0
 28 30  1  0
 28 59  1  6
 29 60  1  0
 30 61  1  0
 30 62  1  0
 31 32  1  1
 32 63  1  0
M  END
>  <i_m_ct_stereo_status>  (138) 
1

>  <s_m_source_file>  (138) 
/var/tmp/pbs.5076255.sched01/tmpscvaj2_a/3886avry94.sdf

>  <i_m_source_file_index>  (138) 
24

>  <i_lp_mmshare_version>  (138) 
48012

>  <i_f3d_flags>  (138) 
1

>  <s_epik_input>  (138) 
W0NIM11bQ0BAXTEyW0NAXTMoW09IXSlbQ0BASF00W0NAXTUoW09IXSlbQ0BdKEYpKFtDQEBIXShbT0hdKVtDSDJdMilbQ0BAXTYoW0NIM10pQyg9W0NIXVtDSDJdNSlbQ0BIXShGKVtDSDJdW0NIXShbQ0gyXTEpQyg9QyhGKVtDSDJdNClbQ0BASF0zW0NIMl1bQ0gyXUMoPU8pW0NIMl02

>  <s_epik_cmdline>  (138) 
J2VwaWtfcHl0aG9uJywgJy1waHQnLCAnMi4wJywgJy1waCcsICc3LjAnLCAnLXRuJywgJzgnLCAnLW1hJywgJzIwMCcsICctaW1hZScsICc8aW5maWxlLm1hZT4nLCAnLW9tYWUnLCAnPG91dGZpbGUubWFlPic=

>  <r_lp_tautomer_probability>  (138) 
1

>  <r_epik_Ionization_Penalty>  (138) 
8.95451e-07

>  <r_epik_Ionization_Penalty_Charging>  (138) 
0

>  <r_epik_Ionization_Penalty_Neutral>  (138) 
8.95451e-07

>  <r_epik_State_Penalty>  (138) 
-0

>  <r_epik_Charging_Adjusted_Penalty>  (138) 
0

>  <i_epik_Tot_Q>  (138) 
0

>  <i_epik_Tot_abs_Q>  (138) 
0

>  <s_lp_Force_Field>  (138) 
OPLS3e

>  <r_lp_Energy>  (138) 
547.618

>  <b_lp_Chiralities_Consistent>  (138) 
1

>  <s_lp_Variant>  (138) 
50:0-1

>  <s_i_glide_gridfile>  (138) 
pfpi4k_grid

>  <i_i_glide_lignum>  (138) 
24

>  <i_i_glide_rotatable_bonds>  (138) 
3

>  <r_i_docking_score>  (138) 
-3.74932

>  <r_i_glide_ligand_efficiency>  (138) 
-0.117166

>  <r_i_glide_ligand_efficiency_sa>  (138) 
-0.37198

>  <r_i_glide_ligand_efficiency_ln>  (138) 
-0.839576

>  <r_i_glide_gscore>  (138) 
-3.74932

>  <r_i_glide_lipo>  (138) 
-0.18675

>  <r_i_glide_hbond>  (138) 
-0.456

>  <r_i_glide_metal>  (138) 
-0

>  <r_i_glide_rewards>  (138) 
-0.356668

>  <r_i_glide_evdw>  (138) 
-16.1627

>  <r_i_glide_ecoul>  (138) 
-11.9263

>  <r_i_glide_erotb>  (138) 
0

>  <r_i_glide_esite>  (138) 
-0.152824

>  <r_i_glide_emodel>  (138) 
-35.2343

>  <r_i_glide_energy>  (138) 
-28.089

>  <r_i_glide_einternal>  (138) 
0.664204

>  <r_i_glide_intrahb_reward>  (138) 
-0

>  <i_i_glide_confnum>  (138) 
1

>  <i_i_glide_posenum>  (138) 
24

>  <r_i_glide_eff_state_penalty>  (138) 
0

>  <ligand_id>  (138) 
50

>  <original_smiles>  (138) 
CC12CC3CC(F)C4=CCC5(O)C6CC(F)=C3C(CCC(=O)CC4(C)C5(F)C(O)C1)C62O

>  <smiles>  (138) 
[H]OC1([H])C([H])([H])C2(C([H])([H])[H])C([H])([H])C3([H])C4=C(F)C([H])([H])C5([H])C6(O[H])C([H])([H])C([H])=C(C([H])(F)C3([H])[H])C(C([H])([H])[H])(C([H])([H])C(=O)C([H])([H])C([H])([H])C4([H])C52O[H])C16F

$$$$
50:0:1
     RDKit          3D

 63 68  0  0  1  0  0  0  0  0999 V2000
    3.3471    3.8367    6.3744 C   0  0  0  0  0  0  0  0  0  0  0  0
    2.1354    3.2064    5.5452 C   0  0  1  0  0  0  0  0  0  0  0  0
    1.4542    1.6767    5.6664 C   0  0  0  0  0  0  0  0  0  0  0  0
    1.5200    0.3422    4.8550 C   0  0  2  0  0  0  0  0  0  0  0  0
    1.0095   -0.8957    5.6886 C   0  0  0  0  0  0  0  0  0  0  0  0
   -0.3594   -0.6369    6.5002 C   0  0  1  0  0  0  0  0  0  0  0  0
   -0.1232   -0.7443    7.8046 F   0  0  0  0  0  0  0  0  0  0  0  0
   -1.1420    0.6697    6.1406 C   0  0  0  0  0  0  0  0  0  0  0  0
   -1.5726    0.6560    4.8457 C   0  0  0  0  0  0  0  0  0  0  0  0
   -1.6045    1.8207    3.8393 C   0  0  0  0  0  0  0  0  0  0  0  0
   -0.5399    2.9636    4.0546 C   0  0  2  0  0  0  0  0  0  0  0  0
   -1.0519    4.0492    3.2836 O   0  0  0  0  0  0  0  0  0  0  0  0
    1.0827    2.7313    3.3448 C   0  0  2  0  0  0  0  0  0  0  0  0
    1.2790    1.5893    2.2664 C   0  0  0  0  0  0  0  0  0  0  0  0
    2.4245    0.6067    2.6269 C   0  0  0  0  0  0  0  0  0  0  0  0
    3.4718    0.6415    1.7870 F   0  0  0  0  0  0  0  0  0  0  0  0
    2.7038    0.3847    3.9373 C   0  0  0  0  0  0  0  0  0  0  0  0
    3.5453    1.4717    4.5796 C   0  0  2  0  0  0  0  0  0  0  0  0
    3.9446    1.0330    6.1941 C   0  0  0  0  0  0  0  0  0  0  0  0
    3.1104    1.0536    7.7047 C   0  0  0  0  0  0  0  0  0  0  0  0
    1.9591    2.0560    8.4018 C   0  0  0  0  0  0  0  0  0  0  0  0
    2.3871    2.8610    9.2266 O   0  0  0  0  0  0  0  0  0  0  0  0
    0.2834    2.0441    8.2195 C   0  0  0  0  0  0  0  0  0  0  0  0
   -0.8760    2.0586    6.9192 C   0  0  2  0  0  0  0  0  0  0  0  0
   -2.1864    2.2038    7.7389 C   0  0  0  0  0  0  0  0  0  0  0  0
   -0.8664    3.2813    5.7091 C   0  0  2  0  0  0  0  0  0  0  0  0
   -2.1371    3.7097    5.6766 F   0  0  0  0  0  0  0  0  0  0  0  0
   -0.1163    4.5484    6.1028 C   0  0  1  0  0  0  0  0  0  0  0  0
   -0.0991    4.8703    7.4799 O   0  0  0  0  0  0  0  0  0  0  0  0
    1.2671    4.5386    5.4916 C   0  0  0  0  0  0  0  0  0  0  0  0
    2.5609    2.7992    4.2115 C   0  0  2  0  0  0  0  0  0  0  0  0
    3.3987    3.7666    3.6067 O   0  0  0  0  0  0  0  0  0  0  0  0
    4.2388    3.2910    6.6158 H   0  0  0  0  0  0  0  0  0  0  0  0
    3.0127    4.2730    7.3115 H   0  0  0  0  0  0  0  0  0  0  0  0
    3.7740    4.6895    5.8422 H   0  0  0  0  0  0  0  0  0  0  0  0
    1.2738    1.1244    6.4845 H   0  0  0  0  0  0  0  0  0  0  0  0
    0.6035    1.6849    5.2627 H   0  0  0  0  0  0  0  0  0  0  0  0
    0.7174    0.2324    4.1299 H   0  0  0  0  0  0  0  0  0  0  0  0
    0.8463   -1.7232    4.9956 H   0  0  0  0  0  0  0  0  0  0  0  0
    1.7850   -1.2414    6.3712 H   0  0  0  0  0  0  0  0  0  0  0  0
   -1.0190   -1.4766    6.2814 H   0  0  0  0  0  0  0  0  0  0  0  0
   -1.6238   -0.3002    4.3426 H   0  0  0  0  0  0  0  0  0  0  0  0
   -1.5298    1.4048    2.8380 H   0  0  0  0  0  0  0  0  0  0  0  0
   -2.6200    2.2159    3.8788 H   0  0  0  0  0  0  0  0  0  0  0  0
   -0.6881    4.0184    2.3928 H   0  0  0  0  0  0  0  0  0  0  0  0
    1.1633    3.6214    2.7208 H   0  0  0  0  0  0  0  0  0  0  0  0
    0.3777    1.0155    2.0718 H   0  0  0  0  0  0  0  0  0  0  0  0
    1.5231    2.0468    1.3056 H   0  0  0  0  0  0  0  0  0  0  0  0
    4.4730    1.5251    4.0166 H   0  0  0  0  0  0  0  0  0  0  0  0
    4.1896   -0.0265    6.0891 H   0  0  0  0  0  0  0  0  0  0  0  0
    4.9459    1.4224    6.3761 H   0  0  0  0  0  0  0  0  0  0  0  0
    2.6814    0.0585    7.8204 H   0  0  0  0  0  0  0  0  0  0  0  0
    3.9125    1.0496    8.4460 H   0  0  0  0  0  0  0  0  0  0  0  0
   -0.0048    1.2163    8.8637 H   0  0  0  0  0  0  0  0  0  0  0  0
   -0.0025    2.8853    8.8486 H   0  0  0  0  0  0  0  0  0  0  0  0
   -2.2624    3.1724    8.2349 H   0  0  0  0  0  0  0  0  0  0  0  0
   -2.2592    1.4360    8.5102 H   0  0  0  0  0  0  0  0  0  0  0  0
   -3.0751    2.0859    7.1160 H   0  0  0  0  0  0  0  0  0  0  0  0
   -0.6242    5.3999    5.6472 H   0  0  0  0  0  0  0  0  0  0  0  0
    0.3816    4.2005    7.9461 H   0  0  0  0  0  0  0  0  0  0  0  0
    1.7634    5.4082    5.9260 H   0  0  0  0  0  0  0  0  0  0  0  0
    1.1841    4.9173    4.4750 H   0  0  0  0  0  0  0  0  0  0  0  0
    3.9013    3.3497    2.9128 H   0  0  0  0  0  0  0  0  0  0  0  0
  2  1  1  1
  1 33  1  0
  1 34  1  0
  1 35  1  0
  2 30  1  0
  2 31  1  0
  2  3  1  0
  3  4  1  0
  3 36  1  0
  3 37  1  0
  4 17  1  0
  4  5  1  0
  4 38  1  6
  5  6  1  0
  5 39  1  0
  5 40  1  0
  6  7  1  0
  6  8  1  0
  6 41  1  6
  8 24  1  0
  8  9  2  0
  9 10  1  0
  9 42  1  0
 10 11  1  0
 10 43  1  0
 10 44  1  0
 11 26  1  0
 11 12  1  6
 11 13  1  0
 12 45  1  0
 13 31  1  0
 13 14  1  0
 13 46  1  6
 14 15  1  0
 14 47  1  0
 14 48  1  0
 15 16  1  0
 15 17  2  0
 17 18  1  0
 18 19  1  0
 18 31  1  0
 18 49  1  6
 19 20  1  0
 19 50  1  0
 19 51  1  0
 20 21  1  0
 20 52  1  0
 20 53  1  0
 21 22  2  0
 21 23  1  0
 23 24  1  0
 23 54  1  0
 23 55  1  0
 24 25  1  1
 24 26  1  0
 25 56  1  0
 25 57  1  0
 25 58  1  0
 26 27  1  6
 26 28  1  0
 28 29  1  0
 28 30  1  0
 28 59  1  6
 29 60  1  0
 30 61  1  0
 30 62  1  0
 31 32  1  6
 32 63  1  0
M  END
>  <i_m_ct_stereo_status>  (139) 
1

>  <s_m_source_file>  (139) 
/var/tmp/pbs.5076255.sched01/tmpscvaj2_a/3886avry94.sdf

>  <i_m_source_file_index>  (139) 
24

>  <i_lp_mmshare_version>  (139) 
48012

>  <i_f3d_flags>  (139) 
1

>  <s_epik_input>  (139) 
W0NIM11bQ0BAXTEyW0NAXTMoW09IXSlbQ0BASF00W0NAXTUoW09IXSlbQ0BdKEYpKFtDQEBIXShbT0hdKVtDSDJdMilbQ0BAXTYoW0NIM10pQyg9W0NIXVtDSDJdNSlbQ0BIXShGKVtDSDJdW0NIXShbQ0gyXTEpQyg9QyhGKVtDSDJdNClbQ0BASF0zW0NIMl1bQ0gyXUMoPU8pW0NIMl02

>  <s_epik_cmdline>  (139) 
J2VwaWtfcHl0aG9uJywgJy1waHQnLCAnMi4wJywgJy1waCcsICc3LjAnLCAnLXRuJywgJzgnLCAnLW1hJywgJzIwMCcsICctaW1hZScsICc8aW5maWxlLm1hZT4nLCAnLW9tYWUnLCAnPG91dGZpbGUubWFlPic=

>  <r_lp_tautomer_probability>  (139) 
1

>  <r_epik_Ionization_Penalty>  (139) 
8.95451e-07

>  <r_epik_Ionization_Penalty_Charging>  (139) 
0

>  <r_epik_Ionization_Penalty_Neutral>  (139) 
8.95451e-07

>  <r_epik_State_Penalty>  (139) 
-0

>  <r_epik_Charging_Adjusted_Penalty>  (139) 
0

>  <i_epik_Tot_Q>  (139) 
0

>  <i_epik_Tot_abs_Q>  (139) 
0

>  <s_lp_Force_Field>  (139) 
OPLS3e

>  <r_lp_Energy>  (139) 
547.618

>  <b_lp_Chiralities_Consistent>  (139) 
1

>  <s_lp_Variant>  (139) 
50:0-1

>  <s_i_glide_gridfile>  (139) 
pfpi4k_grid

>  <i_i_glide_lignum>  (139) 
24

>  <i_i_glide_rotatable_bonds>  (139) 
3

>  <r_i_docking_score>  (139) 
-3.45619

>  <r_i_glide_ligand_efficiency>  (139) 
-0.108006

>  <r_i_glide_ligand_efficiency_sa>  (139) 
-0.342897

>  <r_i_glide_ligand_efficiency_ln>  (139) 
-0.773934

>  <r_i_glide_gscore>  (139) 
-3.45619

>  <r_i_glide_lipo>  (139) 
0

>  <r_i_glide_hbond>  (139) 
-0.456

>  <r_i_glide_metal>  (139) 
-0

>  <r_i_glide_rewards>  (139) 
-0.445537

>  <r_i_glide_evdw>  (139) 
-22.1133

>  <r_i_glide_ecoul>  (139) 
-9.21715

>  <r_i_glide_erotb>  (139) 
0

>  <r_i_glide_esite>  (139) 
-0.0664125

>  <r_i_glide_emodel>  (139) 
-37.7693

>  <r_i_glide_energy>  (139) 
-31.3304

>  <r_i_glide_einternal>  (139) 
1.00656

>  <r_i_glide_intrahb_reward>  (139) 
-0

>  <i_i_glide_confnum>  (139) 
1

>  <i_i_glide_posenum>  (139) 
36

>  <r_i_glide_eff_state_penalty>  (139) 
0

>  <ligand_id>  (139) 
50

>  <original_smiles>  (139) 
CC12CC3CC(F)C4=CCC5(O)C6CC(F)=C3C(CCC(=O)CC4(C)C5(F)C(O)C1)C62O

>  <smiles>  (139) 
[H]OC1([H])C([H])([H])C2(C([H])([H])[H])C([H])([H])C3([H])C4=C(F)C([H])([H])C5([H])C6(O[H])C([H])([H])C([H])=C(C([H])(F)C3([H])[H])C(C([H])([H])[H])(C([H])([H])C(=O)C([H])([H])C([H])([H])C4([H])C52O[H])C16F

$$$$
50:0:2
     RDKit          3D

 63 68  0  0  1  0  0  0  0  0999 V2000
    3.2541    3.4347    6.5828 C   0  0  0  0  0  0  0  0  0  0  0  0
    2.0422    2.9933    5.6430 C   0  0  1  0  0  0  0  0  0  0  0  0
    1.2799    1.4993    5.5341 C   0  0  0  0  0  0  0  0  0  0  0  0
    1.3047    0.2860    4.5522 C   0  0  2  0  0  0  0  0  0  0  0  0
    0.6947   -1.0246    5.1829 C   0  0  0  0  0  0  0  0  0  0  0  0
   -0.6817   -0.8017    5.9867 C   0  0  1  0  0  0  0  0  0  0  0  0
   -0.4562   -1.0911    7.2624 F   0  0  0  0  0  0  0  0  0  0  0  0
   -1.3808    0.5864    5.7930 C   0  0  0  0  0  0  0  0  0  0  0  0
   -1.7632    0.7741    4.4976 C   0  0  0  0  0  0  0  0  0  0  0  0
   -1.7067    2.0644    3.6586 C   0  0  0  0  0  0  0  0  0  0  0  0
   -0.5922    3.0994    4.0649 C   0  0  2  0  0  0  0  0  0  0  0  0
   -1.0243    4.3019    3.4356 O   0  0  0  0  0  0  0  0  0  0  0  0
    1.0405    2.8761    3.3738 C   0  0  2  0  0  0  0  0  0  0  0  0
    1.2253    1.8767    2.1572 C   0  0  0  0  0  0  0  0  0  0  0  0
    2.3080    0.7973    2.4126 C   0  0  0  0  0  0  0  0  0  0  0  0
    3.3987    0.9104    1.6400 F   0  0  0  0  0  0  0  0  0  0  0  0
    2.5226    0.3852    3.6874 C   0  0  0  0  0  0  0  0  0  0  0  0
    3.3938    1.3297    4.4905 C   0  0  2  0  0  0  0  0  0  0  0  0
    3.7120    0.6533    6.0397 C   0  0  0  0  0  0  0  0  0  0  0  0
    2.8247    0.5153    7.5125 C   0  0  0  0  0  0  0  0  0  0  0  0
    1.7041    1.4770    8.3086 C   0  0  0  0  0  0  0  0  0  0  0  0
    2.1458    2.1152    9.2595 O   0  0  0  0  0  0  0  0  0  0  0  0
    0.0370    1.5858    8.0778 C   0  0  0  0  0  0  0  0  0  0  0  0
   -1.0726    1.8408    6.7602 C   0  0  2  0  0  0  0  0  0  0  0  0
   -2.4036    1.9566    7.5480 C   0  0  0  0  0  0  0  0  0  0  0  0
   -0.9568    3.2127    5.7314 C   0  0  2  0  0  0  0  0  0  0  0  0
   -2.1990    3.7169    5.7262 F   0  0  0  0  0  0  0  0  0  0  0  0
   -0.1598    4.3732    6.3119 C   0  0  1  0  0  0  0  0  0  0  0  0
   -0.1763    4.4824    7.7192 O   0  0  0  0  0  0  0  0  0  0  0  0
    1.2443    4.3654    5.7492 C   0  0  0  0  0  0  0  0  0  0  0  0
    2.4933    2.7463    4.2756 C   0  0  2  0  0  0  0  0  0  0  0  0
    3.3992    3.7295    3.8044 O   0  0  0  0  0  0  0  0  0  0  0  0
    4.1046    2.8103    6.7780 H   0  0  0  0  0  0  0  0  0  0  0  0
    2.9071    3.7546    7.5624 H   0  0  0  0  0  0  0  0  0  0  0  0
    3.7449    4.3251    6.1835 H   0  0  0  0  0  0  0  0  0  0  0  0
    1.0387    0.8530    6.2629 H   0  0  0  0  0  0  0  0  0  0  0  0
    0.4445    1.6105    5.1162 H   0  0  0  0  0  0  0  0  0  0  0  0
    0.5263    0.3201    3.7959 H   0  0  0  0  0  0  0  0  0  0  0  0
    0.5175   -1.7391    4.3779 H   0  0  0  0  0  0  0  0  0  0  0  0
    1.4278   -1.5026    5.8333 H   0  0  0  0  0  0  0  0  0  0  0  0
   -1.3850   -1.5620    5.6477 H   0  0  0  0  0  0  0  0  0  0  0  0
   -1.8417   -0.0984    3.8646 H   0  0  0  0  0  0  0  0  0  0  0  0
   -1.6106    1.7847    2.6136 H   0  0  0  0  0  0  0  0  0  0  0  0
   -2.7024    2.5050    3.7177 H   0  0  0  0  0  0  0  0  0  0  0  0
   -0.7091    4.2857    2.5339 H   0  0  0  0  0  0  0  0  0  0  0  0
    1.1782    3.8388    2.8809 H   0  0  0  0  0  0  0  0  0  0  0  0
    0.3033    1.3909    1.8492 H   0  0  0  0  0  0  0  0  0  0  0  0
    1.5359    2.4552    1.2889 H   0  0  0  0  0  0  0  0  0  0  0  0
    4.3417    1.4092    3.9621 H   0  0  0  0  0  0  0  0  0  0  0  0
    3.9026   -0.3936    5.7969 H   0  0  0  0  0  0  0  0  0  0  0  0
    4.7255    0.9542    6.3034 H   0  0  0  0  0  0  0  0  0  0  0  0
    2.3399   -0.4589    7.4788 H   0  0  0  0  0  0  0  0  0  0  0  0
    3.5974    0.3689    8.2688 H   0  0  0  0  0  0  0  0  0  0  0  0
   -0.3185    0.7010    8.5994 H   0  0  0  0  0  0  0  0  0  0  0  0
   -0.2178    2.3582    8.8003 H   0  0  0  0  0  0  0  0  0  0  0  0
   -2.4520    2.8470    8.1760 H   0  0  0  0  0  0  0  0  0  0  0  0
   -2.5420    1.0983    8.2012 H   0  0  0  0  0  0  0  0  0  0  0  0
   -3.2749    1.9700    6.8897 H   0  0  0  0  0  0  0  0  0  0  0  0
   -0.6044    5.3093    5.9666 H   0  0  0  0  0  0  0  0  0  0  0  0
   -1.0784    4.5147    8.0063 H   0  0  0  0  0  0  0  0  0  0  0  0
    1.7677    5.1376    6.3166 H   0  0  0  0  0  0  0  0  0  0  0  0
    1.2184    4.8826    4.7921 H   0  0  0  0  0  0  0  0  0  0  0  0
    3.8465    3.3903    3.0352 H   0  0  0  0  0  0  0  0  0  0  0  0
  2  1  1  1
  1 33  1  0
  1 34  1  0
  1 35  1  0
  2 30  1  0
  2 31  1  0
  2  3  1  0
  3  4  1  0
  3 36  1  0
  3 37  1  0
  4 17  1  0
  4  5  1  0
  4 38  1  6
  5  6  1  0
  5 39  1  0
  5 40  1  0
  6  7  1  0
  6  8  1  0
  6 41  1  6
  8 24  1  0
  8  9  2  0
  9 10  1  0
  9 42  1  0
 10 11  1  0
 10 43  1  0
 10 44  1  0
 11 26  1  0
 11 12  1  6
 11 13  1  0
 12 45  1  0
 13 31  1  0
 13 14  1  0
 13 46  1  6
 14 15  1  0
 14 47  1  0
 14 48  1  0
 15 16  1  0
 15 17  2  0
 17 18  1  0
 18 19  1  0
 18 31  1  0
 18 49  1  6
 19 20  1  0
 19 50  1  0
 19 51  1  0
 20 21  1  0
 20 52  1  0
 20 53  1  0
 21 22  2  0
 21 23  1  0
 23 24  1  0
 23 54  1  0
 23 55  1  0
 24 25  1  1
 24 26  1  0
 25 56  1  0
 25 57  1  0
 25 58  1  0
 26 27  1  6
 26 28  1  0
 28 29  1  0
 28 30  1  0
 28 59  1  6
 29 60  1  0
 30 61  1  0
 30 62  1  0
 31 32  1  6
 32 63  1  0
M  END
>  <i_m_ct_stereo_status>  (140) 
1

>  <s_m_source_file>  (140) 
/var/tmp/pbs.5076255.sched01/tmpscvaj2_a/3886avry94.sdf

>  <i_m_source_file_index>  (140) 
24

>  <i_lp_mmshare_version>  (140) 
48012

>  <i_f3d_flags>  (140) 
1

>  <s_epik_input>  (140) 
W0NIM11bQ0BAXTEyW0NAXTMoW09IXSlbQ0BASF00W0NAXTUoW09IXSlbQ0BdKEYpKFtDQEBIXShbT0hdKVtDSDJdMilbQ0BAXTYoW0NIM10pQyg9W0NIXVtDSDJdNSlbQ0BIXShGKVtDSDJdW0NIXShbQ0gyXTEpQyg9QyhGKVtDSDJdNClbQ0BASF0zW0NIMl1bQ0gyXUMoPU8pW0NIMl02

>  <s_epik_cmdline>  (140) 
J2VwaWtfcHl0aG9uJywgJy1waHQnLCAnMi4wJywgJy1waCcsICc3LjAnLCAnLXRuJywgJzgnLCAnLW1hJywgJzIwMCcsICctaW1hZScsICc8aW5maWxlLm1hZT4nLCAnLW9tYWUnLCAnPG91dGZpbGUubWFlPic=

>  <r_lp_tautomer_probability>  (140) 
1

>  <r_epik_Ionization_Penalty>  (140) 
8.95451e-07

>  <r_epik_Ionization_Penalty_Charging>  (140) 
0

>  <r_epik_Ionization_Penalty_Neutral>  (140) 
8.95451e-07

>  <r_epik_State_Penalty>  (140) 
-0

>  <r_epik_Charging_Adjusted_Penalty>  (140) 
0

>  <i_epik_Tot_Q>  (140) 
0

>  <i_epik_Tot_abs_Q>  (140) 
0

>  <s_lp_Force_Field>  (140) 
OPLS3e

>  <r_lp_Energy>  (140) 
547.618

>  <b_lp_Chiralities_Consistent>  (140) 
1

>  <s_lp_Variant>  (140) 
50:0-1

>  <s_i_glide_gridfile>  (140) 
pfpi4k_grid

>  <i_i_glide_lignum>  (140) 
24

>  <i_i_glide_rotatable_bonds>  (140) 
3

>  <r_i_docking_score>  (140) 
-3.2617

>  <r_i_glide_ligand_efficiency>  (140) 
-0.101928

>  <r_i_glide_ligand_efficiency_sa>  (140) 
-0.323602

>  <r_i_glide_ligand_efficiency_ln>  (140) 
-0.730384

>  <r_i_glide_gscore>  (140) 
-3.2617

>  <r_i_glide_lipo>  (140) 
0

>  <r_i_glide_hbond>  (140) 
-0.456

>  <r_i_glide_metal>  (140) 
-0

>  <r_i_glide_rewards>  (140) 
-0.435417

>  <r_i_glide_evdw>  (140) 
-21.4897

>  <r_i_glide_ecoul>  (140) 
-8.13861

>  <r_i_glide_erotb>  (140) 
0

>  <r_i_glide_esite>  (140) 
-0.0750092

>  <r_i_glide_emodel>  (140) 
-35.8251

>  <r_i_glide_energy>  (140) 
-29.6283

>  <r_i_glide_einternal>  (140) 
0.9036

>  <r_i_glide_intrahb_reward>  (140) 
-0

>  <i_i_glide_confnum>  (140) 
2

>  <i_i_glide_posenum>  (140) 
7

>  <r_i_glide_eff_state_penalty>  (140) 
0

>  <ligand_id>  (140) 
50

>  <original_smiles>  (140) 
CC12CC3CC(F)C4=CCC5(O)C6CC(F)=C3C(CCC(=O)CC4(C)C5(F)C(O)C1)C62O

>  <smiles>  (140) 
[H]OC1([H])C([H])([H])C2(C([H])([H])[H])C([H])([H])C3([H])C4=C(F)C([H])([H])C5([H])C6(O[H])C([H])([H])C([H])=C(C([H])(F)C3([H])[H])C(C([H])([H])[H])(C([H])([H])C(=O)C([H])([H])C([H])([H])C4([H])C52O[H])C16F

$$$$
50:1:0
     RDKit          3D

 63 68  0  0  1  0  0  0  0  0999 V2000
    3.7791    1.9184    6.8829 C   0  0  0  0  0  0  0  0  0  0  0  0
    2.8023    1.5562    5.6367 C   0  0  1  0  0  0  0  0  0  0  0  0
    1.3377    0.5896    5.5364 C   0  0  0  0  0  0  0  0  0  0  0  0
    0.9698   -0.9400    5.5180 C   0  0  1  0  0  0  0  0  0  0  0  0
   -0.5504   -1.1654    5.0803 C   0  0  0  0  0  0  0  0  0  0  0  0
   -1.5926    0.0002    5.4103 C   0  0  1  0  0  0  0  0  0  0  0  0
   -1.7315    0.1454    6.7208 F   0  0  0  0  0  0  0  0  0  0  0  0
   -1.2141    1.3150    4.7040 C   0  0  0  0  0  0  0  0  0  0  0  0
   -1.0833    1.0780    3.3664 C   0  0  0  0  0  0  0  0  0  0  0  0
   -0.0179    1.5990    2.4193 C   0  0  0  0  0  0  0  0  0  0  0  0
    1.2940    2.0812    3.1135 C   0  0  2  0  0  0  0  0  0  0  0  0
    1.8234    2.9431    2.1071 O   0  0  0  0  0  0  0  0  0  0  0  0
    2.6245    0.9348    3.2660 C   0  0  2  0  0  0  0  0  0  0  0  0
    2.5374   -0.4514    2.5554 C   0  0  0  0  0  0  0  0  0  0  0  0
    2.0611   -1.5899    3.4614 C   0  0  0  0  0  0  0  0  0  0  0  0
    1.0835   -2.3502    2.9455 F   0  0  0  0  0  0  0  0  0  0  0  0
    2.1586   -1.5129    4.8117 C   0  0  0  0  0  0  0  0  0  0  0  0
    3.2898   -0.7773    5.5467 C   0  0  2  0  0  0  0  0  0  0  0  0
    2.9736   -0.7004    7.2368 C   0  0  0  0  0  0  0  0  0  0  0  0
    1.7617    0.1572    8.1556 C   0  0  0  0  0  0  0  0  0  0  0  0
    1.1362    1.7201    8.1090 C   0  0  0  0  0  0  0  0  0  0  0  0
    1.5832    2.4698    8.9707 O   0  0  0  0  0  0  0  0  0  0  0  0
   -0.0822    2.3942    7.1586 C   0  0  0  0  0  0  0  0  0  0  0  0
   -0.4622    2.5128    5.4595 C   0  0  2  0  0  0  0  0  0  0  0  0
   -1.6167    3.5544    5.5495 C   0  0  0  0  0  0  0  0  0  0  0  0
    0.6757    3.0486    4.3483 C   0  0  2  0  0  0  0  0  0  0  0  0
   -0.0105    3.9667    3.6598 F   0  0  0  0  0  0  0  0  0  0  0  0
    1.7846    3.9088    4.9180 C   0  0  1  0  0  0  0  0  0  0  0  0
    1.5036    4.5945    6.1225 O   0  0  0  0  0  0  0  0  0  0  0  0
    2.9906    3.0318    5.0302 C   0  0  0  0  0  0  0  0  0  0  0  0
    3.4220    0.6145    4.6962 C   0  0  2  0  0  0  0  0  0  0  0  0
    4.8066    0.8185    4.4797 O   0  0  0  0  0  0  0  0  0  0  0  0
    3.8911    1.3432    7.7810 H   0  0  0  0  0  0  0  0  0  0  0  0
    3.5031    2.8658    7.3484 H   0  0  0  0  0  0  0  0  0  0  0  0
    4.8155    2.0575    6.5714 H   0  0  0  0  0  0  0  0  0  0  0  0
    0.5755    0.5654    6.2170 H   0  0  0  0  0  0  0  0  0  0  0  0
    0.9140    0.5440    4.6032 H   0  0  0  0  0  0  0  0  0  0  0  0
    0.9169   -1.4634    6.4641 H   0  0  0  0  0  0  0  0  0  0  0  0
   -0.6173   -1.3755    4.0214 H   0  0  0  0  0  0  0  0  0  0  0  0
   -0.9000   -2.0847    5.5465 H   0  0  0  0  0  0  0  0  0  0  0  0
   -2.5771   -0.2972    5.0478 H   0  0  0  0  0  0  0  0  0  0  0  0
   -1.5846    0.2217    2.9432 H   0  0  0  0  0  0  0  0  0  0  0  0
    0.1882    0.8218    1.6872 H   0  0  0  0  0  0  0  0  0  0  0  0
   -0.5093    2.3890    1.8530 H   0  0  0  0  0  0  0  0  0  0  0  0
    1.1158    3.4791    1.7244 H   0  0  0  0  0  0  0  0  0  0  0  0
    3.3944    1.4027    2.6499 H   0  0  0  0  0  0  0  0  0  0  0  0
    1.9286   -0.4056    1.6533 H   0  0  0  0  0  0  0  0  0  0  0  0
    3.5328   -0.7302    2.2070 H   0  0  0  0  0  0  0  0  0  0  0  0
    4.1820   -1.3796    5.3825 H   0  0  0  0  0  0  0  0  0  0  0  0
    2.7749   -1.7407    7.4987 H   0  0  0  0  0  0  0  0  0  0  0  0
    3.9386   -0.6268    7.7358 H   0  0  0  0  0  0  0  0  0  0  0  0
    0.8787   -0.4751    8.2304 H   0  0  0  0  0  0  0  0  0  0  0  0
    2.1491    0.1010    9.1730 H   0  0  0  0  0  0  0  0  0  0  0  0
   -0.9856    2.0382    7.6482 H   0  0  0  0  0  0  0  0  0  0  0  0
   -0.0626    3.4262    7.5041 H   0  0  0  0  0  0  0  0  0  0  0  0
   -1.2644    4.5346    5.8726 H   0  0  0  0  0  0  0  0  0  0  0  0
   -2.3918    3.2353    6.2484 H   0  0  0  0  0  0  0  0  0  0  0  0
   -2.1313    3.6917    4.5956 H   0  0  0  0  0  0  0  0  0  0  0  0
    2.0418    4.6918    4.2004 H   0  0  0  0  0  0  0  0  0  0  0  0
    2.2260    5.1692    6.3210 H   0  0  0  0  0  0  0  0  0  0  0  0
    3.7551    3.6575    5.4944 H   0  0  0  0  0  0  0  0  0  0  0  0
    3.4803    3.0328    4.0613 H   0  0  0  0  0  0  0  0  0  0  0  0
    4.9121    1.5994    3.9577 H   0  0  0  0  0  0  0  0  0  0  0  0
  2  1  1  1
  1 33  1  0
  1 34  1  0
  1 35  1  0
  2 30  1  0
  2 31  1  0
  2  3  1  0
  3  4  1  0
  3 36  1  0
  3 37  1  0
  4 17  1  0
  4  5  1  0
  4 38  1  1
  5  6  1  0
  5 39  1  0
  5 40  1  0
  6  7  1  0
  6  8  1  0
  6 41  1  6
  8 24  1  0
  8  9  2  0
  9 10  1  0
  9 42  1  0
 10 11  1  0
 10 43  1  0
 10 44  1  0
 11 26  1  0
 11 12  1  6
 11 13  1  0
 12 45  1  0
 13 31  1  0
 13 14  1  0
 13 46  1  6
 14 15  1  0
 14 47  1  0
 14 48  1  0
 15 16  1  0
 15 17  2  0
 17 18  1  0
 18 19  1  0
 18 31  1  0
 18 49  1  1
 19 20  1  0
 19 50  1  0
 19 51  1  0
 20 21  1  0
 20 52  1  0
 20 53  1  0
 21 22  2  0
 21 23  1  0
 23 24  1  0
 23 54  1  0
 23 55  1  0
 24 25  1  1
 24 26  1  0
 25 56  1  0
 25 57  1  0
 25 58  1  0
 26 27  1  6
 26 28  1  0
 28 29  1  0
 28 30  1  0
 28 59  1  6
 29 60  1  0
 30 61  1  0
 30 62  1  0
 31 32  1  6
 32 63  1  0
M  END
>  <i_m_ct_stereo_status>  (141) 
1

>  <s_m_source_file>  (141) 
/var/tmp/pbs.5076255.sched01/tmpscvaj2_a/3886avry94.sdf

>  <i_m_source_file_index>  (141) 
25

>  <i_lp_mmshare_version>  (141) 
48012

>  <i_f3d_flags>  (141) 
1

>  <s_epik_input>  (141) 
W0NIM11bQ0BAXTEyW0NAXTMoW09IXSlbQ0BASF00W0NAXTUoW09IXSlbQ0BdKEYpKFtDQEBIXShbT0hdKVtDSDJdMilbQ0BAXTYoW0NIM10pQyg9W0NIXVtDSDJdNSlbQ0BIXShGKVtDSDJdW0NIXShbQ0gyXTEpQyg9QyhGKVtDSDJdNClbQ0BASF0zW0NIMl1bQ0gyXUMoPU8pW0NIMl02

>  <s_epik_cmdline>  (141) 
J2VwaWtfcHl0aG9uJywgJy1waHQnLCAnMi4wJywgJy1waCcsICc3LjAnLCAnLXRuJywgJzgnLCAnLW1hJywgJzIwMCcsICctaW1hZScsICc8aW5maWxlLm1hZT4nLCAnLW9tYWUnLCAnPG91dGZpbGUubWFlPic=

>  <r_lp_tautomer_probability>  (141) 
1

>  <r_epik_Ionization_Penalty>  (141) 
8.95451e-07

>  <r_epik_Ionization_Penalty_Charging>  (141) 
0

>  <r_epik_Ionization_Penalty_Neutral>  (141) 
8.95451e-07

>  <r_epik_State_Penalty>  (141) 
-0

>  <r_epik_Charging_Adjusted_Penalty>  (141) 
0

>  <i_epik_Tot_Q>  (141) 
0

>  <i_epik_Tot_abs_Q>  (141) 
0

>  <s_lp_Force_Field>  (141) 
OPLS3e

>  <r_lp_Energy>  (141) 
535.856

>  <b_lp_Chiralities_Consistent>  (141) 
1

>  <s_lp_Variant>  (141) 
50:0-2

>  <s_i_glide_gridfile>  (141) 
pfpi4k_grid

>  <i_i_glide_lignum>  (141) 
25

>  <i_i_glide_rotatable_bonds>  (141) 
3

>  <r_i_docking_score>  (141) 
-2.95539

>  <r_i_glide_ligand_efficiency>  (141) 
-0.0923558

>  <r_i_glide_ligand_efficiency_sa>  (141) 
-0.293211

>  <r_i_glide_ligand_efficiency_ln>  (141) 
-0.661792

>  <r_i_glide_gscore>  (141) 
-2.95539

>  <r_i_glide_lipo>  (141) 
-0.00183719

>  <r_i_glide_hbond>  (141) 
-0.301714

>  <r_i_glide_metal>  (141) 
-0

>  <r_i_glide_rewards>  (141) 
-0.35953

>  <r_i_glide_evdw>  (141) 
-20.4315

>  <r_i_glide_ecoul>  (141) 
-7.1382

>  <r_i_glide_erotb>  (141) 
0

>  <r_i_glide_esite>  (141) 
-0.2

>  <r_i_glide_emodel>  (141) 
-33.332

>  <r_i_glide_energy>  (141) 
-27.5697

>  <r_i_glide_einternal>  (141) 
0.611284

>  <r_i_glide_intrahb_reward>  (141) 
-0

>  <i_i_glide_confnum>  (141) 
2

>  <i_i_glide_posenum>  (141) 
27

>  <r_i_glide_eff_state_penalty>  (141) 
0

>  <ligand_id>  (141) 
50

>  <original_smiles>  (141) 
CC12CC3CC(F)C4=CCC5(O)C6CC(F)=C3C(CCC(=O)CC4(C)C5(F)C(O)C1)C62O

>  <smiles>  (141) 
[H]OC1([H])C([H])([H])C2(C([H])([H])[H])C([H])([H])C3([H])C4=C(F)C([H])([H])C5([H])C6(O[H])C([H])([H])C([H])=C(C([H])(F)C3([H])[H])C(C([H])([H])[H])(C([H])([H])C(=O)C([H])([H])C([H])([H])C4([H])C52O[H])C16F

$$$$
50:1:1
     RDKit          3D

 63 68  0  0  1  0  0  0  0  0999 V2000
    2.4461    3.5404    7.7309 C   0  0  0  0  0  0  0  0  0  0  0  0
    2.0170    2.7900    6.3564 C   0  0  1  0  0  0  0  0  0  0  0  0
    0.9617    1.4200    6.0465 C   0  0  0  0  0  0  0  0  0  0  0  0
    1.0269   -0.1455    6.1999 C   0  0  1  0  0  0  0  0  0  0  0  0
   -0.1737   -0.8637    5.4281 C   0  0  0  0  0  0  0  0  0  0  0  0
   -1.5365   -0.0456    5.2818 C   0  0  1  0  0  0  0  0  0  0  0  0
   -2.0933    0.1473    6.4761 F   0  0  0  0  0  0  0  0  0  0  0  0
   -1.3232    1.2549    4.4707 C   0  0  0  0  0  0  0  0  0  0  0  0
   -0.7447    0.9485    3.2752 C   0  0  0  0  0  0  0  0  0  0  0  0
    0.3857    1.6751    2.5559 C   0  0  0  0  0  0  0  0  0  0  0  0
    1.2616    2.5999    3.4670 C   0  0  2  0  0  0  0  0  0  0  0  0
    1.8138    3.4776    2.4923 O   0  0  0  0  0  0  0  0  0  0  0  0
    2.7349    1.9265    4.1654 C   0  0  2  0  0  0  0  0  0  0  0  0
    3.2325    0.5174    3.7153 C   0  0  0  0  0  0  0  0  0  0  0  0
    2.8171   -0.6250    4.6478 C   0  0  0  0  0  0  0  0  0  0  0  0
    2.2770   -1.6891    4.0305 F   0  0  0  0  0  0  0  0  0  0  0  0
    2.4815   -0.3957    5.9426 C   0  0  0  0  0  0  0  0  0  0  0  0
    3.1052    0.7109    6.8076 C   0  0  2  0  0  0  0  0  0  0  0  0
    2.2870    0.8445    8.3143 C   0  0  0  0  0  0  0  0  0  0  0  0
    0.6718    1.3799    8.7213 C   0  0  0  0  0  0  0  0  0  0  0  0
   -0.2965    2.6661    8.2321 C   0  0  0  0  0  0  0  0  0  0  0  0
   -0.3345    3.6127    9.0161 O   0  0  0  0  0  0  0  0  0  0  0  0
   -1.3051    2.8493    6.8992 C   0  0  0  0  0  0  0  0  0  0  0  0
   -1.1702    2.6929    5.1690 C   0  0  2  0  0  0  0  0  0  0  0  0
   -2.5166    3.3448    4.7623 C   0  0  0  0  0  0  0  0  0  0  0  0
    0.0659    3.4401    4.3129 C   0  0  2  0  0  0  0  0  0  0  0  0
   -0.5929    4.0372    3.3143 F   0  0  0  0  0  0  0  0  0  0  0  0
    0.6818    4.6472    4.9956 C   0  0  1  0  0  0  0  0  0  0  0  0
   -0.1193    5.3365    5.9409 O   0  0  0  0  0  0  0  0  0  0  0  0
    1.9841    4.1915    5.5709 C   0  0  0  0  0  0  0  0  0  0  0  0
    3.1187    1.9929    5.7909 C   0  0  2  0  0  0  0  0  0  0  0  0
    4.3996    2.5857    5.9219 O   0  0  0  0  0  0  0  0  0  0  0  0
    2.4296    3.1112    8.7129 H   0  0  0  0  0  0  0  0  0  0  0  0
    1.8082    4.4021    7.9348 H   0  0  0  0  0  0  0  0  0  0  0  0
    3.4535    3.9562    7.6817 H   0  0  0  0  0  0  0  0  0  0  0  0
    0.0637    1.2271    6.4983 H   0  0  0  0  0  0  0  0  0  0  0  0
    0.8653    1.1613    5.0566 H   0  0  0  0  0  0  0  0  0  0  0  0
    0.8333   -0.5693    7.1770 H   0  0  0  0  0  0  0  0  0  0  0  0
    0.1337   -1.1719    4.4388 H   0  0  0  0  0  0  0  0  0  0  0  0
   -0.3903   -1.7968    5.9390 H   0  0  0  0  0  0  0  0  0  0  0  0
   -2.2528   -0.6505    4.7251 H   0  0  0  0  0  0  0  0  0  0  0  0
   -0.8404   -0.0543    2.8891 H   0  0  0  0  0  0  0  0  0  0  0  0
    1.0009    0.9329    2.0571 H   0  0  0  0  0  0  0  0  0  0  0  0
   -0.0959    2.2148    1.7417 H   0  0  0  0  0  0  0  0  0  0  0  0
    1.1178    3.7793    1.8937 H   0  0  0  0  0  0  0  0  0  0  0  0
    3.5018    2.5495    3.7020 H   0  0  0  0  0  0  0  0  0  0  0  0
    2.9322    0.2963    2.6928 H   0  0  0  0  0  0  0  0  0  0  0  0
    4.3224    0.5242    3.6979 H   0  0  0  0  0  0  0  0  0  0  0  0
    4.1307    0.3927    6.9901 H   0  0  0  0  0  0  0  0  0  0  0  0
    2.2979   -0.1770    8.6940 H   0  0  0  0  0  0  0  0  0  0  0  0
    3.0018    1.2524    9.0270 H   0  0  0  0  0  0  0  0  0  0  0  0
    0.0076    0.5182    8.6726 H   0  0  0  0  0  0  0  0  0  0  0  0
    0.7346    1.5344    9.7984 H   0  0  0  0  0  0  0  0  0  0  0  0
   -2.1827    2.2760    7.1828 H   0  0  0  0  0  0  0  0  0  0  0  0
   -1.6741    3.8596    7.0516 H   0  0  0  0  0  0  0  0  0  0  0  0
   -2.5212    4.4138    4.9657 H   0  0  0  0  0  0  0  0  0  0  0  0
   -3.3631    2.9179    5.2975 H   0  0  0  0  0  0  0  0  0  0  0  0
   -2.7421    3.2195    3.7010 H   0  0  0  0  0  0  0  0  0  0  0  0
    0.9318    5.4015    4.2449 H   0  0  0  0  0  0  0  0  0  0  0  0
   -0.2276    4.7819    6.6986 H   0  0  0  0  0  0  0  0  0  0  0  0
    2.3797    5.0575    6.1029 H   0  0  0  0  0  0  0  0  0  0  0  0
    2.7238    4.2500    4.7798 H   0  0  0  0  0  0  0  0  0  0  0  0
    4.3990    3.4051    5.4547 H   0  0  0  0  0  0  0  0  0  0  0  0
  2  1  1  1
  1 33  1  0
  1 34  1  0
  1 35  1  0
  2 30  1  0
  2 31  1  0
  2  3  1  0
  3  4  1  0
  3 36  1  0
  3 37  1  0
  4 17  1  0
  4  5  1  0
  4 38  1  1
  5  6  1  0
  5 39  1  0
  5 40  1  0
  6  7  1  0
  6  8  1  0
  6 41  1  6
  8 24  1  0
  8  9  2  0
  9 10  1  0
  9 42  1  0
 10 11  1  0
 10 43  1  0
 10 44  1  0
 11 26  1  0
 11 12  1  6
 11 13  1  0
 12 45  1  0
 13 31  1  0
 13 14  1  0
 13 46  1  6
 14 15  1  0
 14 47  1  0
 14 48  1  0
 15 16  1  0
 15 17  2  0
 17 18  1  0
 18 19  1  0
 18 31  1  0
 18 49  1  1
 19 20  1  0
 19 50  1  0
 19 51  1  0
 20 21  1  0
 20 52  1  0
 20 53  1  0
 21 22  2  0
 21 23  1  0
 23 24  1  0
 23 54  1  0
 23 55  1  0
 24 25  1  6
 24 26  1  0
 25 56  1  0
 25 57  1  0
 25 58  1  0
 26 27  1  6
 26 28  1  0
 28 29  1  0
 28 30  1  0
 28 59  1  6
 29 60  1  0
 30 61  1  0
 30 62  1  0
 31 32  1  6
 32 63  1  0
M  END
>  <i_m_ct_stereo_status>  (142) 
1

>  <s_m_source_file>  (142) 
/var/tmp/pbs.5076255.sched01/tmpscvaj2_a/3886avry94.sdf

>  <i_m_source_file_index>  (142) 
25

>  <i_lp_mmshare_version>  (142) 
48012

>  <i_f3d_flags>  (142) 
1

>  <s_epik_input>  (142) 
W0NIM11bQ0BAXTEyW0NAXTMoW09IXSlbQ0BASF00W0NAXTUoW09IXSlbQ0BdKEYpKFtDQEBIXShbT0hdKVtDSDJdMilbQ0BAXTYoW0NIM10pQyg9W0NIXVtDSDJdNSlbQ0BIXShGKVtDSDJdW0NIXShbQ0gyXTEpQyg9QyhGKVtDSDJdNClbQ0BASF0zW0NIMl1bQ0gyXUMoPU8pW0NIMl02

>  <s_epik_cmdline>  (142) 
J2VwaWtfcHl0aG9uJywgJy1waHQnLCAnMi4wJywgJy1waCcsICc3LjAnLCAnLXRuJywgJzgnLCAnLW1hJywgJzIwMCcsICctaW1hZScsICc8aW5maWxlLm1hZT4nLCAnLW9tYWUnLCAnPG91dGZpbGUubWFlPic=

>  <r_lp_tautomer_probability>  (142) 
1

>  <r_epik_Ionization_Penalty>  (142) 
8.95451e-07

>  <r_epik_Ionization_Penalty_Charging>  (142) 
0

>  <r_epik_Ionization_Penalty_Neutral>  (142) 
8.95451e-07

>  <r_epik_State_Penalty>  (142) 
-0

>  <r_epik_Charging_Adjusted_Penalty>  (142) 
0

>  <i_epik_Tot_Q>  (142) 
0

>  <i_epik_Tot_abs_Q>  (142) 
0

>  <s_lp_Force_Field>  (142) 
OPLS3e

>  <r_lp_Energy>  (142) 
535.856

>  <b_lp_Chiralities_Consistent>  (142) 
1

>  <s_lp_Variant>  (142) 
50:0-2

>  <s_i_glide_gridfile>  (142) 
pfpi4k_grid

>  <i_i_glide_lignum>  (142) 
25

>  <i_i_glide_rotatable_bonds>  (142) 
3

>  <r_i_docking_score>  (142) 
-2.84539

>  <r_i_glide_ligand_efficiency>  (142) 
-0.0889185

>  <r_i_glide_ligand_efficiency_sa>  (142) 
-0.282299

>  <r_i_glide_ligand_efficiency_ln>  (142) 
-0.637161

>  <r_i_glide_gscore>  (142) 
-2.84539

>  <r_i_glide_lipo>  (142) 
-0.0227266

>  <r_i_glide_hbond>  (142) 
-0.16

>  <r_i_glide_metal>  (142) 
-0

>  <r_i_glide_rewards>  (142) 
-0.32382

>  <r_i_glide_evdw>  (142) 
-21.1921

>  <r_i_glide_ecoul>  (142) 
-7.19101

>  <r_i_glide_erotb>  (142) 
0

>  <r_i_glide_esite>  (142) 
-0.200589

>  <r_i_glide_emodel>  (142) 
-34.1798

>  <r_i_glide_energy>  (142) 
-28.3831

>  <r_i_glide_einternal>  (142) 
0.150447

>  <r_i_glide_intrahb_reward>  (142) 
-0

>  <i_i_glide_confnum>  (142) 
1

>  <i_i_glide_posenum>  (142) 
9

>  <r_i_glide_eff_state_penalty>  (142) 
0

>  <ligand_id>  (142) 
50

>  <original_smiles>  (142) 
CC12CC3CC(F)C4=CCC5(O)C6CC(F)=C3C(CCC(=O)CC4(C)C5(F)C(O)C1)C62O

>  <smiles>  (142) 
[H]OC1([H])C([H])([H])C2(C([H])([H])[H])C([H])([H])C3([H])C4=C(F)C([H])([H])C5([H])C6(O[H])C([H])([H])C([H])=C(C([H])(F)C3([H])[H])C(C([H])([H])[H])(C([H])([H])C(=O)C([H])([H])C([H])([H])C4([H])C52O[H])C16F

$$$$
50:1:2
     RDKit          3D

 63 68  0  0  1  0  0  0  0  0999 V2000
    2.9277    4.2485    6.8993 C   0  0  0  0  0  0  0  0  0  0  0  0
    1.9457    3.4856    5.8534 C   0  0  1  0  0  0  0  0  0  0  0  0
    1.3826    1.8230    5.7720 C   0  0  0  0  0  0  0  0  0  0  0  0
    1.9729    0.4311    5.3325 C   0  0  1  0  0  0  0  0  0  0  0  0
    0.8280   -0.6730    5.1964 C   0  0  0  0  0  0  0  0  0  0  0  0
   -0.4598   -0.5075    6.1270 C   0  0  1  0  0  0  0  0  0  0  0  0
   -0.1401   -0.6666    7.4100 F   0  0  0  0  0  0  0  0  0  0  0  0
   -1.2109    0.8114    5.8276 C   0  0  0  0  0  0  0  0  0  0  0  0
   -1.4908    0.8729    4.4936 C   0  0  0  0  0  0  0  0  0  0  0  0
   -1.3742    2.0696    3.5538 C   0  0  0  0  0  0  0  0  0  0  0  0
   -0.4150    3.2073    4.0426 C   0  0  2  0  0  0  0  0  0  0  0  0
   -0.9064    4.3153    3.2853 O   0  0  0  0  0  0  0  0  0  0  0  0
    1.2627    3.1727    3.5159 C   0  0  2  0  0  0  0  0  0  0  0  0
    1.7028    2.1451    2.4345 C   0  0  0  0  0  0  0  0  0  0  0  0
    2.3517    0.8733    2.9883 C   0  0  0  0  0  0  0  0  0  0  0  0
    1.8691   -0.2740    2.4827 F   0  0  0  0  0  0  0  0  0  0  0  0
    2.8960    0.8443    4.2301 C   0  0  0  0  0  0  0  0  0  0  0  0
    3.5860    2.0460    4.8936 C   0  0  2  0  0  0  0  0  0  0  0  0
    3.9587    1.7103    6.5390 C   0  0  0  0  0  0  0  0  0  0  0  0
    2.9386    1.4707    7.9371 C   0  0  0  0  0  0  0  0  0  0  0  0
    1.5777    2.2499    8.5467 C   0  0  0  0  0  0  0  0  0  0  0  0
    1.8035    3.0286    9.4742 O   0  0  0  0  0  0  0  0  0  0  0  0
   -0.0557    2.0814    8.1743 C   0  0  0  0  0  0  0  0  0  0  0  0
   -1.0495    2.1221    6.7410 C   0  0  2  0  0  0  0  0  0  0  0  0
   -2.4416    2.1701    7.4341 C   0  0  0  0  0  0  0  0  0  0  0  0
   -0.9480    3.3861    5.6352 C   0  0  2  0  0  0  0  0  0  0  0  0
   -2.2308    3.7193    5.4437 F   0  0  0  0  0  0  0  0  0  0  0  0
   -0.4025    4.6800    6.2025 C   0  0  1  0  0  0  0  0  0  0  0  0
   -0.5465    4.9025    7.5903 O   0  0  0  0  0  0  0  0  0  0  0  0
    1.0162    4.7901    5.7451 C   0  0  0  0  0  0  0  0  0  0  0  0
    2.5725    3.2827    4.5418 C   0  0  2  0  0  0  0  0  0  0  0  0
    3.3875    4.3584    4.1095 O   0  0  0  0  0  0  0  0  0  0  0  0
    3.6810    3.7847    7.5064 H   0  0  0  0  0  0  0  0  0  0  0  0
    2.3700    4.7351    7.7004 H   0  0  0  0  0  0  0  0  0  0  0  0
    3.4838    5.0586    6.4250 H   0  0  0  0  0  0  0  0  0  0  0  0
    1.1007    1.2325    6.5568 H   0  0  0  0  0  0  0  0  0  0  0  0
    0.7410    1.6250    4.9957 H   0  0  0  0  0  0  0  0  0  0  0  0
    2.5902   -0.1056    6.0413 H   0  0  0  0  0  0  0  0  0  0  0  0
    0.4846   -0.7514    4.1718 H   0  0  0  0  0  0  0  0  0  0  0  0
    1.2749   -1.6472    5.3972 H   0  0  0  0  0  0  0  0  0  0  0  0
   -1.1372   -1.3304    5.9043 H   0  0  0  0  0  0  0  0  0  0  0  0
   -1.5297   -0.0469    3.9292 H   0  0  0  0  0  0  0  0  0  0  0  0
   -1.0651    1.6960    2.5797 H   0  0  0  0  0  0  0  0  0  0  0  0
   -2.3946    2.4277    3.4004 H   0  0  0  0  0  0  0  0  0  0  0  0
   -0.5937    4.2380    2.3732 H   0  0  0  0  0  0  0  0  0  0  0  0
    1.3313    4.0904    2.9288 H   0  0  0  0  0  0  0  0  0  0  0  0
    0.8899    1.8909    1.7551 H   0  0  0  0  0  0  0  0  0  0  0  0
    2.4521    2.6178    1.8048 H   0  0  0  0  0  0  0  0  0  0  0  0
    4.5169    2.1771    4.3475 H   0  0  0  0  0  0  0  0  0  0  0  0
    4.5029    0.7662    6.4797 H   0  0  0  0  0  0  0  0  0  0  0  0
    4.8125    2.3342    6.8030 H   0  0  0  0  0  0  0  0  0  0  0  0
    2.6809    0.4130    7.9935 H   0  0  0  0  0  0  0  0  0  0  0  0
    3.6439    1.5584    8.7654 H   0  0  0  0  0  0  0  0  0  0  0  0
   -0.3196    1.1652    8.6992 H   0  0  0  0  0  0  0  0  0  0  0  0
   -0.4995    2.8217    8.8390 H   0  0  0  0  0  0  0  0  0  0  0  0
   -2.6167    3.1033    7.9707 H   0  0  0  0  0  0  0  0  0  0  0  0
   -2.5568    1.3532    8.1494 H   0  0  0  0  0  0  0  0  0  0  0  0
   -3.2638    2.0567    6.7277 H   0  0  0  0  0  0  0  0  0  0  0  0
   -0.9266    5.5181    5.7419 H   0  0  0  0  0  0  0  0  0  0  0  0
   -0.0531    4.2423    8.0588 H   0  0  0  0  0  0  0  0  0  0  0  0
    1.3897    5.7053    6.2108 H   0  0  0  0  0  0  0  0  0  0  0  0
    1.0037    5.2202    4.7484 H   0  0  0  0  0  0  0  0  0  0  0  0
    2.8308    5.0618    3.8045 H   0  0  0  0  0  0  0  0  0  0  0  0
  2  1  1  1
  1 33  1  0
  1 34  1  0
  1 35  1  0
  2 30  1  0
  2 31  1  0
  2  3  1  0
  3  4  1  0
  3 36  1  0
  3 37  1  0
  4 17  1  0
  4  5  1  0
  4 38  1  1
  5  6  1  0
  5 39  1  0
  5 40  1  0
  6  7  1  0
  6  8  1  0
  6 41  1  6
  8 24  1  0
  8  9  2  0
  9 10  1  0
  9 42  1  0
 10 11  1  0
 10 43  1  0
 10 44  1  0
 11 26  1  0
 11 12  1  6
 11 13  1  0
 12 45  1  0
 13 31  1  0
 13 14  1  0
 13 46  1  6
 14 15  1  0
 14 47  1  0
 14 48  1  0
 15 16  1  0
 15 17  2  0
 17 18  1  0
 18 19  1  0
 18 31  1  0
 18 49  1  6
 19 20  1  0
 19 50  1  0
 19 51  1  0
 20 21  1  0
 20 52  1  0
 20 53  1  0
 21 22  2  0
 21 23  1  0
 23 24  1  0
 23 54  1  0
 23 55  1  0
 24 25  1  1
 24 26  1  0
 25 56  1  0
 25 57  1  0
 25 58  1  0
 26 27  1  6
 26 28  1  0
 28 29  1  0
 28 30  1  0
 28 59  1  6
 29 60  1  0
 30 61  1  0
 30 62  1  0
 31 32  1  6
 32 63  1  0
M  END
>  <i_m_ct_stereo_status>  (143) 
1

>  <s_m_source_file>  (143) 
/var/tmp/pbs.5076255.sched01/tmpscvaj2_a/3886avry94.sdf

>  <i_m_source_file_index>  (143) 
25

>  <i_lp_mmshare_version>  (143) 
48012

>  <i_f3d_flags>  (143) 
1

>  <s_epik_input>  (143) 
W0NIM11bQ0BAXTEyW0NAXTMoW09IXSlbQ0BASF00W0NAXTUoW09IXSlbQ0BdKEYpKFtDQEBIXShbT0hdKVtDSDJdMilbQ0BAXTYoW0NIM10pQyg9W0NIXVtDSDJdNSlbQ0BIXShGKVtDSDJdW0NIXShbQ0gyXTEpQyg9QyhGKVtDSDJdNClbQ0BASF0zW0NIMl1bQ0gyXUMoPU8pW0NIMl02

>  <s_epik_cmdline>  (143) 
J2VwaWtfcHl0aG9uJywgJy1waHQnLCAnMi4wJywgJy1waCcsICc3LjAnLCAnLXRuJywgJzgnLCAnLW1hJywgJzIwMCcsICctaW1hZScsICc8aW5maWxlLm1hZT4nLCAnLW9tYWUnLCAnPG91dGZpbGUubWFlPic=

>  <r_lp_tautomer_probability>  (143) 
1

>  <r_epik_Ionization_Penalty>  (143) 
8.95451e-07

>  <r_epik_Ionization_Penalty_Charging>  (143) 
0

>  <r_epik_Ionization_Penalty_Neutral>  (143) 
8.95451e-07

>  <r_epik_State_Penalty>  (143) 
-0

>  <r_epik_Charging_Adjusted_Penalty>  (143) 
0

>  <i_epik_Tot_Q>  (143) 
0

>  <i_epik_Tot_abs_Q>  (143) 
0

>  <s_lp_Force_Field>  (143) 
OPLS3e

>  <r_lp_Energy>  (143) 
535.856

>  <b_lp_Chiralities_Consistent>  (143) 
1

>  <s_lp_Variant>  (143) 
50:0-2

>  <s_i_glide_gridfile>  (143) 
pfpi4k_grid

>  <i_i_glide_lignum>  (143) 
25

>  <i_i_glide_rotatable_bonds>  (143) 
3

>  <r_i_docking_score>  (143) 
-2.69982

>  <r_i_glide_ligand_efficiency>  (143) 
-0.0843693

>  <r_i_glide_ligand_efficiency_sa>  (143) 
-0.267856

>  <r_i_glide_ligand_efficiency_ln>  (143) 
-0.604563

>  <r_i_glide_gscore>  (143) 
-2.69982

>  <r_i_glide_lipo>  (143) 
0

>  <r_i_glide_hbond>  (143) 
-0.16

>  <r_i_glide_metal>  (143) 
-0

>  <r_i_glide_rewards>  (143) 
-0.32382

>  <r_i_glide_evdw>  (143) 
-23.4171

>  <r_i_glide_ecoul>  (143) 
-6.26347

>  <r_i_glide_erotb>  (143) 
0

>  <r_i_glide_esite>  (143) 
-0.105622

>  <r_i_glide_emodel>  (143) 
-35.0199

>  <r_i_glide_energy>  (143) 
-29.6806

>  <r_i_glide_einternal>  (143) 
0.352743

>  <r_i_glide_intrahb_reward>  (143) 
-0

>  <i_i_glide_confnum>  (143) 
1

>  <i_i_glide_posenum>  (143) 
1

>  <r_i_glide_eff_state_penalty>  (143) 
0

>  <ligand_id>  (143) 
50

>  <original_smiles>  (143) 
CC12CC3CC(F)C4=CCC5(O)C6CC(F)=C3C(CCC(=O)CC4(C)C5(F)C(O)C1)C62O

>  <smiles>  (143) 
[H]OC1([H])C([H])([H])C2(C([H])([H])[H])C([H])([H])C3([H])C4=C(F)C([H])([H])C5([H])C6(O[H])C([H])([H])C([H])=C(C([H])(F)C3([H])[H])C(C([H])([H])[H])(C([H])([H])C(=O)C([H])([H])C([H])([H])C4([H])C52O[H])C16F

$$$$
51:0:0
     RDKit          3D

 71 76  0  0  1  0  0  0  0  0999 V2000
    3.8142   -2.0088   -0.5414 C   0  0  0  0  0  0  0  0  0  0  0  0
    4.3785   -3.3924   -0.1955 C   0  0  2  0  0  0  0  0  0  0  0  0
    3.3008   -4.4531   -0.0645 C   0  0  0  0  0  0  0  0  0  0  0  0
    3.0016   -4.5301    1.4457 C   0  0  1  0  0  0  0  0  0  0  0  0
    2.5591   -5.9484    1.9838 C   0  0  1  0  0  0  0  0  0  0  0  0
    1.3973   -6.2242    1.2043 O   0  0  0  0  0  0  0  0  0  0  0  0
    3.7103   -7.0143    1.6542 C   0  0  0  0  0  0  0  0  0  0  0  0
    3.6948   -8.2453    2.6114 C   0  0  1  0  0  0  0  0  0  0  0  0
    3.1697   -9.7047    2.4204 C   0  0  1  0  0  0  0  0  0  0  0  0
    4.2291  -10.6358    2.4764 O   0  0  0  0  0  0  0  0  0  0  0  0
    2.0162  -10.0040    3.4859 C   0  0  1  0  0  0  0  0  0  0  0  0
    2.5296  -10.6446    4.6416 O   0  0  0  0  0  0  0  0  0  0  0  0
    3.2689   -9.8595    5.5036 C   0  0  0  0  0  0  0  0  0  0  0  0
    4.0997   -8.9912    4.8312 O   0  0  0  0  0  0  0  0  0  0  0  0
    3.5932   -7.8543    4.1139 C   0  0  1  0  0  0  0  0  0  0  0  0
    4.6008   -6.8354    4.8152 C   0  0  1  0  0  0  0  0  0  0  0  0
    5.3196   -5.9242    3.9985 O   0  0  0  0  0  0  0  0  0  0  0  0
    4.0597   -6.2585    6.1424 C   0  0  2  0  0  0  0  0  0  0  0  0
    2.7619   -5.5268    6.5386 C   0  0  2  0  0  0  0  0  0  0  0  0
    1.4321   -5.1500    5.8187 C   0  0  0  0  0  0  0  0  0  0  0  0
    1.2727   -4.9954    4.2688 C   0  0  1  0  0  0  0  0  0  0  0  0
    1.5198   -3.6400    3.9464 O   0  0  0  0  0  0  0  0  0  0  0  0
    2.1877   -5.9842    3.5401 C   0  0  1  0  0  0  0  0  0  0  0  0
    2.0812   -7.4454    4.1956 C   0  0  2  0  0  0  0  0  0  0  0  0
    1.1368   -8.7401    3.8866 C   0  0  0  0  0  0  0  0  0  0  0  0
    0.0770   -8.6768    2.7081 C   0  0  0  0  0  0  0  0  0  0  0  0
    0.2303   -8.9647    5.1195 C   0  0  0  0  0  0  0  0  0  0  0  0
    4.0933   -4.7763    6.5845 C   0  0  0  0  0  0  0  0  0  0  0  0
    4.6911   -4.4570    7.9403 C   0  0  0  0  0  0  0  0  0  0  0  0
    4.3660   -3.6085    5.6586 C   0  0  0  0  0  0  0  0  0  0  0  0
    4.1995   -4.0546    2.0377 O   0  0  0  0  0  0  0  0  0  0  0  0
    4.9999   -3.4192    1.1899 C   0  0  0  0  0  0  0  0  0  0  0  0
    6.0955   -2.9055    1.4560 O   0  0  0  0  0  0  0  0  0  0  0  0
    4.5934   -1.2513   -0.5335 H   0  0  0  0  0  0  0  0  0  0  0  0
    3.0494   -1.7116    0.1756 H   0  0  0  0  0  0  0  0  0  0  0  0
    3.3514   -2.0109   -1.5242 H   0  0  0  0  0  0  0  0  0  0  0  0
    5.1106   -3.7110   -0.9385 H   0  0  0  0  0  0  0  0  0  0  0  0
    2.3967   -4.2292   -0.6390 H   0  0  0  0  0  0  0  0  0  0  0  0
    3.6987   -5.3892   -0.4596 H   0  0  0  0  0  0  0  0  0  0  0  0
    2.2244   -3.7907    1.6327 H   0  0  0  0  0  0  0  0  0  0  0  0
    1.1325   -7.1082    1.3752 H   0  0  0  0  0  0  0  0  0  0  0  0
    3.6405   -7.3547    0.6182 H   0  0  0  0  0  0  0  0  0  0  0  0
    4.6896   -6.5629    1.7162 H   0  0  0  0  0  0  0  0  0  0  0  0
    2.7194   -8.1685    2.1838 H   0  0  0  0  0  0  0  0  0  0  0  0
    2.7523   -9.8646    1.4105 H   0  0  0  0  0  0  0  0  0  0  0  0
    4.1469  -11.2606    1.7604 H   0  0  0  0  0  0  0  0  0  0  0  0
    1.3719  -10.7760    3.0550 H   0  0  0  0  0  0  0  0  0  0  0  0
    2.6910   -9.3540    6.2644 H   0  0  0  0  0  0  0  0  0  0  0  0
    3.9212  -10.5558    6.0352 H   0  0  0  0  0  0  0  0  0  0  0  0
    5.4766   -7.4129    5.1165 H   0  0  0  0  0  0  0  0  0  0  0  0
    4.7377   -5.2956    3.6273 H   0  0  0  0  0  0  0  0  0  0  0  0
    4.3572   -6.9497    6.9335 H   0  0  0  0  0  0  0  0  0  0  0  0
    2.4597   -5.8276    7.5435 H   0  0  0  0  0  0  0  0  0  0  0  0
    0.7293   -5.9333    6.1011 H   0  0  0  0  0  0  0  0  0  0  0  0
    1.0487   -4.2552    6.3051 H   0  0  0  0  0  0  0  0  0  0  0  0
    0.2337   -5.1978    4.0027 H   0  0  0  0  0  0  0  0  0  0  0  0
    1.3723   -3.5034    3.0362 H   0  0  0  0  0  0  0  0  0  0  0  0
    3.0398   -5.4654    3.8766 H   0  0  0  0  0  0  0  0  0  0  0  0
    1.4540   -7.2218    3.3771 H   0  0  0  0  0  0  0  0  0  0  0  0
   -0.5917   -7.8163    2.7710 H   0  0  0  0  0  0  0  0  0  0  0  0
   -0.5627   -9.5689    2.7001 H   0  0  0  0  0  0  0  0  0  0  0  0
    0.5483   -8.6594    1.7209 H   0  0  0  0  0  0  0  0  0  0  0  0
   -0.6241   -8.2863    5.1063 H   0  0  0  0  0  0  0  0  0  0  0  0
    0.7367   -8.7607    6.0604 H   0  0  0  0  0  0  0  0  0  0  0  0
   -0.1584   -9.9825    5.1581 H   0  0  0  0  0  0  0  0  0  0  0  0
    4.2656   -3.5400    8.3453 H   0  0  0  0  0  0  0  0  0  0  0  0
    5.7710   -4.3387    7.8664 H   0  0  0  0  0  0  0  0  0  0  0  0
    4.4910   -5.2616    8.6539 H   0  0  0  0  0  0  0  0  0  0  0  0
    3.9318   -2.6952    6.0667 H   0  0  0  0  0  0  0  0  0  0  0  0
    3.9402   -3.7580    4.6704 H   0  0  0  0  0  0  0  0  0  0  0  0
    5.4412   -3.4686    5.5404 H   0  0  0  0  0  0  0  0  0  0  0  0
  1  2  1  0
  1 34  1  0
  1 35  1  0
  1 36  1  0
  2 32  1  0
  2  3  1  0
  2 37  1  6
  3  4  1  0
  3 38  1  0
  3 39  1  0
  4  5  1  0
  4 31  1  0
  4 40  1  6
  5 23  1  0
  5  6  1  6
  5  7  1  0
  6 41  1  0
  7  8  1  0
  7 42  1  0
  7 43  1  0
  8 15  1  0
  8  9  1  0
  8 44  1  1
  9 10  1  0
  9 11  1  0
  9 45  1  6
 10 46  1  0
 11 25  1  0
 11 12  1  0
 11 47  1  6
 12 13  1  0
 13 14  1  0
 13 48  1  0
 13 49  1  0
 15 14  1  1
 15 24  1  0
 15 16  1  0
 16 17  1  0
 16 18  1  0
 16 50  1  1
 17 51  1  0
 18 28  1  0
 18 19  1  0
 18 52  1  1
 19 20  1  0
 19 28  1  0
 19 53  1  1
 20 21  1  0
 20 54  1  0
 20 55  1  0
 21 22  1  0
 21 23  1  0
 21 56  1  1
 22 57  1  0
 23 24  1  0
 23 58  1  1
 24 25  1  0
 24 59  1  1
 25 26  1  0
 25 27  1  0
 26 60  1  0
 26 61  1  0
 26 62  1  0
 27 63  1  0
 27 64  1  0
 27 65  1  0
 28 29  1  0
 28 30  1  0
 29 66  1  0
 29 67  1  0
 29 68  1  0
 30 69  1  0
 30 70  1  0
 30 71  1  0
 31 32  1  0
 32 33  2  0
M  END
>  <i_m_ct_stereo_status>  (144) 
1

>  <s_m_source_file>  (144) 
/var/tmp/pbs.5076255.sched01/tmpscvaj2_a/3886avry94.sdf

>  <i_m_source_file_index>  (144) 
26

>  <i_lp_mmshare_version>  (144) 
48012

>  <i_f3d_flags>  (144) 
0

>  <s_epik_input>  (144) 
W09IXVtDQEhdMVtDQEBIXShDMihbQ0gzXSlbQ0gzXSlbQ0BASF0yW0NIMl1bQ0BASF0oW09IXSlbQ0BIXShbQ0BdKFtPSF0pKFtDSDJdW0NAQEhdM0MxNDUpW0NAQEhdKE9DNj1PKVtDSDJdW0NASF02W0NIM10pW0NAQEhdNUMoW0NIM10pKFtDSDNdKVtDQEBIXShbQ0BASF0zW09IXSlPW0NIMl1PNA==

>  <s_epik_cmdline>  (144) 
J2VwaWtfcHl0aG9uJywgJy1waHQnLCAnMi4wJywgJy1waCcsICc3LjAnLCAnLXRuJywgJzgnLCAnLW1hJywgJzIwMCcsICctaW1hZScsICc8aW5maWxlLm1hZT4nLCAnLW9tYWUnLCAnPG91dGZpbGUubWFlPic=

>  <r_lp_tautomer_probability>  (144) 
1

>  <r_epik_Ionization_Penalty>  (144) 
1.02775e-06

>  <r_epik_Ionization_Penalty_Charging>  (144) 
0

>  <r_epik_Ionization_Penalty_Neutral>  (144) 
1.02775e-06

>  <r_epik_State_Penalty>  (144) 
-0

>  <r_epik_Charging_Adjusted_Penalty>  (144) 
0

>  <i_epik_Tot_Q>  (144) 
0

>  <i_epik_Tot_abs_Q>  (144) 
0

>  <s_epik_Chemistry_Notes>  (144) 
This compound has an ester and may undergo hydrolysis at high or low pH. This compound contains an acetal/aminal-like group ( X-CH(R)-Y where X, Y are N, S, or O) that may be acid/base labile, releasing an aldehyde.

>  <s_lp_Force_Field>  (144) 
OPLS3e

>  <r_lp_Energy>  (144) 
251.978

>  <b_lp_Chiralities_Consistent>  (144) 
1

>  <s_lp_Variant>  (144) 
51:0-1

>  <s_i_glide_gridfile>  (144) 
pfpi4k_grid

>  <i_i_glide_lignum>  (144) 
26

>  <i_i_glide_rotatable_bonds>  (144) 
5

>  <r_i_docking_score>  (144) 
-3.3144

>  <r_i_glide_ligand_efficiency>  (144) 
-0.100436

>  <r_i_glide_ligand_efficiency_sa>  (144) 
-0.322153

>  <r_i_glide_ligand_efficiency_ln>  (144) 
-0.737105

>  <r_i_glide_gscore>  (144) 
-3.3144

>  <r_i_glide_lipo>  (144) 
-0.107012

>  <r_i_glide_hbond>  (144) 
-0.0896251

>  <r_i_glide_metal>  (144) 
-0

>  <r_i_glide_rewards>  (144) 
-0.772709

>  <r_i_glide_evdw>  (144) 
-25.4239

>  <r_i_glide_ecoul>  (144) 
-7.60565

>  <r_i_glide_erotb>  (144) 
0.0926841

>  <r_i_glide_esite>  (144) 
-0.0256934

>  <r_i_glide_emodel>  (144) 
-44.7467

>  <r_i_glide_energy>  (144) 
-33.0295

>  <r_i_glide_einternal>  (144) 
1.82798

>  <r_i_glide_intrahb_reward>  (144) 
-0.5

>  <i_i_glide_confnum>  (144) 
2

>  <i_i_glide_posenum>  (144) 
26

>  <r_i_glide_eff_state_penalty>  (144) 
0

>  <ligand_id>  (144) 
51

>  <original_smiles>  (144) 
CC1CC(C2(O)CC3C(O)C4OCOC35C(O)C3C(CC(O)C2C5C4(C)C)C3(C)C)OC1=O

>  <smiles>  (144) 
[H]OC1([H])C([H])([H])C2([H])C([H])(C([H])(O[H])C34OC([H])([H])OC5([H])C([H])(O[H])C3([H])C([H])([H])C(O[H])(C3([H])OC(=O)C([H])(C([H])([H])[H])C3([H])[H])C1([H])C4([H])C5(C([H])([H])[H])C([H])([H])[H])C2(C([H])([H])[H])C([H])([H])[H]

$$$$
51:0:1
     RDKit          3D

 71 76  0  0  1  0  0  0  0  0999 V2000
    4.2102   -1.1837   -1.7979 C   0  0  0  0  0  0  0  0  0  0  0  0
    4.8276   -2.5176   -1.3685 C   0  0  2  0  0  0  0  0  0  0  0  0
    3.7919   -3.6170   -1.2113 C   0  0  0  0  0  0  0  0  0  0  0  0
    3.4383   -3.6344    0.2901 C   0  0  1  0  0  0  0  0  0  0  0  0
    3.0743   -5.0345    0.8684 C   0  0  1  0  0  0  0  0  0  0  0  0
    1.9398   -5.4446    0.0995 O   0  0  0  0  0  0  0  0  0  0  0  0
    4.2464   -6.0957    0.6060 C   0  0  0  0  0  0  0  0  0  0  0  0
    4.3002   -7.2783    1.6221 C   0  0  1  0  0  0  0  0  0  0  0  0
    3.8128   -8.7601    1.4837 C   0  0  1  0  0  0  0  0  0  0  0  0
    4.8942   -9.6753    1.5501 O   0  0  0  0  0  0  0  0  0  0  0  0
    2.6708   -9.0622    2.5638 C   0  0  1  0  0  0  0  0  0  0  0  0
    3.2026   -9.6299    3.7531 O   0  0  0  0  0  0  0  0  0  0  0  0
    3.9158   -8.7787    4.5759 C   0  0  0  0  0  0  0  0  0  0  0  0
    4.7122   -7.9144    3.8696 O   0  0  0  0  0  0  0  0  0  0  0  0
    4.1681   -6.8264    3.1053 C   0  0  1  0  0  0  0  0  0  0  0  0
    5.1296   -5.7478    3.7709 C   0  0  1  0  0  0  0  0  0  0  0  0
    5.8128   -4.8471    2.9236 O   0  0  0  0  0  0  0  0  0  0  0  0
    4.5617   -5.1246    5.0802 C   0  0  2  0  0  0  0  0  0  0  0  0
    3.2337   -4.4255    5.4421 C   0  0  2  0  0  0  0  0  0  0  0  0
    1.8949   -4.1330    4.6887 C   0  0  0  0  0  0  0  0  0  0  0  0
    1.7455   -4.0425    3.1415 C   0  0  1  0  0  0  0  0  0  0  0  0
    1.9101   -2.6924    2.7520 O   0  0  0  0  0  0  0  0  0  0  0  0
    2.6832   -5.0377    2.4384 C   0  0  1  0  0  0  0  0  0  0  0  0
    2.6377   -6.4700    3.1650 C   0  0  2  0  0  0  0  0  0  0  0  0
    1.7388   -7.8123    2.9103 C   0  0  0  0  0  0  0  0  0  0  0  0
    0.6836   -7.8368    1.7337 C   0  0  0  0  0  0  0  0  0  0  0  0
    0.8408   -8.0208    4.1523 C   0  0  0  0  0  0  0  0  0  0  0  0
    4.5246   -3.6306    5.4407 C   0  0  0  0  0  0  0  0  0  0  0  0
    5.1088   -3.2237    6.7864 C   0  0  0  0  0  0  0  0  0  0  0  0
    4.7500   -2.4879    4.4632 C   0  0  0  0  0  0  0  0  0  0  0  0
    4.5971   -3.0683    0.8855 O   0  0  0  0  0  0  0  0  0  0  0  0
    5.4046   -2.4327    0.0336 C   0  0  0  0  0  0  0  0  0  0  0  0
    6.4605   -1.8633    0.3022 O   0  0  0  0  0  0  0  0  0  0  0  0
    4.9482   -0.3825   -1.8050 H   0  0  0  0  0  0  0  0  0  0  0  0
    3.4093   -0.8961   -1.1167 H   0  0  0  0  0  0  0  0  0  0  0  0
    3.7812   -1.2552   -2.7949 H   0  0  0  0  0  0  0  0  0  0  0  0
    5.6031   -2.8316   -2.0658 H   0  0  0  0  0  0  0  0  0  0  0  0
    2.9012   -3.4602   -1.8248 H   0  0  0  0  0  0  0  0  0  0  0  0
    4.2553   -4.5512   -1.5417 H   0  0  0  0  0  0  0  0  0  0  0  0
    2.6184   -2.9341    0.4338 H   0  0  0  0  0  0  0  0  0  0  0  0
    2.1765   -5.4229   -0.8229 H   0  0  0  0  0  0  0  0  0  0  0  0
    4.1987   -6.4771   -0.4158 H   0  0  0  0  0  0  0  0  0  0  0  0
    5.2030   -5.5842    0.6480 H   0  0  0  0  0  0  0  0  0  0  0  0
    3.3170   -7.2568    1.1910 H   0  0  0  0  0  0  0  0  0  0  0  0
    3.4138   -8.9839    0.4879 H   0  0  0  0  0  0  0  0  0  0  0  0
    4.5957  -10.5384    1.2735 H   0  0  0  0  0  0  0  0  0  0  0  0
    2.0595   -9.8729    2.1650 H   0  0  0  0  0  0  0  0  0  0  0  0
    3.3117   -8.2475    5.3060 H   0  0  0  0  0  0  0  0  0  0  0  0
    4.5921   -9.4163    5.1459 H   0  0  0  0  0  0  0  0  0  0  0  0
    6.0257   -6.2715    4.1066 H   0  0  0  0  0  0  0  0  0  0  0  0
    6.2969   -5.3456    2.2804 H   0  0  0  0  0  0  0  0  0  0  0  0
    4.8794   -5.7752    5.8935 H   0  0  0  0  0  0  0  0  0  0  0  0
    2.9329   -4.6990    6.4525 H   0  0  0  0  0  0  0  0  0  0  0  0
    1.2216   -4.9298    5.0020 H   0  0  0  0  0  0  0  0  0  0  0  0
    1.4695   -3.2391    5.1407 H   0  0  0  0  0  0  0  0  0  0  0  0
    0.7195   -4.3060    2.8816 H   0  0  0  0  0  0  0  0  0  0  0  0
    2.7894   -2.4141    2.9597 H   0  0  0  0  0  0  0  0  0  0  0  0
    3.5290   -4.4765    2.7465 H   0  0  0  0  0  0  0  0  0  0  0  0
    2.0118   -6.3020    2.3344 H   0  0  0  0  0  0  0  0  0  0  0  0
   -0.0093   -6.9925    1.7625 H   0  0  0  0  0  0  0  0  0  0  0  0
    0.0770   -8.7411    1.7649 H   0  0  0  0  0  0  0  0  0  0  0  0
    1.1569   -7.8308    0.7556 H   0  0  0  0  0  0  0  0  0  0  0  0
   -0.0384   -7.3754    4.1045 H   0  0  0  0  0  0  0  0  0  0  0  0
    1.3288   -7.7574    5.0858 H   0  0  0  0  0  0  0  0  0  0  0  0
    0.4878   -9.0505    4.2284 H   0  0  0  0  0  0  0  0  0  0  0  0
    4.6439   -2.3034    7.1454 H   0  0  0  0  0  0  0  0  0  0  0  0
    6.1859   -3.0640    6.7032 H   0  0  0  0  0  0  0  0  0  0  0  0
    4.9370   -4.0032    7.5316 H   0  0  0  0  0  0  0  0  0  0  0  0
    4.2772   -1.5743    4.8312 H   0  0  0  0  0  0  0  0  0  0  0  0
    4.3555   -2.7050    3.4781 H   0  0  0  0  0  0  0  0  0  0  0  0
    5.8112   -2.3065    4.3507 H   0  0  0  0  0  0  0  0  0  0  0  0
  1  2  1  0
  1 34  1  0
  1 35  1  0
  1 36  1  0
  2 32  1  0
  2  3  1  0
  2 37  1  6
  3  4  1  0
  3 38  1  0
  3 39  1  0
  4  5  1  0
  4 31  1  0
  4 40  1  6
  5 23  1  0
  5  6  1  6
  5  7  1  0
  6 41  1  0
  7  8  1  0
  7 42  1  0
  7 43  1  0
  8 15  1  0
  8  9  1  0
  8 44  1  1
  9 10  1  0
  9 11  1  0
  9 45  1  6
 10 46  1  0
 11 25  1  0
 11 12  1  0
 11 47  1  6
 12 13  1  0
 13 14  1  0
 13 48  1  0
 13 49  1  0
 15 14  1  1
 15 24  1  0
 15 16  1  0
 16 17  1  0
 16 18  1  0
 16 50  1  1
 17 51  1  0
 18 28  1  0
 18 19  1  0
 18 52  1  1
 19 20  1  0
 19 28  1  0
 19 53  1  1
 20 21  1  0
 20 54  1  0
 20 55  1  0
 21 22  1  0
 21 23  1  0
 21 56  1  1
 22 57  1  0
 23 24  1  0
 23 58  1  1
 24 25  1  0
 24 59  1  1
 25 26  1  0
 25 27  1  0
 26 60  1  0
 26 61  1  0
 26 62  1  0
 27 63  1  0
 27 64  1  0
 27 65  1  0
 28 29  1  0
 28 30  1  0
 29 66  1  0
 29 67  1  0
 29 68  1  0
 30 69  1  0
 30 70  1  0
 30 71  1  0
 31 32  1  0
 32 33  2  0
M  END
>  <i_m_ct_stereo_status>  (145) 
1

>  <s_m_source_file>  (145) 
/var/tmp/pbs.5076255.sched01/tmpscvaj2_a/3886avry94.sdf

>  <i_m_source_file_index>  (145) 
26

>  <i_lp_mmshare_version>  (145) 
48012

>  <i_f3d_flags>  (145) 
0

>  <s_epik_input>  (145) 
W09IXVtDQEhdMVtDQEBIXShDMihbQ0gzXSlbQ0gzXSlbQ0BASF0yW0NIMl1bQ0BASF0oW09IXSlbQ0BIXShbQ0BdKFtPSF0pKFtDSDJdW0NAQEhdM0MxNDUpW0NAQEhdKE9DNj1PKVtDSDJdW0NASF02W0NIM10pW0NAQEhdNUMoW0NIM10pKFtDSDNdKVtDQEBIXShbQ0BASF0zW09IXSlPW0NIMl1PNA==

>  <s_epik_cmdline>  (145) 
J2VwaWtfcHl0aG9uJywgJy1waHQnLCAnMi4wJywgJy1waCcsICc3LjAnLCAnLXRuJywgJzgnLCAnLW1hJywgJzIwMCcsICctaW1hZScsICc8aW5maWxlLm1hZT4nLCAnLW9tYWUnLCAnPG91dGZpbGUubWFlPic=

>  <r_lp_tautomer_probability>  (145) 
1

>  <r_epik_Ionization_Penalty>  (145) 
1.02775e-06

>  <r_epik_Ionization_Penalty_Charging>  (145) 
0

>  <r_epik_Ionization_Penalty_Neutral>  (145) 
1.02775e-06

>  <r_epik_State_Penalty>  (145) 
-0

>  <r_epik_Charging_Adjusted_Penalty>  (145) 
0

>  <i_epik_Tot_Q>  (145) 
0

>  <i_epik_Tot_abs_Q>  (145) 
0

>  <s_epik_Chemistry_Notes>  (145) 
This compound has an ester and may undergo hydrolysis at high or low pH. This compound contains an acetal/aminal-like group ( X-CH(R)-Y where X, Y are N, S, or O) that may be acid/base labile, releasing an aldehyde.

>  <s_lp_Force_Field>  (145) 
OPLS3e

>  <r_lp_Energy>  (145) 
251.978

>  <b_lp_Chiralities_Consistent>  (145) 
1

>  <s_lp_Variant>  (145) 
51:0-1

>  <s_i_glide_gridfile>  (145) 
pfpi4k_grid

>  <i_i_glide_lignum>  (145) 
26

>  <i_i_glide_rotatable_bonds>  (145) 
5

>  <r_i_docking_score>  (145) 
-3.1895

>  <r_i_glide_ligand_efficiency>  (145) 
-0.0966515

>  <r_i_glide_ligand_efficiency_sa>  (145) 
-0.310013

>  <r_i_glide_ligand_efficiency_ln>  (145) 
-0.709328

>  <r_i_glide_gscore>  (145) 
-3.1895

>  <r_i_glide_lipo>  (145) 
-0.208805

>  <r_i_glide_hbond>  (145) 
-0.341413

>  <r_i_glide_metal>  (145) 
-0

>  <r_i_glide_rewards>  (145) 
-0.238943

>  <r_i_glide_evdw>  (145) 
-28.9679

>  <r_i_glide_ecoul>  (145) 
-6.95919

>  <r_i_glide_erotb>  (145) 
0.0926841

>  <r_i_glide_esite>  (145) 
-0.000748065

>  <r_i_glide_emodel>  (145) 
-43.0581

>  <r_i_glide_energy>  (145) 
-35.9271

>  <r_i_glide_einternal>  (145) 
0.866381

>  <r_i_glide_intrahb_reward>  (145) 
-0

>  <i_i_glide_confnum>  (145) 
2

>  <i_i_glide_posenum>  (145) 
27

>  <r_i_glide_eff_state_penalty>  (145) 
0

>  <ligand_id>  (145) 
51

>  <original_smiles>  (145) 
CC1CC(C2(O)CC3C(O)C4OCOC35C(O)C3C(CC(O)C2C5C4(C)C)C3(C)C)OC1=O

>  <smiles>  (145) 
[H]OC1([H])C([H])([H])C2([H])C([H])(C([H])(O[H])C34OC([H])([H])OC5([H])C([H])(O[H])C3([H])C([H])([H])C(O[H])(C3([H])OC(=O)C([H])(C([H])([H])[H])C3([H])[H])C1([H])C4([H])C5(C([H])([H])[H])C([H])([H])[H])C2(C([H])([H])[H])C([H])([H])[H]

$$$$
51:0:2
     RDKit          3D

 71 76  0  0  1  0  0  0  0  0999 V2000
    4.3811   -3.8322   -0.9085 C   0  0  0  0  0  0  0  0  0  0  0  0
    5.0591   -4.4682    0.3122 C   0  0  2  0  0  0  0  0  0  0  0  0
    4.8173   -5.9661    0.4087 C   0  0  0  0  0  0  0  0  0  0  0  0
    3.6127   -6.1134    1.3638 C   0  0  1  0  0  0  0  0  0  0  0  0
    3.6067   -7.4129    2.2517 C   0  0  1  0  0  0  0  0  0  0  0  0
    3.6665   -8.4416    1.2768 O   0  0  0  0  0  0  0  0  0  0  0  0
    4.9398   -7.4610    3.1407 C   0  0  0  0  0  0  0  0  0  0  0  0
    4.7889   -8.3225    4.4342 C   0  0  1  0  0  0  0  0  0  0  0  0
    5.2507   -9.7757    4.7594 C   0  0  1  0  0  0  0  0  0  0  0  0
    6.1802   -9.7776    5.8253 O   0  0  0  0  0  0  0  0  0  0  0  0
    3.9918  -10.6903    5.1021 C   0  0  1  0  0  0  0  0  0  0  0  0
    3.7693  -10.7319    6.5023 O   0  0  0  0  0  0  0  0  0  0  0  0
    3.1999   -9.6105    7.0675 C   0  0  0  0  0  0  0  0  0  0  0  0
    3.7667   -8.4581    6.5729 O   0  0  0  0  0  0  0  0  0  0  0  0
    3.4922   -7.9961    5.2364 C   0  0  1  0  0  0  0  0  0  0  0  0
    3.1090   -6.5245    5.7103 C   0  0  1  0  0  0  0  0  0  0  0  0
    3.6987   -5.4243    5.0376 O   0  0  0  0  0  0  0  0  0  0  0  0
    1.6130   -6.3665    6.0748 C   0  0  2  0  0  0  0  0  0  0  0  0
    0.2949   -6.6575    5.3273 C   0  0  2  0  0  0  0  0  0  0  0  0
   -0.0976   -7.3100    3.9673 C   0  0  0  0  0  0  0  0  0  0  0  0
    0.8443   -7.4055    2.7190 C   0  0  1  0  0  0  0  0  0  0  0  0
    0.6208   -6.2529    1.9170 O   0  0  0  0  0  0  0  0  0  0  0  0
    2.3028   -7.5825    3.1706 C   0  0  1  0  0  0  0  0  0  0  0  0
    2.4162   -8.6935    4.3304 C   0  0  2  0  0  0  0  0  0  0  0  0
    2.6695  -10.3054    4.3047 C   0  0  0  0  0  0  0  0  0  0  0  0
    2.9002  -11.0348    2.9230 C   0  0  0  0  0  0  0  0  0  0  0  0
    1.3883  -10.9966    4.8232 C   0  0  0  0  0  0  0  0  0  0  0  0
    0.6793   -5.2158    5.6438 C   0  0  0  0  0  0  0  0  0  0  0  0
   -0.0900   -4.4877    6.7291 C   0  0  0  0  0  0  0  0  0  0  0  0
    0.9917   -4.2243    4.5364 C   0  0  0  0  0  0  0  0  0  0  0  0
    3.6578   -4.9194    2.1289 O   0  0  0  0  0  0  0  0  0  0  0  0
    4.4468   -3.9744    1.6147 C   0  0  0  0  0  0  0  0  0  0  0  0
    4.6632   -2.8562    2.0937 O   0  0  0  0  0  0  0  0  0  0  0  0
    4.4922   -2.7502   -0.9010 H   0  0  0  0  0  0  0  0  0  0  0  0
    3.3154   -4.0590   -0.9252 H   0  0  0  0  0  0  0  0  0  0  0  0
    4.8108   -4.2093   -1.8323 H   0  0  0  0  0  0  0  0  0  0  0  0
    6.1316   -4.2669    0.3064 H   0  0  0  0  0  0  0  0  0  0  0  0
    4.6039   -6.4279   -0.5592 H   0  0  0  0  0  0  0  0  0  0  0  0
    5.7253   -6.4398    0.7884 H   0  0  0  0  0  0  0  0  0  0  0  0
    2.7227   -6.0680    0.7432 H   0  0  0  0  0  0  0  0  0  0  0  0
    3.5750   -9.2740    1.6904 H   0  0  0  0  0  0  0  0  0  0  0  0
    5.7808   -7.8322    2.5476 H   0  0  0  0  0  0  0  0  0  0  0  0
    5.2495   -6.4708    3.4404 H   0  0  0  0  0  0  0  0  0  0  0  0
    4.5114   -8.9388    3.6092 H   0  0  0  0  0  0  0  0  0  0  0  0
    5.8163  -10.2403    3.9363 H   0  0  0  0  0  0  0  0  0  0  0  0
    5.7122   -9.5234    6.5945 H   0  0  0  0  0  0  0  0  0  0  0  0
    4.2699  -11.7227    4.8772 H   0  0  0  0  0  0  0  0  0  0  0  0
    2.1202   -9.5796    7.0277 H   0  0  0  0  0  0  0  0  0  0  0  0
    3.4619   -9.6538    8.1281 H   0  0  0  0  0  0  0  0  0  0  0  0
    3.6276   -6.3507    6.6553 H   0  0  0  0  0  0  0  0  0  0  0  0
    3.4100   -5.3925    4.1513 H   0  0  0  0  0  0  0  0  0  0  0  0
    1.5165   -6.6354    7.1298 H   0  0  0  0  0  0  0  0  0  0  0  0
   -0.4548   -7.0200    6.0349 H   0  0  0  0  0  0  0  0  0  0  0  0
   -0.3420   -8.3429    4.2148 H   0  0  0  0  0  0  0  0  0  0  0  0
   -1.0489   -6.8805    3.6670 H   0  0  0  0  0  0  0  0  0  0  0  0
    0.5429   -8.2653    2.1159 H   0  0  0  0  0  0  0  0  0  0  0  0
    1.1235   -5.5523    2.2802 H   0  0  0  0  0  0  0  0  0  0  0  0
    2.3160   -6.6082    3.5722 H   0  0  0  0  0  0  0  0  0  0  0  0
    2.5436   -8.9942    3.3282 H   0  0  0  0  0  0  0  0  0  0  0  0
    2.1217  -10.8047    2.1964 H   0  0  0  0  0  0  0  0  0  0  0  0
    2.9171  -12.1257    3.0351 H   0  0  0  0  0  0  0  0  0  0  0  0
    3.8585  -10.7856    2.4621 H   0  0  0  0  0  0  0  0  0  0  0  0
    0.6304  -11.0591    4.0407 H   0  0  0  0  0  0  0  0  0  0  0  0
    0.9037  -10.4537    5.6327 H   0  0  0  0  0  0  0  0  0  0  0  0
    1.5885  -12.0093    5.1720 H   0  0  0  0  0  0  0  0  0  0  0  0
   -1.0099   -4.0602    6.3321 H   0  0  0  0  0  0  0  0  0  0  0  0
    0.5154   -3.6873    7.1558 H   0  0  0  0  0  0  0  0  0  0  0  0
   -0.3595   -5.1743    7.5396 H   0  0  0  0  0  0  0  0  0  0  0  0
    0.0690   -3.7992    4.1391 H   0  0  0  0  0  0  0  0  0  0  0  0
    1.5303   -4.6789    3.7108 H   0  0  0  0  0  0  0  0  0  0  0  0
    1.6088   -3.4115    4.9254 H   0  0  0  0  0  0  0  0  0  0  0  0
  1  2  1  0
  1 34  1  0
  1 35  1  0
  1 36  1  0
  2 32  1  0
  2  3  1  0
  2 37  1  1
  3  4  1  0
  3 38  1  0
  3 39  1  0
  4  5  1  0
  4 31  1  0
  4 40  1  6
  5 23  1  0
  5  6  1  6
  5  7  1  0
  6 41  1  0
  7  8  1  0
  7 42  1  0
  7 43  1  0
  8 15  1  0
  8  9  1  0
  8 44  1  1
  9 10  1  0
  9 11  1  0
  9 45  1  6
 10 46  1  0
 11 25  1  0
 11 12  1  0
 11 47  1  6
 12 13  1  0
 13 14  1  0
 13 48  1  0
 13 49  1  0
 15 14  1  1
 15 24  1  0
 15 16  1  0
 16 17  1  0
 16 18  1  0
 16 50  1  1
 17 51  1  0
 18 28  1  0
 18 19  1  0
 18 52  1  1
 19 20  1  0
 19 28  1  0
 19 53  1  1
 20 21  1  0
 20 54  1  0
 20 55  1  0
 21 22  1  0
 21 23  1  0
 21 56  1  6
 22 57  1  0
 23 24  1  0
 23 58  1  1
 24 25  1  0
 24 59  1  1
 25 26  1  0
 25 27  1  0
 26 60  1  0
 26 61  1  0
 26 62  1  0
 27 63  1  0
 27 64  1  0
 27 65  1  0
 28 29  1  0
 28 30  1  0
 29 66  1  0
 29 67  1  0
 29 68  1  0
 30 69  1  0
 30 70  1  0
 30 71  1  0
 31 32  1  0
 32 33  2  0
M  END
>  <i_m_ct_stereo_status>  (146) 
1

>  <s_m_source_file>  (146) 
/var/tmp/pbs.5076255.sched01/tmpscvaj2_a/3886avry94.sdf

>  <i_m_source_file_index>  (146) 
26

>  <i_lp_mmshare_version>  (146) 
48012

>  <i_f3d_flags>  (146) 
0

>  <s_epik_input>  (146) 
W09IXVtDQEhdMVtDQEBIXShDMihbQ0gzXSlbQ0gzXSlbQ0BASF0yW0NIMl1bQ0BASF0oW09IXSlbQ0BIXShbQ0BdKFtPSF0pKFtDSDJdW0NAQEhdM0MxNDUpW0NAQEhdKE9DNj1PKVtDSDJdW0NASF02W0NIM10pW0NAQEhdNUMoW0NIM10pKFtDSDNdKVtDQEBIXShbQ0BASF0zW09IXSlPW0NIMl1PNA==

>  <s_epik_cmdline>  (146) 
J2VwaWtfcHl0aG9uJywgJy1waHQnLCAnMi4wJywgJy1waCcsICc3LjAnLCAnLXRuJywgJzgnLCAnLW1hJywgJzIwMCcsICctaW1hZScsICc8aW5maWxlLm1hZT4nLCAnLW9tYWUnLCAnPG91dGZpbGUubWFlPic=

>  <r_lp_tautomer_probability>  (146) 
1

>  <r_epik_Ionization_Penalty>  (146) 
1.02775e-06

>  <r_epik_Ionization_Penalty_Charging>  (146) 
0

>  <r_epik_Ionization_Penalty_Neutral>  (146) 
1.02775e-06

>  <r_epik_State_Penalty>  (146) 
-0

>  <r_epik_Charging_Adjusted_Penalty>  (146) 
0

>  <i_epik_Tot_Q>  (146) 
0

>  <i_epik_Tot_abs_Q>  (146) 
0

>  <s_epik_Chemistry_Notes>  (146) 
This compound has an ester and may undergo hydrolysis at high or low pH. This compound contains an acetal/aminal-like group ( X-CH(R)-Y where X, Y are N, S, or O) that may be acid/base labile, releasing an aldehyde.

>  <s_lp_Force_Field>  (146) 
OPLS3e

>  <r_lp_Energy>  (146) 
251.978

>  <b_lp_Chiralities_Consistent>  (146) 
1

>  <s_lp_Variant>  (146) 
51:0-1

>  <s_i_glide_gridfile>  (146) 
pfpi4k_grid

>  <i_i_glide_lignum>  (146) 
26

>  <i_i_glide_rotatable_bonds>  (146) 
5

>  <r_i_docking_score>  (146) 
-2.92546

>  <r_i_glide_ligand_efficiency>  (146) 
-0.0886504

>  <r_i_glide_ligand_efficiency_sa>  (146) 
-0.284349

>  <r_i_glide_ligand_efficiency_ln>  (146) 
-0.650608

>  <r_i_glide_gscore>  (146) 
-2.92546

>  <r_i_glide_lipo>  (146) 
-0.244894

>  <r_i_glide_hbond>  (146) 
0

>  <r_i_glide_metal>  (146) 
-0

>  <r_i_glide_rewards>  (146) 
-0.75348

>  <r_i_glide_evdw>  (146) 
-26.9733

>  <r_i_glide_ecoul>  (146) 
-4.1358

>  <r_i_glide_erotb>  (146) 
0.0926841

>  <r_i_glide_esite>  (146) 
-0.05074

>  <r_i_glide_emodel>  (146) 
-42.6002

>  <r_i_glide_energy>  (146) 
-31.1091

>  <r_i_glide_einternal>  (146) 
0.398023

>  <r_i_glide_intrahb_reward>  (146) 
-0.5

>  <i_i_glide_confnum>  (146) 
2

>  <i_i_glide_posenum>  (146) 
14

>  <r_i_glide_eff_state_penalty>  (146) 
0

>  <ligand_id>  (146) 
51

>  <original_smiles>  (146) 
CC1CC(C2(O)CC3C(O)C4OCOC35C(O)C3C(CC(O)C2C5C4(C)C)C3(C)C)OC1=O

>  <smiles>  (146) 
[H]OC1([H])C([H])([H])C2([H])C([H])(C([H])(O[H])C34OC([H])([H])OC5([H])C([H])(O[H])C3([H])C([H])([H])C(O[H])(C3([H])OC(=O)C([H])(C([H])([H])[H])C3([H])[H])C1([H])C4([H])C5(C([H])([H])[H])C([H])([H])[H])C2(C([H])([H])[H])C([H])([H])[H]

$$$$
52:0:0
     RDKit          3D

 15 16  0  0  1  0  0  0  0  0999 V2000
    0.6879  -10.8071    3.3663 C   0  0  0  0  0  0  0  0  0  0  0  0
    0.3244   -9.4955    2.8794 N   0  0  0  0  0  0  0  0  0  0  0  0
   -0.9844   -9.1063    2.8787 N   0  0  0  0  0  0  0  0  0  0  0  0
   -1.0638   -7.8910    2.4091 N   0  0  0  0  0  0  0  0  0  0  0  0
    0.2152   -7.4824    2.0770 C   0  0  0  0  0  0  0  0  0  0  0  0
    0.6028   -6.3151    1.5545 N   0  0  0  0  0  0  0  0  0  0  0  0
    1.9425   -6.2083    1.3626 C   0  0  0  0  0  0  0  0  0  0  0  0
    2.8668   -7.2359    1.6810 C   0  0  0  0  0  0  0  0  0  0  0  0
    2.4892   -8.4269    2.2020 N   0  0  0  0  0  0  0  0  0  0  0  0
    1.1406   -8.5008    2.3862 C   0  0  0  0  0  0  0  0  0  0  0  0
    1.7652  -10.9416    3.2966 H   0  0  0  0  0  0  0  0  0  0  0  0
    0.2167  -11.5756    2.7557 H   0  0  0  0  0  0  0  0  0  0  0  0
    0.3815  -10.9224    4.4080 H   0  0  0  0  0  0  0  0  0  0  0  0
    2.2886   -5.2736    0.9485 H   0  0  0  0  0  0  0  0  0  0  0  0
    3.9251   -7.0959    1.5018 H   0  0  0  0  0  0  0  0  0  0  0  0
  1  2  1  0
  1 11  1  0
  1 12  1  0
  1 13  1  0
  2 10  1  0
  2  3  1  0
  3  4  2  0
  4  5  1  0
  5 10  2  0
  5  6  1  0
  6  7  2  0
  7  8  1  0
  7 14  1  0
  8  9  2  0
  8 15  1  0
  9 10  1  0
M  END
>  <i_m_ct_stereo_status>  (147) 
1

>  <s_m_source_file>  (147) 
/var/tmp/pbs.5076255.sched01/tmpscvaj2_a/3886avry94.sdf

>  <i_m_source_file_index>  (147) 
27

>  <i_lp_mmshare_version>  (147) 
48012

>  <i_f3d_flags>  (147) 
0

>  <s_epik_input>  (147) 
bjFubihbQ0gzXSljKGMxMiluW2NIXVtjSF1uMg==

>  <s_epik_cmdline>  (147) 
J2VwaWtfcHl0aG9uJywgJy1waHQnLCAnMi4wJywgJy1waCcsICc3LjAnLCAnLXRuJywgJzgnLCAnLW1hJywgJzIwMCcsICctaW1hZScsICc8aW5maWxlLm1hZT4nLCAnLW9tYWUnLCAnPG91dGZpbGUubWFlPic=

>  <r_lp_tautomer_probability>  (147) 
1

>  <r_epik_Ionization_Penalty>  (147) 
1.15416e-12

>  <r_epik_Ionization_Penalty_Charging>  (147) 
0

>  <r_epik_Ionization_Penalty_Neutral>  (147) 
1.15416e-12

>  <r_epik_State_Penalty>  (147) 
-0

>  <r_epik_Charging_Adjusted_Penalty>  (147) 
0

>  <i_epik_Tot_Q>  (147) 
0

>  <i_epik_Tot_abs_Q>  (147) 
0

>  <s_lp_Force_Field>  (147) 
OPLS3e

>  <r_lp_Energy>  (147) 
15.7504

>  <b_lp_Chiralities_Consistent>  (147) 
1

>  <s_lp_Variant>  (147) 
52:0-1

>  <s_i_glide_gridfile>  (147) 
pfpi4k_grid

>  <i_i_glide_lignum>  (147) 
27

>  <i_i_glide_rotatable_bonds>  (147) 
0

>  <r_i_docking_score>  (147) 
-4.02579

>  <r_i_glide_ligand_efficiency>  (147) 
-0.402579

>  <r_i_glide_ligand_efficiency_sa>  (147) 
-0.867331

>  <r_i_glide_ligand_efficiency_ln>  (147) 
-1.21898

>  <r_i_glide_gscore>  (147) 
-4.02579

>  <r_i_glide_lipo>  (147) 
-0.10199

>  <r_i_glide_hbond>  (147) 
-0.16

>  <r_i_glide_metal>  (147) 
-0

>  <r_i_glide_rewards>  (147) 
-2.25

>  <r_i_glide_evdw>  (147) 
-16.2246

>  <r_i_glide_ecoul>  (147) 
-3.51498

>  <r_i_glide_erotb>  (147) 
0

>  <r_i_glide_esite>  (147) 
-0.175325

>  <r_i_glide_emodel>  (147) 
-25.4025

>  <r_i_glide_energy>  (147) 
-19.7396

>  <r_i_glide_einternal>  (147) 
0

>  <r_i_glide_intrahb_reward>  (147) 
-0

>  <i_i_glide_confnum>  (147) 
1

>  <i_i_glide_posenum>  (147) 
9

>  <r_i_glide_eff_state_penalty>  (147) 
0

>  <ligand_id>  (147) 
52

>  <original_smiles>  (147) 
Cn1nnc2nccnc21

>  <smiles>  (147) 
[H]c1nc2nnn(C([H])([H])[H])c2nc1[H]

$$$$
52:0:1
     RDKit          3D

 15 16  0  0  1  0  0  0  0  0999 V2000
    3.7269   -8.0096    1.5663 C   0  0  0  0  0  0  0  0  0  0  0  0
    2.3392   -7.6092    1.6812 N   0  0  0  0  0  0  0  0  0  0  0  0
    1.9357   -6.4012    1.1910 N   0  0  0  0  0  0  0  0  0  0  0  0
    0.6557   -6.2649    1.3992 N   0  0  0  0  0  0  0  0  0  0  0  0
    0.2111   -7.4023    2.0521 C   0  0  0  0  0  0  0  0  0  0  0  0
   -1.0242   -7.6809    2.4796 N   0  0  0  0  0  0  0  0  0  0  0  0
   -1.1420   -8.8952    3.0785 C   0  0  0  0  0  0  0  0  0  0  0  0
   -0.0508   -9.7861    3.2666 C   0  0  0  0  0  0  0  0  0  0  0  0
    1.2100   -9.5063    2.8593 N   0  0  0  0  0  0  0  0  0  0  0  0
    1.2875   -8.2930    2.2472 C   0  0  0  0  0  0  0  0  0  0  0  0
    3.8658   -8.9955    2.0112 H   0  0  0  0  0  0  0  0  0  0  0  0
    4.3666   -7.2983    2.0895 H   0  0  0  0  0  0  0  0  0  0  0  0
    4.0198   -8.0573    0.5164 H   0  0  0  0  0  0  0  0  0  0  0  0
   -2.1273   -9.1640    3.4240 H   0  0  0  0  0  0  0  0  0  0  0  0
   -0.1871  -10.7375    3.7596 H   0  0  0  0  0  0  0  0  0  0  0  0
  1  2  1  0
  1 11  1  0
  1 12  1  0
  1 13  1  0
  2 10  1  0
  2  3  1  0
  3  4  2  0
  4  5  1  0
  5 10  2  0
  5  6  1  0
  6  7  2  0
  7  8  1  0
  7 14  1  0
  8  9  2  0
  8 15  1  0
  9 10  1  0
M  END
>  <i_m_ct_stereo_status>  (148) 
1

>  <s_m_source_file>  (148) 
/var/tmp/pbs.5076255.sched01/tmpscvaj2_a/3886avry94.sdf

>  <i_m_source_file_index>  (148) 
27

>  <i_lp_mmshare_version>  (148) 
48012

>  <i_f3d_flags>  (148) 
0

>  <s_epik_input>  (148) 
bjFubihbQ0gzXSljKGMxMiluW2NIXVtjSF1uMg==

>  <s_epik_cmdline>  (148) 
J2VwaWtfcHl0aG9uJywgJy1waHQnLCAnMi4wJywgJy1waCcsICc3LjAnLCAnLXRuJywgJzgnLCAnLW1hJywgJzIwMCcsICctaW1hZScsICc8aW5maWxlLm1hZT4nLCAnLW9tYWUnLCAnPG91dGZpbGUubWFlPic=

>  <r_lp_tautomer_probability>  (148) 
1

>  <r_epik_Ionization_Penalty>  (148) 
1.15416e-12

>  <r_epik_Ionization_Penalty_Charging>  (148) 
0

>  <r_epik_Ionization_Penalty_Neutral>  (148) 
1.15416e-12

>  <r_epik_State_Penalty>  (148) 
-0

>  <r_epik_Charging_Adjusted_Penalty>  (148) 
0

>  <i_epik_Tot_Q>  (148) 
0

>  <i_epik_Tot_abs_Q>  (148) 
0

>  <s_lp_Force_Field>  (148) 
OPLS3e

>  <r_lp_Energy>  (148) 
15.7504

>  <b_lp_Chiralities_Consistent>  (148) 
1

>  <s_lp_Variant>  (148) 
52:0-1

>  <s_i_glide_gridfile>  (148) 
pfpi4k_grid

>  <i_i_glide_lignum>  (148) 
27

>  <i_i_glide_rotatable_bonds>  (148) 
0

>  <r_i_docking_score>  (148) 
-3.77142

>  <r_i_glide_ligand_efficiency>  (148) 
-0.377142

>  <r_i_glide_ligand_efficiency_sa>  (148) 
-0.812527

>  <r_i_glide_ligand_efficiency_ln>  (148) 
-1.14196

>  <r_i_glide_gscore>  (148) 
-3.77142

>  <r_i_glide_lipo>  (148) 
0

>  <r_i_glide_hbond>  (148) 
0

>  <r_i_glide_metal>  (148) 
-0

>  <r_i_glide_rewards>  (148) 
-2.25

>  <r_i_glide_evdw>  (148) 
-15.2647

>  <r_i_glide_ecoul>  (148) 
-3.4309

>  <r_i_glide_erotb>  (148) 
0

>  <r_i_glide_esite>  (148) 
-0.243544

>  <r_i_glide_emodel>  (148) 
-23.9989

>  <r_i_glide_energy>  (148) 
-18.6956

>  <r_i_glide_einternal>  (148) 
0

>  <r_i_glide_intrahb_reward>  (148) 
-0

>  <i_i_glide_confnum>  (148) 
2

>  <i_i_glide_posenum>  (148) 
37

>  <r_i_glide_eff_state_penalty>  (148) 
0

>  <ligand_id>  (148) 
52

>  <original_smiles>  (148) 
Cn1nnc2nccnc21

>  <smiles>  (148) 
[H]c1nc2nnn(C([H])([H])[H])c2nc1[H]

$$$$
52:0:2
     RDKit          3D

 15 16  0  0  1  0  0  0  0  0999 V2000
   -0.3794   -9.8865    2.9726 C   0  0  0  0  0  0  0  0  0  0  0  0
    0.2064   -8.6639    2.4795 N   0  0  0  0  0  0  0  0  0  0  0  0
   -0.5840   -7.5707    2.2885 N   0  0  0  0  0  0  0  0  0  0  0  0
    0.1495   -6.6021    1.8191 N   0  0  0  0  0  0  0  0  0  0  0  0
    1.4505   -7.0666    1.7100 C   0  0  0  0  0  0  0  0  0  0  0  0
    2.5333   -6.4137    1.2795 N   0  0  0  0  0  0  0  0  0  0  0  0
    3.6724   -7.1569    1.2809 C   0  0  0  0  0  0  0  0  0  0  0  0
    3.7211   -8.5163    1.6920 C   0  0  0  0  0  0  0  0  0  0  0  0
    2.6321   -9.1894    2.1340 N   0  0  0  0  0  0  0  0  0  0  0  0
    1.5133   -8.4128    2.1252 C   0  0  0  0  0  0  0  0  0  0  0  0
    0.3858  -10.6580    3.0521 H   0  0  0  0  0  0  0  0  0  0  0  0
   -1.1560  -10.2301    2.2874 H   0  0  0  0  0  0  0  0  0  0  0  0
   -0.8054   -9.7093    3.9593 H   0  0  0  0  0  0  0  0  0  0  0  0
    4.5675   -6.6597    0.9443 H   0  0  0  0  0  0  0  0  0  0  0  0
    4.6511   -9.0665    1.6710 H   0  0  0  0  0  0  0  0  0  0  0  0
  1  2  1  0
  1 11  1  0
  1 12  1  0
  1 13  1  0
  2 10  1  0
  2  3  1  0
  3  4  2  0
  4  5  1  0
  5 10  2  0
  5  6  1  0
  6  7  2  0
  7  8  1  0
  7 14  1  0
  8  9  2  0
  8 15  1  0
  9 10  1  0
M  END
>  <i_m_ct_stereo_status>  (149) 
1

>  <s_m_source_file>  (149) 
/var/tmp/pbs.5076255.sched01/tmpscvaj2_a/3886avry94.sdf

>  <i_m_source_file_index>  (149) 
27

>  <i_lp_mmshare_version>  (149) 
48012

>  <i_f3d_flags>  (149) 
0

>  <s_epik_input>  (149) 
bjFubihbQ0gzXSljKGMxMiluW2NIXVtjSF1uMg==

>  <s_epik_cmdline>  (149) 
J2VwaWtfcHl0aG9uJywgJy1waHQnLCAnMi4wJywgJy1waCcsICc3LjAnLCAnLXRuJywgJzgnLCAnLW1hJywgJzIwMCcsICctaW1hZScsICc8aW5maWxlLm1hZT4nLCAnLW9tYWUnLCAnPG91dGZpbGUubWFlPic=

>  <r_lp_tautomer_probability>  (149) 
1

>  <r_epik_Ionization_Penalty>  (149) 
1.15416e-12

>  <r_epik_Ionization_Penalty_Charging>  (149) 
0

>  <r_epik_Ionization_Penalty_Neutral>  (149) 
1.15416e-12

>  <r_epik_State_Penalty>  (149) 
-0

>  <r_epik_Charging_Adjusted_Penalty>  (149) 
0

>  <i_epik_Tot_Q>  (149) 
0

>  <i_epik_Tot_abs_Q>  (149) 
0

>  <s_lp_Force_Field>  (149) 
OPLS3e

>  <r_lp_Energy>  (149) 
15.7504

>  <b_lp_Chiralities_Consistent>  (149) 
1

>  <s_lp_Variant>  (149) 
52:0-1

>  <s_i_glide_gridfile>  (149) 
pfpi4k_grid

>  <i_i_glide_lignum>  (149) 
27

>  <i_i_glide_rotatable_bonds>  (149) 
0

>  <r_i_docking_score>  (149) 
-3.70056

>  <r_i_glide_ligand_efficiency>  (149) 
-0.370056

>  <r_i_glide_ligand_efficiency_sa>  (149) 
-0.797261

>  <r_i_glide_ligand_efficiency_ln>  (149) 
-1.1205

>  <r_i_glide_gscore>  (149) 
-3.70056

>  <r_i_glide_lipo>  (149) 
-0.0792463

>  <r_i_glide_hbond>  (149) 
0

>  <r_i_glide_metal>  (149) 
-0

>  <r_i_glide_rewards>  (149) 
-2.25

>  <r_i_glide_evdw>  (149) 
-15.0158

>  <r_i_glide_ecoul>  (149) 
-2.26187

>  <r_i_glide_erotb>  (149) 
0

>  <r_i_glide_esite>  (149) 
-0.281243

>  <r_i_glide_emodel>  (149) 
-22.4824

>  <r_i_glide_energy>  (149) 
-17.2777

>  <r_i_glide_einternal>  (149) 
0

>  <r_i_glide_intrahb_reward>  (149) 
-0

>  <i_i_glide_confnum>  (149) 
1

>  <i_i_glide_posenum>  (149) 
30

>  <r_i_glide_eff_state_penalty>  (149) 
0

>  <ligand_id>  (149) 
52

>  <original_smiles>  (149) 
Cn1nnc2nccnc21

>  <smiles>  (149) 
[H]c1nc2nnn(C([H])([H])[H])c2nc1[H]

$$$$
53:0:0
     RDKit          3D

 66 74  0  0  1  0  0  0  0  0999 V2000
    7.6999   -5.3574    2.4287 C   0  0  0  0  0  0  0  0  0  0  0  0
    6.3070   -5.0641    2.5378 O   0  0  0  0  0  0  0  0  0  0  0  0
    5.5055   -5.2212    1.4844 C   0  0  0  0  0  0  0  0  0  0  0  0
    5.9645   -5.3011    0.3513 O   0  0  0  0  0  0  0  0  0  0  0  0
    3.9609   -5.3678    1.8129 C   0  0  2  0  0  0  0  0  0  0  0  0
    3.2277   -4.9642    0.4507 C   0  0  1  0  0  0  0  0  0  0  0  0
    2.0323   -5.6234    0.0822 O   0  0  0  0  0  0  0  0  0  0  0  0
    2.9932   -3.4896    0.5939 C   0  0  0  0  0  0  0  0  0  0  0  0
    3.2125   -3.0605    1.8338 C   0  0  0  0  0  0  0  0  0  0  0  0
    3.6061   -4.1600    2.7854 C   0  0  1  0  0  0  0  0  0  0  0  0
    2.4721   -4.3928    3.8144 C   0  0  1  0  0  0  0  0  0  0  0  0
    1.4519   -5.3008    3.1888 C   0  0  0  0  0  0  0  0  0  0  0  0
    2.1834   -6.6434    3.2872 C   0  0  1  0  0  0  0  0  0  0  0  0
    3.4654   -6.8150    2.3756 C   0  0  2  0  0  0  0  0  0  0  0  0
    4.6423   -7.7259    2.9685 C   0  0  1  0  0  0  0  0  0  0  0  0
    5.2199   -7.5702    4.3026 C   0  0  1  0  0  0  0  0  0  0  0  0
    4.9202   -7.3841    5.6144 C   0  0  0  0  0  0  0  0  0  0  0  0
    6.2342   -8.0179    5.4911 C   0  0  0  0  0  0  0  0  0  0  0  0
    6.3639   -9.1394    4.2069 C   0  0  1  0  0  0  0  0  0  0  0  0
    5.3051   -9.1277    4.9227 C   0  0  2  0  0  0  0  0  0  0  0  0
    4.3366   -9.9129    4.3414 C   0  0  2  0  0  0  0  0  0  0  0  0
    5.0099   -9.2004    3.1880 C   0  0  1  0  0  0  0  0  0  0  0  0
    4.4938  -10.0512    2.0536 C   0  0  0  0  0  0  0  0  0  0  0  0
    2.9239  -10.2219    2.2462 C   0  0  0  0  0  0  0  0  0  0  0  0
    2.2990   -9.4269    3.3872 N   0  0  0  0  0  0  0  0  0  0  0  0
    3.0024   -9.3503    4.7325 C   0  0  1  0  0  0  0  0  0  0  0  0
    2.1472  -10.2841    5.6346 C   0  0  0  0  0  0  0  0  0  0  0  0
    3.3285   -7.8272    5.4650 C   0  0  1  0  0  0  0  0  0  0  0  0
    2.7569   -7.8461    6.7906 O   0  0  0  0  0  0  0  0  0  0  0  0
    3.5259   -8.3674    7.8757 C   0  0  0  0  0  0  0  0  0  0  0  0
    2.4873   -6.6627    4.8041 C   0  0  1  0  0  0  0  0  0  0  0  0
    2.8867   -5.1809    5.0800 C   0  0  0  0  0  0  0  0  0  0  0  0
    8.1066   -5.4807    3.4340 H   0  0  0  0  0  0  0  0  0  0  0  0
    8.2536   -4.5717    1.9132 H   0  0  0  0  0  0  0  0  0  0  0  0
    7.8573   -6.3004    1.9096 H   0  0  0  0  0  0  0  0  0  0  0  0
    3.8142   -5.1084   -0.4581 H   0  0  0  0  0  0  0  0  0  0  0  0
    2.1498   -5.8272   -0.8399 H   0  0  0  0  0  0  0  0  0  0  0  0
    2.7085   -2.8621   -0.2310 H   0  0  0  0  0  0  0  0  0  0  0  0
    3.1156   -2.0379    2.1449 H   0  0  0  0  0  0  0  0  0  0  0  0
    4.4681   -3.7797    3.3288 H   0  0  0  0  0  0  0  0  0  0  0  0
    2.0215   -3.4452    4.0978 H   0  0  0  0  0  0  0  0  0  0  0  0
    0.5367   -5.3086    3.7845 H   0  0  0  0  0  0  0  0  0  0  0  0
    1.1408   -5.0140    2.1961 H   0  0  0  0  0  0  0  0  0  0  0  0
    1.3801   -7.3263    3.0238 H   0  0  0  0  0  0  0  0  0  0  0  0
    3.1126   -7.3587    1.4941 H   0  0  0  0  0  0  0  0  0  0  0  0
    5.3883   -7.5664    2.1969 H   0  0  0  0  0  0  0  0  0  0  0  0
    5.9743   -6.8330    3.8691 H   0  0  0  0  0  0  0  0  0  0  0  0
    7.0829   -7.6394    6.0078 H   0  0  0  0  0  0  0  0  0  0  0  0
    6.9339  -10.0520    4.3853 H   0  0  0  0  0  0  0  0  0  0  0  0
    5.2400   -9.6973    5.9327 H   0  0  0  0  0  0  0  0  0  0  0  0
    4.5077  -10.9909    4.4479 H   0  0  0  0  0  0  0  0  0  0  0  0
    4.7232   -9.6339    1.0682 H   0  0  0  0  0  0  0  0  0  0  0  0
    4.9592  -11.0456    2.0853 H   0  0  0  0  0  0  0  0  0  0  0  0
    2.4252   -9.9254    1.3181 H   0  0  0  0  0  0  0  0  0  0  0  0
    2.7020  -11.2836    2.4069 H   0  0  0  0  0  0  0  0  0  0  0  0
    2.2581   -8.4818    3.0603 H   0  0  0  0  0  0  0  0  0  0  0  0
    2.6453  -10.6128    6.5628 H   0  0  0  0  0  0  0  0  0  0  0  0
    1.8827  -11.1954    5.0915 H   0  0  0  0  0  0  0  0  0  0  0  0
    1.2110   -9.7764    5.8975 H   0  0  0  0  0  0  0  0  0  0  0  0
    2.8331   -8.4120    8.7127 H   0  0  0  0  0  0  0  0  0  0  0  0
    4.3632   -7.7243    8.1665 H   0  0  0  0  0  0  0  0  0  0  0  0
    3.9131   -9.3768    7.7063 H   0  0  0  0  0  0  0  0  0  0  0  0
    1.4976   -6.7788    5.2507 H   0  0  0  0  0  0  0  0  0  0  0  0
    3.9462   -5.0266    5.2883 H   0  0  0  0  0  0  0  0  0  0  0  0
    2.3299   -4.8195    5.9527 H   0  0  0  0  0  0  0  0  0  0  0  0
    1.3844   -9.7806    3.5550 H   0  0  0  0  0  0  0  0  0  0  0  0
  1  2  1  0
  1 33  1  0
  1 34  1  0
  1 35  1  0
  2  3  1  0
  3  4  2  0
  5  3  1  6
  5 10  1  0
  5 14  1  0
  5  6  1  0
  6  7  1  0
  6  8  1  0
  6 36  1  6
  7 37  1  0
  8  9  2  0
  8 38  1  0
  9 10  1  0
  9 39  1  0
 10 11  1  0
 10 40  1  1
 11 32  1  0
 11 12  1  0
 11 41  1  1
 12 13  1  0
 12 42  1  0
 12 43  1  0
 13 31  1  0
 13 14  1  0
 13 44  1  1
 14 15  1  0
 14 45  1  6
 15 22  1  0
 15 16  1  0
 15 46  1  6
 16 20  1  0
 16 17  1  0
 16 47  1  6
 17 28  1  0
 17 18  2  0
 18 19  1  0
 18 48  1  0
 19 22  1  0
 19 20  1  0
 19 49  1  1
 20 21  1  0
 20 50  1  1
 21 26  1  0
 21 22  1  0
 21 51  1  6
 22 23  1  6
 23 24  1  0
 23 52  1  0
 23 53  1  0
 24 25  1  0
 24 54  1  0
 24 55  1  0
 25 26  1  0
 25 56  1  0
 25 66  1  0
 26 27  1  1
 26 28  1  0
 27 57  1  0
 27 58  1  0
 27 59  1  0
 28 29  1  1
 28 31  1  0
 29 30  1  0
 30 60  1  0
 30 61  1  0
 30 62  1  0
 31 32  1  0
 31 63  1  1
 32 64  1  0
 32 65  1  0
M  CHG  1  25   1
M  END
>  <i_m_ct_stereo_status>  (150) 
1

>  <s_m_source_file>  (150) 
/var/tmp/pbs.5076255.sched01/tmpscvaj2_a/3886avry94.sdf

>  <i_m_source_file_index>  (150) 
28

>  <i_lp_mmshare_version>  (150) 
48012

>  <i_f3d_flags>  (150) 
0

>  <s_epik_input>  (150) 
W0NIM11PQyg9TylbQ0BAXTEoW0NIXTJbQ0BASF0zW0NAQF00NTYpW0NAQEhdKFtDSF09W0NIXVtDQEBIXTFbT0hdKVtDQEhdN1tDSDJdW0NAQEhdMltDQEhdKFtDSDJdNylbQ0BdOChPW0NIM10pQz05W0NASF0zW0NASF0oW0NAQEhdNFtDSF05KVtDQEhdNVtDQF04KFtDSDNdKVtOSF1bQ0gyXVtDSDJdNg==

>  <s_epik_cmdline>  (150) 
J2VwaWtfcHl0aG9uJywgJy1waHQnLCAnMi4wJywgJy1waCcsICc3LjAnLCAnLXRuJywgJzgnLCAnLW1hJywgJzIwMCcsICctaW1hZScsICc8aW5maWxlLm1hZT4nLCAnLW9tYWUnLCAnPG91dGZpbGUubWFlPic=

>  <r_epik_Ionization_Penalty>  (150) 
0.0021565

>  <r_epik_Ionization_Penalty_Charging>  (150) 
0.00215642

>  <r_epik_Ionization_Penalty_Neutral>  (150) 
8.19882e-08

>  <r_epik_State_Penalty>  (150) 
0.00148057

>  <r_epik_Charging_Adjusted_Penalty>  (150) 
0.00363699

>  <i_epik_Tot_Q>  (150) 
1

>  <i_epik_Tot_abs_Q>  (150) 
1

>  <s_epik_Chemistry_Notes>  (150) 
This compound has an ester and may undergo hydrolysis at high or low pH.

>  <s_lp_Force_Field>  (150) 
OPLS3e

>  <r_lp_Energy>  (150) 
542.897

>  <b_lp_Chiralities_Consistent>  (150) 
1

>  <s_lp_Variant>  (150) 
53:0-1

>  <s_i_glide_gridfile>  (150) 
pfpi4k_grid

>  <i_i_glide_lignum>  (150) 
28

>  <i_i_glide_rotatable_bonds>  (150) 
4

>  <r_i_docking_score>  (150) 
-2.67594

>  <r_i_glide_ligand_efficiency>  (150) 
-0.0836232

>  <r_i_glide_ligand_efficiency_sa>  (150) 
-0.265487

>  <r_i_glide_ligand_efficiency_ln>  (150) 
-0.599216

>  <r_i_glide_gscore>  (150) 
-2.67594

>  <r_i_glide_lipo>  (150) 
-0.0389634

>  <r_i_glide_hbond>  (150) 
-0.33019

>  <r_i_glide_metal>  (150) 
-0

>  <r_i_glide_rewards>  (150) 
-0.506068

>  <r_i_glide_evdw>  (150) 
-16.0648

>  <r_i_glide_ecoul>  (150) 
-7.29555

>  <r_i_glide_erotb>  (150) 
0.104592

>  <r_i_glide_esite>  (150) 
-0.00774176

>  <r_i_glide_emodel>  (150) 
-24.3942

>  <r_i_glide_energy>  (150) 
-23.3603

>  <r_i_glide_einternal>  (150) 
2.48534

>  <r_i_glide_intrahb_reward>  (150) 
-0

>  <i_i_glide_confnum>  (150) 
2

>  <i_i_glide_posenum>  (150) 
30

>  <r_i_glide_eff_state_penalty>  (150) 
0

>  <ligand_id>  (150) 
53

>  <original_smiles>  (150) 
COC(=O)C12C(O)C=CC1C1CC3C2C2C4C5=CC6C4C4C62CCNC4(C)C5(OC)C3C1

>  <smiles>  (150) 
[H]OC1([H])C([H])=C([H])C2([H])C3([H])C([H])([H])C4([H])C5(OC([H])([H])[H])C6=C([H])C7([H])C8([H])C6([H])C([H])(C([H])(C4([H])C3([H])[H])C12C(=O)OC([H])([H])[H])C71C([H])([H])C([H])([H])[N+]([H])([H])C5(C([H])([H])[H])C81[H]

$$$$
53:0:1
     RDKit          3D

 66 74  0  0  1  0  0  0  0  0999 V2000
    9.1198   -3.5207    0.5803 C   0  0  0  0  0  0  0  0  0  0  0  0
    7.8011   -3.7830    0.1513 O   0  0  0  0  0  0  0  0  0  0  0  0
    6.8143   -2.9586    0.5312 C   0  0  0  0  0  0  0  0  0  0  0  0
    6.9992   -1.9337    1.1848 O   0  0  0  0  0  0  0  0  0  0  0  0
    5.4082   -3.3791   -0.0002 C   0  0  2  0  0  0  0  0  0  0  0  0
    5.6340   -3.2813   -1.5625 C   0  0  1  0  0  0  0  0  0  0  0  0
    5.0182   -4.2524   -2.3886 O   0  0  0  0  0  0  0  0  0  0  0  0
    5.1479   -1.9141   -1.9169 C   0  0  0  0  0  0  0  0  0  0  0  0
    4.5361   -1.3038   -0.9105 C   0  0  0  0  0  0  0  0  0  0  0  0
    4.4212   -2.1614    0.3228 C   0  0  1  0  0  0  0  0  0  0  0  0
    2.9501   -2.5226    0.5669 C   0  0  1  0  0  0  0  0  0  0  0  0
    2.6211   -3.6943   -0.3275 C   0  0  0  0  0  0  0  0  0  0  0  0
    3.2773   -4.8242    0.4741 C   0  0  1  0  0  0  0  0  0  0  0  0
    4.8640   -4.8300    0.4859 C   0  0  2  0  0  0  0  0  0  0  0  0
    5.5571   -5.3411    1.8396 C   0  0  1  0  0  0  0  0  0  0  0  0
    5.2202   -4.7268    3.1096 C   0  0  1  0  0  0  0  0  0  0  0  0
    4.2264   -4.5879    4.0389 C   0  0  0  0  0  0  0  0  0  0  0  0
    5.4464   -4.8725    4.7316 C   0  0  0  0  0  0  0  0  0  0  0  0
    6.4115   -6.1138    4.0950 C   0  0  1  0  0  0  0  0  0  0  0  0
    5.1372   -6.1503    4.0362 C   0  0  2  0  0  0  0  0  0  0  0  0
    4.7693   -7.2793    3.3019 C   0  0  2  0  0  0  0  0  0  0  0  0
    5.8883   -6.6388    2.5599 C   0  0  1  0  0  0  0  0  0  0  0  0
    6.2520   -7.7187    1.5828 C   0  0  0  0  0  0  0  0  0  0  0  0
    4.9039   -8.2156    0.9236 C   0  0  0  0  0  0  0  0  0  0  0  0
    3.6510   -7.4414    1.3094 N   0  0  0  0  0  0  0  0  0  0  0  0
    3.4105   -7.0291    2.7390 C   0  0  1  0  0  0  0  0  0  0  0  0
    2.3142   -8.0298    3.2009 C   0  0  0  0  0  0  0  0  0  0  0  0
    3.0621   -5.4041    3.1308 C   0  0  1  0  0  0  0  0  0  0  0  0
    1.8324   -5.4040    3.8802 O   0  0  0  0  0  0  0  0  0  0  0  0
    1.8782   -5.5621    5.2985 C   0  0  0  0  0  0  0  0  0  0  0  0
    2.6448   -4.5727    1.8666 C   0  0  1  0  0  0  0  0  0  0  0  0
    2.6270   -3.0307    1.9813 C   0  0  0  0  0  0  0  0  0  0  0  0
    9.7261   -4.3518    0.2428 H   0  0  0  0  0  0  0  0  0  0  0  0
    9.2053   -3.4948    1.6662 H   0  0  0  0  0  0  0  0  0  0  0  0
    9.5181   -2.5982    0.1495 H   0  0  0  0  0  0  0  0  0  0  0  0
    6.6833   -3.3033   -1.8626 H   0  0  0  0  0  0  0  0  0  0  0  0
    4.1450   -4.4077   -2.0936 H   0  0  0  0  0  0  0  0  0  0  0  0
    5.3155   -1.4784   -2.8838 H   0  0  0  0  0  0  0  0  0  0  0  0
    4.1471   -0.3023   -0.9736 H   0  0  0  0  0  0  0  0  0  0  0  0
    4.7152   -1.5141    1.1495 H   0  0  0  0  0  0  0  0  0  0  0  0
    2.3315   -1.6499    0.4058 H   0  0  0  0  0  0  0  0  0  0  0  0
    1.5478   -3.8372   -0.3893 H   0  0  0  0  0  0  0  0  0  0  0  0
    2.9282   -3.5831   -1.3646 H   0  0  0  0  0  0  0  0  0  0  0  0
    2.8602   -5.6919   -0.0269 H   0  0  0  0  0  0  0  0  0  0  0  0
    5.1763   -5.5344   -0.2927 H   0  0  0  0  0  0  0  0  0  0  0  0
    6.5929   -5.1386    1.6394 H   0  0  0  0  0  0  0  0  0  0  0  0
    5.9984   -3.9115    3.0537 H   0  0  0  0  0  0  0  0  0  0  0  0
    5.7488   -4.2856    5.5920 H   0  0  0  0  0  0  0  0  0  0  0  0
    6.7750   -6.8766    4.7778 H   0  0  0  0  0  0  0  0  0  0  0  0
    4.5415   -6.6296    4.9226 H   0  0  0  0  0  0  0  0  0  0  0  0
    4.9915   -8.2427    3.7736 H   0  0  0  0  0  0  0  0  0  0  0  0
    6.9819   -7.3557    0.8713 H   0  0  0  0  0  0  0  0  0  0  0  0
    6.7123   -8.5646    2.0900 H   0  0  0  0  0  0  0  0  0  0  0  0
    4.9965   -8.1585   -0.1574 H   0  0  0  0  0  0  0  0  0  0  0  0
    4.7577   -9.2706    1.1546 H   0  0  0  0  0  0  0  0  0  0  0  0
    3.7063   -6.5775    0.7850 H   0  0  0  0  0  0  0  0  0  0  0  0
    2.1934   -8.1458    4.2705 H   0  0  0  0  0  0  0  0  0  0  0  0
    2.5282   -9.0368    2.8180 H   0  0  0  0  0  0  0  0  0  0  0  0
    1.3482   -7.7289    2.7683 H   0  0  0  0  0  0  0  0  0  0  0  0
    0.8334   -5.6709    5.5988 H   0  0  0  0  0  0  0  0  0  0  0  0
    2.2891   -4.6933    5.8230 H   0  0  0  0  0  0  0  0  0  0  0  0
    2.4182   -6.4304    5.6611 H   0  0  0  0  0  0  0  0  0  0  0  0
    1.6098   -4.8593    1.7117 H   0  0  0  0  0  0  0  0  0  0  0  0
    3.3290   -2.5905    2.6911 H   0  0  0  0  0  0  0  0  0  0  0  0
    1.6277   -2.6928    2.2731 H   0  0  0  0  0  0  0  0  0  0  0  0
    2.8506   -7.9819    1.0073 H   0  0  0  0  0  0  0  0  0  0  0  0
  1  2  1  0
  1 33  1  0
  1 34  1  0
  1 35  1  0
  2  3  1  0
  3  4  2  0
  5  3  1  1
  5 10  1  0
  5 14  1  0
  5  6  1  0
  6  7  1  0
  6  8  1  0
  6 36  1  1
  7 37  1  0
  8  9  2  0
  8 38  1  0
  9 10  1  0
  9 39  1  0
 10 11  1  0
 10 40  1  1
 11 32  1  0
 11 12  1  0
 11 41  1  6
 12 13  1  0
 12 42  1  0
 12 43  1  0
 13 31  1  0
 13 14  1  0
 13 44  1  6
 14 15  1  0
 14 45  1  6
 15 22  1  0
 15 16  1  0
 15 46  1  6
 16 20  1  0
 16 17  1  0
 16 47  1  1
 17 28  1  0
 17 18  2  0
 18 19  1  0
 18 48  1  0
 19 22  1  0
 19 20  1  0
 19 49  1  1
 20 21  1  0
 20 50  1  1
 21 26  1  0
 21 22  1  0
 21 51  1  1
 22 23  1  6
 23 24  1  0
 23 52  1  0
 23 53  1  0
 24 25  1  0
 24 54  1  0
 24 55  1  0
 25 26  1  0
 25 56  1  0
 25 66  1  0
 26 27  1  1
 26 28  1  0
 27 57  1  0
 27 58  1  0
 27 59  1  0
 28 29  1  1
 28 31  1  0
 29 30  1  0
 30 60  1  0
 30 61  1  0
 30 62  1  0
 31 32  1  0
 31 63  1  6
 32 64  1  0
 32 65  1  0
M  CHG  1  25   1
M  END
>  <i_m_ct_stereo_status>  (151) 
1

>  <s_m_source_file>  (151) 
/var/tmp/pbs.5076255.sched01/tmpscvaj2_a/3886avry94.sdf

>  <i_m_source_file_index>  (151) 
28

>  <i_lp_mmshare_version>  (151) 
48012

>  <i_f3d_flags>  (151) 
0

>  <s_epik_input>  (151) 
W0NIM11PQyg9TylbQ0BAXTEoW0NIXTJbQ0BASF0zW0NAQF00NTYpW0NAQEhdKFtDSF09W0NIXVtDQEBIXTFbT0hdKVtDQEhdN1tDSDJdW0NAQEhdMltDQEhdKFtDSDJdNylbQ0BdOChPW0NIM10pQz05W0NASF0zW0NASF0oW0NAQEhdNFtDSF05KVtDQEhdNVtDQF04KFtDSDNdKVtOSF1bQ0gyXVtDSDJdNg==

>  <s_epik_cmdline>  (151) 
J2VwaWtfcHl0aG9uJywgJy1waHQnLCAnMi4wJywgJy1waCcsICc3LjAnLCAnLXRuJywgJzgnLCAnLW1hJywgJzIwMCcsICctaW1hZScsICc8aW5maWxlLm1hZT4nLCAnLW9tYWUnLCAnPG91dGZpbGUubWFlPic=

>  <r_epik_Ionization_Penalty>  (151) 
0.0021565

>  <r_epik_Ionization_Penalty_Charging>  (151) 
0.00215642

>  <r_epik_Ionization_Penalty_Neutral>  (151) 
8.19882e-08

>  <r_epik_State_Penalty>  (151) 
0.00148057

>  <r_epik_Charging_Adjusted_Penalty>  (151) 
0.00363699

>  <i_epik_Tot_Q>  (151) 
1

>  <i_epik_Tot_abs_Q>  (151) 
1

>  <s_epik_Chemistry_Notes>  (151) 
This compound has an ester and may undergo hydrolysis at high or low pH.

>  <s_lp_Force_Field>  (151) 
OPLS3e

>  <r_lp_Energy>  (151) 
542.897

>  <b_lp_Chiralities_Consistent>  (151) 
1

>  <s_lp_Variant>  (151) 
53:0-1

>  <s_i_glide_gridfile>  (151) 
pfpi4k_grid

>  <i_i_glide_lignum>  (151) 
28

>  <i_i_glide_rotatable_bonds>  (151) 
4

>  <r_i_docking_score>  (151) 
-2.33197

>  <r_i_glide_ligand_efficiency>  (151) 
-0.0728739

>  <r_i_glide_ligand_efficiency_sa>  (151) 
-0.23136

>  <r_i_glide_ligand_efficiency_ln>  (151) 
-0.522191

>  <r_i_glide_gscore>  (151) 
-2.33197

>  <r_i_glide_lipo>  (151) 
-0.50333

>  <r_i_glide_hbond>  (151) 
-0.117496

>  <r_i_glide_metal>  (151) 
-0

>  <r_i_glide_rewards>  (151) 
-0.573068

>  <r_i_glide_evdw>  (151) 
-19.7926

>  <r_i_glide_ecoul>  (151) 
-1.68687

>  <r_i_glide_erotb>  (151) 
0.104592

>  <r_i_glide_esite>  (151) 
0

>  <r_i_glide_emodel>  (151) 
-24.8926

>  <r_i_glide_energy>  (151) 
-21.4795

>  <r_i_glide_einternal>  (151) 
0.366818

>  <r_i_glide_intrahb_reward>  (151) 
-0

>  <i_i_glide_confnum>  (151) 
3

>  <i_i_glide_posenum>  (151) 
27

>  <r_i_glide_eff_state_penalty>  (151) 
0

>  <ligand_id>  (151) 
53

>  <original_smiles>  (151) 
COC(=O)C12C(O)C=CC1C1CC3C2C2C4C5=CC6C4C4C62CCNC4(C)C5(OC)C3C1

>  <smiles>  (151) 
[H]OC1([H])C([H])=C([H])C2([H])C3([H])C([H])([H])C4([H])C5(OC([H])([H])[H])C6=C([H])C7([H])C8([H])C6([H])C([H])(C([H])(C4([H])C3([H])[H])C12C(=O)OC([H])([H])[H])C71C([H])([H])C([H])([H])[N+]([H])([H])C5(C([H])([H])[H])C81[H]

$$$$
53:0:2
     RDKit          3D

 66 74  0  0  1  0  0  0  0  0999 V2000
    7.7961   -6.4700    4.3318 C   0  0  0  0  0  0  0  0  0  0  0  0
    6.6679   -6.6799    3.4994 O   0  0  0  0  0  0  0  0  0  0  0  0
    5.5494   -5.9431    3.6996 C   0  0  0  0  0  0  0  0  0  0  0  0
    5.4548   -5.0696    4.5477 O   0  0  0  0  0  0  0  0  0  0  0  0
    4.3612   -6.3584    2.7487 C   0  0  2  0  0  0  0  0  0  0  0  0
    4.9685   -6.1242    1.3061 C   0  0  1  0  0  0  0  0  0  0  0  0
    4.5962   -7.0520    0.3088 O   0  0  0  0  0  0  0  0  0  0  0  0
    4.5128   -4.7418    0.9337 C   0  0  0  0  0  0  0  0  0  0  0  0
    3.6197   -4.2530    1.7737 C   0  0  0  0  0  0  0  0  0  0  0  0
    3.2381   -5.2212    2.8680 C   0  0  1  0  0  0  0  0  0  0  0  0
    1.7703   -5.6655    2.6785 C   0  0  1  0  0  0  0  0  0  0  0  0
    1.7523   -6.7890    1.6752 C   0  0  0  0  0  0  0  0  0  0  0  0
    2.2740   -7.9432    2.5401 C   0  0  1  0  0  0  0  0  0  0  0  0
    3.8014   -7.8665    2.9707 C   0  0  2  0  0  0  0  0  0  0  0  0
    4.1626   -8.4695    4.4159 C   0  0  1  0  0  0  0  0  0  0  0  0
    3.4688   -8.0054    5.6038 C   0  0  1  0  0  0  0  0  0  0  0  0
    2.2611   -7.9843    6.2301 C   0  0  0  0  0  0  0  0  0  0  0  0
    3.2662   -8.2767    7.2025 C   0  0  0  0  0  0  0  0  0  0  0  0
    4.4507   -9.4052    6.7522 C   0  0  1  0  0  0  0  0  0  0  0  0
    3.2398   -9.5059    6.3639 C   0  0  2  0  0  0  0  0  0  0  0  0
    3.1596  -10.5776    5.4686 C   0  0  2  0  0  0  0  0  0  0  0  0
    4.3866   -9.8124    5.1014 C   0  0  1  0  0  0  0  0  0  0  0  0
    5.0684  -10.7848    4.1706 C   0  0  0  0  0  0  0  0  0  0  0  0
    3.9785  -11.2724    3.1387 C   0  0  0  0  0  0  0  0  0  0  0  0
    2.6104  -10.6162    3.2368 N   0  0  0  0  0  0  0  0  0  0  0  0
    1.9795  -10.3410    4.5880 C   0  0  1  0  0  0  0  0  0  0  0  0
    0.8689  -11.4300    4.6589 C   0  0  0  0  0  0  0  0  0  0  0  0
    1.4220   -8.7737    4.9916 C   0  0  1  0  0  0  0  0  0  0  0  0
    0.0466   -8.8792    5.4022 O   0  0  0  0  0  0  0  0  0  0  0  0
   -0.2619   -9.2357    6.7502 C   0  0  0  0  0  0  0  0  0  0  0  0
    1.2829   -7.8515    3.7265 C   0  0  1  0  0  0  0  0  0  0  0  0
    1.1311   -6.3164    3.9289 C   0  0  0  0  0  0  0  0  0  0  0  0
    8.5883   -7.1595    4.0468 H   0  0  0  0  0  0  0  0  0  0  0  0
    7.5502   -6.6445    5.3770 H   0  0  0  0  0  0  0  0  0  0  0  0
    8.1863   -5.4576    4.2253 H   0  0  0  0  0  0  0  0  0  0  0  0
    6.0587   -6.0942    1.2739 H   0  0  0  0  0  0  0  0  0  0  0  0
    4.7609   -6.6575   -0.5356 H   0  0  0  0  0  0  0  0  0  0  0  0
    4.9162   -4.2083    0.0833 H   0  0  0  0  0  0  0  0  0  0  0  0
    3.1850   -3.2651    1.6909 H   0  0  0  0  0  0  0  0  0  0  0  0
    3.2708   -4.6480    3.7923 H   0  0  0  0  0  0  0  0  0  0  0  0
    1.1649   -4.8216    2.3495 H   0  0  0  0  0  0  0  0  0  0  0  0
    0.7308   -6.9936    1.3496 H   0  0  0  0  0  0  0  0  0  0  0  0
    2.3072   -6.5899    0.7652 H   0  0  0  0  0  0  0  0  0  0  0  0
    2.0714   -8.7873    1.8854 H   0  0  0  0  0  0  0  0  0  0  0  0
    4.3498   -8.4906    2.2571 H   0  0  0  0  0  0  0  0  0  0  0  0
    5.2016   -8.2152    4.5053 H   0  0  0  0  0  0  0  0  0  0  0  0
    4.1769   -7.1414    5.8161 H   0  0  0  0  0  0  0  0  0  0  0  0
    3.2983   -7.7591    8.1527 H   0  0  0  0  0  0  0  0  0  0  0  0
    4.6710  -10.2068    7.4506 H   0  0  0  0  0  0  0  0  0  0  0  0
    2.4631  -10.0857    7.0227 H   0  0  0  0  0  0  0  0  0  0  0  0
    3.2995  -11.5706    5.9152 H   0  0  0  0  0  0  0  0  0  0  0  0
    5.9174  -10.3386    3.6555 H   0  0  0  0  0  0  0  0  0  0  0  0
    5.4362  -11.6526    4.7243 H   0  0  0  0  0  0  0  0  0  0  0  0
    4.3676  -11.0450    2.1445 H   0  0  0  0  0  0  0  0  0  0  0  0
    3.8538  -12.3553    3.2228 H   0  0  0  0  0  0  0  0  0  0  0  0
    2.7282   -9.7100    2.8086 H   0  0  0  0  0  0  0  0  0  0  0  0
    0.4683  -11.6433    5.6392 H   0  0  0  0  0  0  0  0  0  0  0  0
    1.2434  -12.3845    4.2594 H   0  0  0  0  0  0  0  0  0  0  0  0
    0.0333  -11.1380    4.0041 H   0  0  0  0  0  0  0  0  0  0  0  0
   -1.3309   -9.4512    6.7416 H   0  0  0  0  0  0  0  0  0  0  0  0
   -0.0874   -8.4043    7.4501 H   0  0  0  0  0  0  0  0  0  0  0  0
    0.2274  -10.1178    7.1389 H   0  0  0  0  0  0  0  0  0  0  0  0
    0.3446   -8.1724    3.2722 H   0  0  0  0  0  0  0  0  0  0  0  0
    1.6013   -5.9197    4.8302 H   0  0  0  0  0  0  0  0  0  0  0  0
    0.0670   -6.0659    3.9883 H   0  0  0  0  0  0  0  0  0  0  0  0
    1.9666  -11.1635    2.6927 H   0  0  0  0  0  0  0  0  0  0  0  0
  1  2  1  0
  1 33  1  0
  1 34  1  0
  1 35  1  0
  2  3  1  0
  3  4  2  0
  5  3  1  1
  5 10  1  0
  5 14  1  0
  5  6  1  0
  6  7  1  0
  6  8  1  0
  6 36  1  1
  7 37  1  0
  8  9  2  0
  8 38  1  0
  9 10  1  0
  9 39  1  0
 10 11  1  0
 10 40  1  1
 11 32  1  0
 11 12  1  0
 11 41  1  6
 12 13  1  0
 12 42  1  0
 12 43  1  0
 13 31  1  0
 13 14  1  0
 13 44  1  6
 14 15  1  0
 14 45  1  6
 15 22  1  0
 15 16  1  0
 15 46  1  1
 16 20  1  0
 16 17  1  0
 16 47  1  1
 17 28  1  0
 17 18  2  0
 18 19  1  0
 18 48  1  0
 19 22  1  0
 19 20  1  0
 19 49  1  1
 20 21  1  0
 20 50  1  1
 21 26  1  0
 21 22  1  0
 21 51  1  1
 22 23  1  6
 23 24  1  0
 23 52  1  0
 23 53  1  0
 24 25  1  0
 24 54  1  0
 24 55  1  0
 25 26  1  0
 25 56  1  0
 25 66  1  0
 26 27  1  1
 26 28  1  0
 27 57  1  0
 27 58  1  0
 27 59  1  0
 28 29  1  1
 28 31  1  0
 29 30  1  0
 30 60  1  0
 30 61  1  0
 30 62  1  0
 31 32  1  0
 31 63  1  6
 32 64  1  0
 32 65  1  0
M  CHG  1  25   1
M  END
>  <i_m_ct_stereo_status>  (152) 
1

>  <s_m_source_file>  (152) 
/var/tmp/pbs.5076255.sched01/tmpscvaj2_a/3886avry94.sdf

>  <i_m_source_file_index>  (152) 
28

>  <i_lp_mmshare_version>  (152) 
48012

>  <i_f3d_flags>  (152) 
0

>  <s_epik_input>  (152) 
W0NIM11PQyg9TylbQ0BAXTEoW0NIXTJbQ0BASF0zW0NAQF00NTYpW0NAQEhdKFtDSF09W0NIXVtDQEBIXTFbT0hdKVtDQEhdN1tDSDJdW0NAQEhdMltDQEhdKFtDSDJdNylbQ0BdOChPW0NIM10pQz05W0NASF0zW0NASF0oW0NAQEhdNFtDSF05KVtDQEhdNVtDQF04KFtDSDNdKVtOSF1bQ0gyXVtDSDJdNg==

>  <s_epik_cmdline>  (152) 
J2VwaWtfcHl0aG9uJywgJy1waHQnLCAnMi4wJywgJy1waCcsICc3LjAnLCAnLXRuJywgJzgnLCAnLW1hJywgJzIwMCcsICctaW1hZScsICc8aW5maWxlLm1hZT4nLCAnLW9tYWUnLCAnPG91dGZpbGUubWFlPic=

>  <r_epik_Ionization_Penalty>  (152) 
0.0021565

>  <r_epik_Ionization_Penalty_Charging>  (152) 
0.00215642

>  <r_epik_Ionization_Penalty_Neutral>  (152) 
8.19882e-08

>  <r_epik_State_Penalty>  (152) 
0.00148057

>  <r_epik_Charging_Adjusted_Penalty>  (152) 
0.00363699

>  <i_epik_Tot_Q>  (152) 
1

>  <i_epik_Tot_abs_Q>  (152) 
1

>  <s_epik_Chemistry_Notes>  (152) 
This compound has an ester and may undergo hydrolysis at high or low pH.

>  <s_lp_Force_Field>  (152) 
OPLS3e

>  <r_lp_Energy>  (152) 
542.897

>  <b_lp_Chiralities_Consistent>  (152) 
1

>  <s_lp_Variant>  (152) 
53:0-1

>  <s_i_glide_gridfile>  (152) 
pfpi4k_grid

>  <i_i_glide_lignum>  (152) 
28

>  <i_i_glide_rotatable_bonds>  (152) 
4

>  <r_i_docking_score>  (152) 
-2.09682

>  <r_i_glide_ligand_efficiency>  (152) 
-0.0655255

>  <r_i_glide_ligand_efficiency_sa>  (152) 
-0.208031

>  <r_i_glide_ligand_efficiency_ln>  (152) 
-0.469535

>  <r_i_glide_gscore>  (152) 
-2.09682

>  <r_i_glide_lipo>  (152) 
-0.137816

>  <r_i_glide_hbond>  (152) 
0

>  <r_i_glide_metal>  (152) 
-0

>  <r_i_glide_rewards>  (152) 
-0.433811

>  <r_i_glide_evdw>  (152) 
-18.7938

>  <r_i_glide_ecoul>  (152) 
-4.57377

>  <r_i_glide_erotb>  (152) 
0.104592

>  <r_i_glide_esite>  (152) 
-0.00402845

>  <r_i_glide_emodel>  (152) 
-26.167

>  <r_i_glide_energy>  (152) 
-23.3675

>  <r_i_glide_einternal>  (152) 
0.679292

>  <r_i_glide_intrahb_reward>  (152) 
-0

>  <i_i_glide_confnum>  (152) 
4

>  <i_i_glide_posenum>  (152) 
5

>  <r_i_glide_eff_state_penalty>  (152) 
0

>  <ligand_id>  (152) 
53

>  <original_smiles>  (152) 
COC(=O)C12C(O)C=CC1C1CC3C2C2C4C5=CC6C4C4C62CCNC4(C)C5(OC)C3C1

>  <smiles>  (152) 
[H]OC1([H])C([H])=C([H])C2([H])C3([H])C([H])([H])C4([H])C5(OC([H])([H])[H])C6=C([H])C7([H])C8([H])C6([H])C([H])(C([H])(C4([H])C3([H])[H])C12C(=O)OC([H])([H])[H])C71C([H])([H])C([H])([H])[N+]([H])([H])C5(C([H])([H])[H])C81[H]

$$$$
54:0:0
     RDKit          3D

 48 52  0  0  1  0  0  0  0  0999 V2000
    8.9523   -2.4187    0.2191 C   0  0  0  0  0  0  0  0  0  0  0  0
    7.7595   -1.7927   -0.2154 O   0  0  0  0  0  0  0  0  0  0  0  0
    6.9621   -2.6261   -1.0226 C   0  0  2  0  0  0  0  0  0  0  0  0
    5.5500   -2.3750   -1.0452 C   0  0  2  0  0  0  0  0  0  0  0  0
    4.8155   -1.6004    0.3606 C   0  0  1  0  0  0  0  0  0  0  0  0
    5.6416   -0.5019    1.0929 C   0  0  0  0  0  0  0  0  0  0  0  0
    3.5352   -0.8445   -0.1412 C   0  0  0  0  0  0  0  0  0  0  0  0
    3.3837   -0.7775   -1.7242 C   0  0  0  0  0  0  0  0  0  0  0  0
    3.5920   -2.1123   -2.4712 C   0  0  1  0  0  0  0  0  0  0  0  0
    4.2864   -1.9544   -3.8432 C   0  0  0  0  0  0  0  0  0  0  0  0
    4.0994   -3.1700   -1.2874 C   0  0  1  0  0  0  0  0  0  0  0  0
    2.6274   -3.5912   -0.7169 C   0  0  0  0  0  0  0  0  0  0  0  0
    1.5879   -3.5900   -1.3647 O   0  0  0  0  0  0  0  0  0  0  0  0
    2.6463   -4.0224    0.5188 O   0  0  0  0  0  0  0  0  0  0  0  0
    3.9046   -4.3725    0.9529 C   0  0  1  0  0  0  0  0  0  0  0  0
    3.6785   -5.2603    2.1922 C   0  0  0  0  0  0  0  0  0  0  0  0
    4.4842   -5.2593   -0.3279 C   0  0  0  0  0  0  0  0  0  0  0  0
    4.9201   -4.0533   -1.4905 C   0  0  2  0  0  0  0  0  0  0  0  0
    5.0120   -4.4804   -2.8306 O   0  0  0  0  0  0  0  0  0  0  0  0
    4.6397   -2.9453    1.3314 C   0  0  1  0  0  0  0  0  0  0  0  0
    5.9986   -3.4840    1.1482 C   0  0  0  0  0  0  0  0  0  0  0  0
    5.9377   -3.4673   -0.4488 C   0  0  2  0  0  0  0  0  0  0  0  0
    9.5416   -1.7168    0.8123 H   0  0  0  0  0  0  0  0  0  0  0  0
    9.5323   -2.7781   -0.6213 H   0  0  0  0  0  0  0  0  0  0  0  0
    8.7566   -3.2926    0.8356 H   0  0  0  0  0  0  0  0  0  0  0  0
    7.3359   -2.9106   -2.0077 H   0  0  0  0  0  0  0  0  0  0  0  0
    5.7105   -1.5666   -1.7821 H   0  0  0  0  0  0  0  0  0  0  0  0
    5.0438   -0.0626    1.8889 H   0  0  0  0  0  0  0  0  0  0  0  0
    5.9370    0.3025    0.4257 H   0  0  0  0  0  0  0  0  0  0  0  0
    6.5488   -0.8373    1.5794 H   0  0  0  0  0  0  0  0  0  0  0  0
    2.6400   -1.2339    0.3425 H   0  0  0  0  0  0  0  0  0  0  0  0
    3.5629    0.1548    0.2627 H   0  0  0  0  0  0  0  0  0  0  0  0
    2.3959   -0.4293   -2.0175 H   0  0  0  0  0  0  0  0  0  0  0  0
    4.0689   -0.0431   -2.1442 H   0  0  0  0  0  0  0  0  0  0  0  0
    2.6268   -2.3689   -2.8880 H   0  0  0  0  0  0  0  0  0  0  0  0
    5.3461   -1.7852   -3.7601 H   0  0  0  0  0  0  0  0  0  0  0  0
    3.8450   -1.1359   -4.4100 H   0  0  0  0  0  0  0  0  0  0  0  0
    4.1732   -2.8468   -4.4526 H   0  0  0  0  0  0  0  0  0  0  0  0
    4.6148   -5.6376    2.6081 H   0  0  0  0  0  0  0  0  0  0  0  0
    3.0570   -6.1192    1.9374 H   0  0  0  0  0  0  0  0  0  0  0  0
    3.1605   -4.7005    2.9723 H   0  0  0  0  0  0  0  0  0  0  0  0
    5.3221   -5.9013   -0.0394 H   0  0  0  0  0  0  0  0  0  0  0  0
    3.7410   -5.9568   -0.6891 H   0  0  0  0  0  0  0  0  0  0  0  0
    4.3656   -5.1827   -2.9103 H   0  0  0  0  0  0  0  0  0  0  0  0
    4.4469   -2.6618    2.3666 H   0  0  0  0  0  0  0  0  0  0  0  0
    6.7281   -2.8499    1.6266 H   0  0  0  0  0  0  0  0  0  0  0  0
    6.1897   -4.4806    1.5481 H   0  0  0  0  0  0  0  0  0  0  0  0
    6.6616   -4.3538   -0.5419 H   0  0  0  0  0  0  0  0  0  0  0  0
  1  2  1  0
  1 23  1  0
  1 24  1  0
  1 25  1  0
  2  3  1  0
  3 22  1  0
  3  4  1  0
  3 26  1  6
  4 18  1  0
  4  5  1  0
  4 27  1  6
  5 20  1  0
  5  6  1  1
  5  7  1  0
  6 28  1  0
  6 29  1  0
  6 30  1  0
  7  8  1  0
  7 31  1  0
  7 32  1  0
  8  9  1  0
  8 33  1  0
  8 34  1  0
  9 10  1  0
  9 11  1  0
  9 35  1  6
 10 36  1  0
 10 37  1  0
 10 38  1  0
 11 18  1  0
 11 22  1  0
 11 12  1  1
 12 13  2  0
 12 14  1  0
 14 15  1  0
 15 16  1  1
 15 17  1  0
 15 20  1  0
 16 39  1  0
 16 40  1  0
 16 41  1  0
 17 18  1  0
 17 42  1  0
 17 43  1  0
 18 19  1  6
 19 44  1  0
 20 21  1  0
 20 45  1  1
 21 22  1  0
 21 46  1  0
 21 47  1  0
 22 48  1  6
M  END
>  <i_m_ct_stereo_status>  (153) 
1

>  <s_m_source_file>  (153) 
/var/tmp/pbs.5076255.sched01/tmpscvaj2_a/3886avry94.sdf

>  <i_m_source_file_index>  (153) 
29

>  <i_lp_mmshare_version>  (153) 
48012

>  <i_f3d_flags>  (153) 
0

>  <s_epik_input>  (153) 
W0NIM11PW0NASF0xW0NASF0yW0NIMl1bQ0BIXShbQ0BdKFtDSDNdKShbQ0gyXTMpT0M0PU8pW0NAQF0oW0NIM10pKFtDQEBIXTFbQ0BAXTMoQzI0NSlbT0hdKVtDSDJdW0NIMl1bQ0BIXTVbQ0gzXQ==

>  <s_epik_cmdline>  (153) 
J2VwaWtfcHl0aG9uJywgJy1waHQnLCAnMi4wJywgJy1waCcsICc3LjAnLCAnLXRuJywgJzgnLCAnLW1hJywgJzIwMCcsICctaW1hZScsICc8aW5maWxlLm1hZT4nLCAnLW9tYWUnLCAnPG91dGZpbGUubWFlPic=

>  <r_lp_tautomer_probability>  (153) 
1

>  <r_epik_Ionization_Penalty>  (153) 
3.80786e-08

>  <r_epik_Ionization_Penalty_Charging>  (153) 
0

>  <r_epik_Ionization_Penalty_Neutral>  (153) 
3.80786e-08

>  <r_epik_State_Penalty>  (153) 
-0

>  <r_epik_Charging_Adjusted_Penalty>  (153) 
0

>  <i_epik_Tot_Q>  (153) 
0

>  <i_epik_Tot_abs_Q>  (153) 
0

>  <s_epik_Chemistry_Notes>  (153) 
This compound has an ester and may undergo hydrolysis at high or low pH.

>  <s_lp_Force_Field>  (153) 
OPLS3e

>  <r_lp_Energy>  (153) 
647.303

>  <b_lp_Chiralities_Consistent>  (153) 
1

>  <s_lp_Variant>  (153) 
54:0-1

>  <s_i_glide_gridfile>  (153) 
pfpi4k_grid

>  <i_i_glide_lignum>  (153) 
29

>  <i_i_glide_rotatable_bonds>  (153) 
2

>  <r_i_docking_score>  (153) 
-3.51714

>  <r_i_glide_ligand_efficiency>  (153) 
-0.15987

>  <r_i_glide_ligand_efficiency_sa>  (153) 
-0.447961

>  <r_i_glide_ligand_efficiency_ln>  (153) 
-0.859716

>  <r_i_glide_gscore>  (153) 
-3.51714

>  <r_i_glide_lipo>  (153) 
-0.382862

>  <r_i_glide_hbond>  (153) 
-0.480527

>  <r_i_glide_metal>  (153) 
-0

>  <r_i_glide_rewards>  (153) 
-1.32002

>  <r_i_glide_evdw>  (153) 
-9.2712

>  <r_i_glide_ecoul>  (153) 
-5.62703

>  <r_i_glide_erotb>  (153) 
0

>  <r_i_glide_esite>  (153) 
-0.0261083

>  <r_i_glide_emodel>  (153) 
-16.6776

>  <r_i_glide_energy>  (153) 
-14.8982

>  <r_i_glide_einternal>  (153) 
0.836391

>  <r_i_glide_intrahb_reward>  (153) 
-0

>  <i_i_glide_confnum>  (153) 
2

>  <i_i_glide_posenum>  (153) 
19

>  <r_i_glide_eff_state_penalty>  (153) 
0

>  <ligand_id>  (153) 
54

>  <original_smiles>  (153) 
COC1C2C3(C)CCC(C)C45C(=O)OC(C)(CC24O)C3CC15

>  <smiles>  (153) 
[H]OC12C([H])([H])C3(C([H])([H])[H])OC(=O)C14C([H])(C([H])([H])[H])C([H])([H])C([H])([H])C1(C([H])([H])[H])C3([H])C([H])([H])C4([H])C([H])(OC([H])([H])[H])C21[H]

$$$$
54:0:1
     RDKit          3D

 48 52  0  0  1  0  0  0  0  0999 V2000
    9.0892   -2.3043    0.0743 C   0  0  0  0  0  0  0  0  0  0  0  0
    7.8123   -2.3232    0.6690 O   0  0  0  0  0  0  0  0  0  0  0  0
    7.0066   -3.4072    0.2552 C   0  0  2  0  0  0  0  0  0  0  0  0
    5.7215   -3.0613   -0.2699 C   0  0  2  0  0  0  0  0  0  0  0  0
    4.9652   -1.5590    0.2585 C   0  0  1  0  0  0  0  0  0  0  0  0
    5.8810   -0.3526    0.5602 C   0  0  0  0  0  0  0  0  0  0  0  0
    4.0552   -1.0383   -0.9225 C   0  0  0  0  0  0  0  0  0  0  0  0
    4.1880   -1.8157   -2.2847 C   0  0  0  0  0  0  0  0  0  0  0  0
    4.2299   -3.3722   -2.1590 C   0  0  1  0  0  0  0  0  0  0  0  0
    5.2176   -4.0567   -3.1362 C   0  0  0  0  0  0  0  0  0  0  0  0
    4.2063   -3.6810   -0.5163 C   0  0  1  0  0  0  0  0  0  0  0  0
    2.6174   -3.5274   -0.2830 C   0  0  0  0  0  0  0  0  0  0  0  0
    1.7564   -3.7344   -1.1395 O   0  0  0  0  0  0  0  0  0  0  0  0
    2.2911   -3.1944    0.9332 O   0  0  0  0  0  0  0  0  0  0  0  0
    3.2876   -3.4116    1.8520 C   0  0  1  0  0  0  0  0  0  0  0  0
    2.5846   -3.4422    3.2224 C   0  0  0  0  0  0  0  0  0  0  0  0
    3.8251   -4.9142    1.4306 C   0  0  0  0  0  0  0  0  0  0  0  0
    4.7722   -4.6268    0.0407 C   0  0  2  0  0  0  0  0  0  0  0  0
    5.0072   -5.7835   -0.7231 O   0  0  0  0  0  0  0  0  0  0  0  0
    4.2904   -2.1174    1.6754 C   0  0  1  0  0  0  0  0  0  0  0  0
    5.4815   -2.8253    2.1948 C   0  0  0  0  0  0  0  0  0  0  0  0
    5.7172   -3.6799    0.8664 C   0  0  2  0  0  0  0  0  0  0  0  0
    9.6721   -1.4877    0.4995 H   0  0  0  0  0  0  0  0  0  0  0  0
    9.0056   -2.1413   -1.0005 H   0  0  0  0  0  0  0  0  0  0  0  0
    9.6493   -3.2239    0.2429 H   0  0  0  0  0  0  0  0  0  0  0  0
    7.4710   -4.2582   -0.2423 H   0  0  0  0  0  0  0  0  0  0  0  0
    6.2243   -2.8120   -1.2202 H   0  0  0  0  0  0  0  0  0  0  0  0
    5.2712    0.5168    0.8156 H   0  0  0  0  0  0  0  0  0  0  0  0
    6.4946   -0.1011   -0.3002 H   0  0  0  0  0  0  0  0  0  0  0  0
    6.5532   -0.4810    1.3999 H   0  0  0  0  0  0  0  0  0  0  0  0
    3.0198   -0.9944   -0.5955 H   0  0  0  0  0  0  0  0  0  0  0  0
    4.2856   -0.0034   -1.1607 H   0  0  0  0  0  0  0  0  0  0  0  0
    3.3597   -1.5294   -2.9390 H   0  0  0  0  0  0  0  0  0  0  0  0
    5.0908   -1.4772   -2.7930 H   0  0  0  0  0  0  0  0  0  0  0  0
    3.3485   -3.7278   -2.6740 H   0  0  0  0  0  0  0  0  0  0  0  0
    6.2667   -3.9384   -2.8931 H   0  0  0  0  0  0  0  0  0  0  0  0
    5.0765   -3.6759   -4.1492 H   0  0  0  0  0  0  0  0  0  0  0  0
    5.0117   -5.1247   -3.1995 H   0  0  0  0  0  0  0  0  0  0  0  0
    3.2826   -3.6336    4.0383 H   0  0  0  0  0  0  0  0  0  0  0  0
    1.8217   -4.2221    3.2567 H   0  0  0  0  0  0  0  0  0  0  0  0
    2.0892   -2.4914    3.4243 H   0  0  0  0  0  0  0  0  0  0  0  0
    4.3862   -5.3948    2.2334 H   0  0  0  0  0  0  0  0  0  0  0  0
    3.0043   -5.6023    1.2259 H   0  0  0  0  0  0  0  0  0  0  0  0
    4.3188   -5.8566   -1.3602 H   0  0  0  0  0  0  0  0  0  0  0  0
    3.9662   -1.2905    2.3057 H   0  0  0  0  0  0  0  0  0  0  0  0
    6.2972   -2.1761    2.4731 H   0  0  0  0  0  0  0  0  0  0  0  0
    5.3048   -3.4406    3.0728 H   0  0  0  0  0  0  0  0  0  0  0  0
    6.1933   -4.5478    1.4537 H   0  0  0  0  0  0  0  0  0  0  0  0
  1  2  1  0
  1 23  1  0
  1 24  1  0
  1 25  1  0
  2  3  1  0
  3 22  1  0
  3  4  1  0
  3 26  1  6
  4 18  1  0
  4  5  1  0
  4 27  1  6
  5 20  1  0
  5  6  1  1
  5  7  1  0
  6 28  1  0
  6 29  1  0
  6 30  1  0
  7  8  1  0
  7 31  1  0
  7 32  1  0
  8  9  1  0
  8 33  1  0
  8 34  1  0
  9 10  1  0
  9 11  1  0
  9 35  1  6
 10 36  1  0
 10 37  1  0
 10 38  1  0
 11 18  1  0
 11 22  1  0
 11 12  1  1
 12 13  2  0
 12 14  1  0
 14 15  1  0
 15 16  1  1
 15 17  1  0
 15 20  1  0
 16 39  1  0
 16 40  1  0
 16 41  1  0
 17 18  1  0
 17 42  1  0
 17 43  1  0
 18 19  1  6
 19 44  1  0
 20 21  1  0
 20 45  1  1
 21 22  1  0
 21 46  1  0
 21 47  1  0
 22 48  1  1
M  END
>  <i_m_ct_stereo_status>  (154) 
1

>  <s_m_source_file>  (154) 
/var/tmp/pbs.5076255.sched01/tmpscvaj2_a/3886avry94.sdf

>  <i_m_source_file_index>  (154) 
29

>  <i_lp_mmshare_version>  (154) 
48012

>  <i_f3d_flags>  (154) 
0

>  <s_epik_input>  (154) 
W0NIM11PW0NASF0xW0NASF0yW0NIMl1bQ0BIXShbQ0BdKFtDSDNdKShbQ0gyXTMpT0M0PU8pW0NAQF0oW0NIM10pKFtDQEBIXTFbQ0BAXTMoQzI0NSlbT0hdKVtDSDJdW0NIMl1bQ0BIXTVbQ0gzXQ==

>  <s_epik_cmdline>  (154) 
J2VwaWtfcHl0aG9uJywgJy1waHQnLCAnMi4wJywgJy1waCcsICc3LjAnLCAnLXRuJywgJzgnLCAnLW1hJywgJzIwMCcsICctaW1hZScsICc8aW5maWxlLm1hZT4nLCAnLW9tYWUnLCAnPG91dGZpbGUubWFlPic=

>  <r_lp_tautomer_probability>  (154) 
1

>  <r_epik_Ionization_Penalty>  (154) 
3.80786e-08

>  <r_epik_Ionization_Penalty_Charging>  (154) 
0

>  <r_epik_Ionization_Penalty_Neutral>  (154) 
3.80786e-08

>  <r_epik_State_Penalty>  (154) 
-0

>  <r_epik_Charging_Adjusted_Penalty>  (154) 
0

>  <i_epik_Tot_Q>  (154) 
0

>  <i_epik_Tot_abs_Q>  (154) 
0

>  <s_epik_Chemistry_Notes>  (154) 
This compound has an ester and may undergo hydrolysis at high or low pH.

>  <s_lp_Force_Field>  (154) 
OPLS3e

>  <r_lp_Energy>  (154) 
647.303

>  <b_lp_Chiralities_Consistent>  (154) 
1

>  <s_lp_Variant>  (154) 
54:0-1

>  <s_i_glide_gridfile>  (154) 
pfpi4k_grid

>  <i_i_glide_lignum>  (154) 
29

>  <i_i_glide_rotatable_bonds>  (154) 
2

>  <r_i_docking_score>  (154) 
-3.25956

>  <r_i_glide_ligand_efficiency>  (154) 
-0.148162

>  <r_i_glide_ligand_efficiency_sa>  (154) 
-0.415155

>  <r_i_glide_ligand_efficiency_ln>  (154) 
-0.796755

>  <r_i_glide_gscore>  (154) 
-3.25956

>  <r_i_glide_lipo>  (154) 
-0.488449

>  <r_i_glide_hbond>  (154) 
-0.339275

>  <r_i_glide_metal>  (154) 
-0

>  <r_i_glide_rewards>  (154) 
-1.32002

>  <r_i_glide_evdw>  (154) 
-13.3474

>  <r_i_glide_ecoul>  (154) 
-2.75906

>  <r_i_glide_erotb>  (154) 
0

>  <r_i_glide_esite>  (154) 
-0.0305826

>  <r_i_glide_emodel>  (154) 
-18.0047

>  <r_i_glide_energy>  (154) 
-16.1064

>  <r_i_glide_einternal>  (154) 
1.01159

>  <r_i_glide_intrahb_reward>  (154) 
-0

>  <i_i_glide_confnum>  (154) 
1

>  <i_i_glide_posenum>  (154) 
2

>  <r_i_glide_eff_state_penalty>  (154) 
0

>  <ligand_id>  (154) 
54

>  <original_smiles>  (154) 
COC1C2C3(C)CCC(C)C45C(=O)OC(C)(CC24O)C3CC15

>  <smiles>  (154) 
[H]OC12C([H])([H])C3(C([H])([H])[H])OC(=O)C14C([H])(C([H])([H])[H])C([H])([H])C([H])([H])C1(C([H])([H])[H])C3([H])C([H])([H])C4([H])C([H])(OC([H])([H])[H])C21[H]

$$$$
54:0:2
     RDKit          3D

 48 52  0  0  1  0  0  0  0  0999 V2000
    3.9608    0.1593   -3.1585 C   0  0  0  0  0  0  0  0  0  0  0  0
    4.8512   -0.5497   -2.3144 O   0  0  0  0  0  0  0  0  0  0  0  0
    4.3839   -0.6396   -0.9752 C   0  0  2  0  0  0  0  0  0  0  0  0
    4.9503   -1.6412   -0.1445 C   0  0  2  0  0  0  0  0  0  0  0  0
    5.5548   -3.0975   -0.9413 C   0  0  1  0  0  0  0  0  0  0  0  0
    6.2277   -2.9268   -2.3239 C   0  0  0  0  0  0  0  0  0  0  0  0
    6.6917   -3.7135   -0.0617 C   0  0  0  0  0  0  0  0  0  0  0  0
    7.1405   -2.8126    1.1302 C   0  0  0  0  0  0  0  0  0  0  0  0
    5.9857   -2.1441    1.9808 C   0  0  1  0  0  0  0  0  0  0  0  0
    6.2409   -0.6732    2.4343 C   0  0  0  0  0  0  0  0  0  0  0  0
    4.5958   -2.5878    1.1997 C   0  0  1  0  0  0  0  0  0  0  0  0
    4.4445   -4.0912    1.8452 C   0  0  0  0  0  0  0  0  0  0  0  0
    4.9232   -4.4778    2.9074 O   0  0  0  0  0  0  0  0  0  0  0  0
    3.7408   -4.8920    1.1073 O   0  0  0  0  0  0  0  0  0  0  0  0
    3.0125   -4.2456    0.1352 C   0  0  1  0  0  0  0  0  0  0  0  0
    1.9213   -5.2474   -0.2859 C   0  0  0  0  0  0  0  0  0  0  0  0
    2.3414   -2.9956    0.9991 C   0  0  0  0  0  0  0  0  0  0  0  0
    3.6052   -1.8514    1.1235 C   0  0  2  0  0  0  0  0  0  0  0  0
    3.3852   -0.8825    2.1357 O   0  0  0  0  0  0  0  0  0  0  0  0
    4.0989   -3.8942   -1.0765 C   0  0  1  0  0  0  0  0  0  0  0  0
    3.2963   -2.7932   -1.6386 C   0  0  0  0  0  0  0  0  0  0  0  0
    3.6833   -1.7918   -0.4625 C   0  0  2  0  0  0  0  0  0  0  0  0
    4.3023    0.1903   -4.1944 H   0  0  0  0  0  0  0  0  0  0  0  0
    3.9198    1.1925   -2.8538 H   0  0  0  0  0  0  0  0  0  0  0  0
    2.9472   -0.2464   -3.1400 H   0  0  0  0  0  0  0  0  0  0  0  0
    4.2140    0.2709   -0.3988 H   0  0  0  0  0  0  0  0  0  0  0  0
    5.8411   -1.0070   -0.0077 H   0  0  0  0  0  0  0  0  0  0  0  0
    6.6093   -3.8807   -2.6778 H   0  0  0  0  0  0  0  0  0  0  0  0
    7.0763   -2.2422   -2.2851 H   0  0  0  0  0  0  0  0  0  0  0  0
    5.5683   -2.6149   -3.1295 H   0  0  0  0  0  0  0  0  0  0  0  0
    6.4141   -4.7066    0.2933 H   0  0  0  0  0  0  0  0  0  0  0  0
    7.5965   -3.9056   -0.6452 H   0  0  0  0  0  0  0  0  0  0  0  0
    7.7458   -3.4946    1.7180 H   0  0  0  0  0  0  0  0  0  0  0  0
    7.8212   -2.0340    0.7732 H   0  0  0  0  0  0  0  0  0  0  0  0
    6.0598   -2.5638    2.9796 H   0  0  0  0  0  0  0  0  0  0  0  0
    6.1752    0.0850    1.6528 H   0  0  0  0  0  0  0  0  0  0  0  0
    7.2349   -0.5902    2.8628 H   0  0  0  0  0  0  0  0  0  0  0  0
    5.5724   -0.3761    3.2445 H   0  0  0  0  0  0  0  0  0  0  0  0
    1.2635   -4.8695   -1.0728 H   0  0  0  0  0  0  0  0  0  0  0  0
    1.3211   -5.5580    0.5645 H   0  0  0  0  0  0  0  0  0  0  0  0
    2.3825   -6.1586   -0.6449 H   0  0  0  0  0  0  0  0  0  0  0  0
    1.4755   -2.5858    0.4925 H   0  0  0  0  0  0  0  0  0  0  0  0
    1.9543   -3.3172    1.9658 H   0  0  0  0  0  0  0  0  0  0  0  0
    2.5890   -0.4184    1.9275 H   0  0  0  0  0  0  0  0  0  0  0  0
    4.2592   -4.6990   -1.7814 H   0  0  0  0  0  0  0  0  0  0  0  0
    3.5824   -2.4915   -2.6353 H   0  0  0  0  0  0  0  0  0  0  0  0
    2.2259   -2.9680   -1.7008 H   0  0  0  0  0  0  0  0  0  0  0  0
    2.7099   -1.2113   -0.5567 H   0  0  0  0  0  0  0  0  0  0  0  0
  1  2  1  0
  1 23  1  0
  1 24  1  0
  1 25  1  0
  2  3  1  0
  3 22  1  0
  3  4  1  0
  3 26  1  1
  4 18  1  0
  4  5  1  0
  4 27  1  1
  5 20  1  0
  5  6  1  6
  5  7  1  0
  6 28  1  0
  6 29  1  0
  6 30  1  0
  7  8  1  0
  7 31  1  0
  7 32  1  0
  8  9  1  0
  8 33  1  0
  8 34  1  0
  9 10  1  0
  9 11  1  0
  9 35  1  1
 10 36  1  0
 10 37  1  0
 10 38  1  0
 11 18  1  0
 11 22  1  0
 11 12  1  6
 12 13  2  0
 12 14  1  0
 14 15  1  0
 15 16  1  6
 15 17  1  0
 15 20  1  0
 16 39  1  0
 16 40  1  0
 16 41  1  0
 17 18  1  0
 17 42  1  0
 17 43  1  0
 18 19  1  1
 19 44  1  0
 20 21  1  0
 20 45  1  6
 21 22  1  0
 21 46  1  0
 21 47  1  0
 22 48  1  1
M  END
>  <i_m_ct_stereo_status>  (155) 
1

>  <s_m_source_file>  (155) 
/var/tmp/pbs.5076255.sched01/tmpscvaj2_a/3886avry94.sdf

>  <i_m_source_file_index>  (155) 
29

>  <i_lp_mmshare_version>  (155) 
48012

>  <i_f3d_flags>  (155) 
0

>  <s_epik_input>  (155) 
W0NIM11PW0NASF0xW0NASF0yW0NIMl1bQ0BIXShbQ0BdKFtDSDNdKShbQ0gyXTMpT0M0PU8pW0NAQF0oW0NIM10pKFtDQEBIXTFbQ0BAXTMoQzI0NSlbT0hdKVtDSDJdW0NIMl1bQ0BIXTVbQ0gzXQ==

>  <s_epik_cmdline>  (155) 
J2VwaWtfcHl0aG9uJywgJy1waHQnLCAnMi4wJywgJy1waCcsICc3LjAnLCAnLXRuJywgJzgnLCAnLW1hJywgJzIwMCcsICctaW1hZScsICc8aW5maWxlLm1hZT4nLCAnLW9tYWUnLCAnPG91dGZpbGUubWFlPic=

>  <r_lp_tautomer_probability>  (155) 
1

>  <r_epik_Ionization_Penalty>  (155) 
3.80786e-08

>  <r_epik_Ionization_Penalty_Charging>  (155) 
0

>  <r_epik_Ionization_Penalty_Neutral>  (155) 
3.80786e-08

>  <r_epik_State_Penalty>  (155) 
-0

>  <r_epik_Charging_Adjusted_Penalty>  (155) 
0

>  <i_epik_Tot_Q>  (155) 
0

>  <i_epik_Tot_abs_Q>  (155) 
0

>  <s_epik_Chemistry_Notes>  (155) 
This compound has an ester and may undergo hydrolysis at high or low pH.

>  <s_lp_Force_Field>  (155) 
OPLS3e

>  <r_lp_Energy>  (155) 
647.303

>  <b_lp_Chiralities_Consistent>  (155) 
1

>  <s_lp_Variant>  (155) 
54:0-1

>  <s_i_glide_gridfile>  (155) 
pfpi4k_grid

>  <i_i_glide_lignum>  (155) 
29

>  <i_i_glide_rotatable_bonds>  (155) 
2

>  <r_i_docking_score>  (155) 
-2.60496

>  <r_i_glide_ligand_efficiency>  (155) 
-0.118407

>  <r_i_glide_ligand_efficiency_sa>  (155) 
-0.331782

>  <r_i_glide_ligand_efficiency_ln>  (155) 
-0.636748

>  <r_i_glide_gscore>  (155) 
-2.60496

>  <r_i_glide_lipo>  (155) 
-0.431

>  <r_i_glide_hbond>  (155) 
0

>  <r_i_glide_metal>  (155) 
-0

>  <r_i_glide_rewards>  (155) 
-1.34265

>  <r_i_glide_evdw>  (155) 
-8.85891

>  <r_i_glide_ecoul>  (155) 
-2.58911

>  <r_i_glide_erotb>  (155) 
0

>  <r_i_glide_esite>  (155) 
0

>  <r_i_glide_emodel>  (155) 
-13.0578

>  <r_i_glide_energy>  (155) 
-11.448

>  <r_i_glide_einternal>  (155) 
0.199042

>  <r_i_glide_intrahb_reward>  (155) 
-0

>  <i_i_glide_confnum>  (155) 
1

>  <i_i_glide_posenum>  (155) 
3

>  <r_i_glide_eff_state_penalty>  (155) 
0

>  <ligand_id>  (155) 
54

>  <original_smiles>  (155) 
COC1C2C3(C)CCC(C)C45C(=O)OC(C)(CC24O)C3CC15

>  <smiles>  (155) 
[H]OC12C([H])([H])C3(C([H])([H])[H])OC(=O)C14C([H])(C([H])([H])[H])C([H])([H])C([H])([H])C1(C([H])([H])[H])C3([H])C([H])([H])C4([H])C([H])(OC([H])([H])[H])C21[H]

$$$$
55:0:0
     RDKit          3D

 66 70  0  0  1  0  0  0  0  0999 V2000
    2.9575    2.5029   10.4405 C   0  0  0  0  0  0  0  0  0  0  0  0
    3.6884    1.8279    9.5205 C   0  0  0  0  0  0  0  0  0  0  0  0
    4.4693    2.4022    8.3150 C   0  0  1  0  0  0  0  0  0  0  0  0
    4.1728    1.4661    7.1090 C   0  0  0  0  0  0  0  0  0  0  0  0
    2.6978    1.3975    6.6750 C   0  0  0  0  0  0  0  0  0  0  0  0
    2.0788    2.7691    6.3112 C   0  0  1  0  0  0  0  0  0  0  0  0
    2.4057    3.7712    7.4331 C   0  0  2  0  0  0  0  0  0  0  0  0
    1.6941    5.1071    7.1852 C   0  0  0  0  0  0  0  0  0  0  0  0
    1.9137    5.7078    5.7901 C   0  0  0  0  0  0  0  0  0  0  0  0
    1.8118    4.7280    4.5924 C   0  0  2  0  0  0  0  0  0  0  0  0
    2.5515    5.3804    3.4104 C   0  0  0  0  0  0  0  0  0  0  0  0
    0.3778    4.4196    4.1364 C   0  0  0  0  0  0  0  0  0  0  0  0
   -0.5556    5.2354    4.1589 O   0  0  0  0  0  0  0  0  0  0  0  0
    0.2493    2.9981    3.6357 C   0  0  0  0  0  0  0  0  0  0  0  0
    1.6640    2.4309    3.8082 C   0  0  0  0  0  0  0  0  0  0  0  0
    2.3716    3.3022    4.8739 C   0  0  2  0  0  0  0  0  0  0  0  0
    3.9101    3.8265    7.9070 C   0  0  2  0  0  0  0  0  0  0  0  0
    4.8636    4.5815    6.9624 C   0  0  0  0  0  0  0  0  0  0  0  0
    6.2575    4.7205    7.5575 C   0  0  0  0  0  0  0  0  0  0  0  0
    6.9261    3.3626    7.7878 C   0  0  2  0  0  0  0  0  0  0  0  0
    7.4371    2.6992    6.4795 C   0  0  1  0  0  0  0  0  0  0  0  0
    8.2525    3.5558    5.7008 O   0  0  0  0  0  0  0  0  0  0  0  0
    8.2191    1.4115    6.7574 C   0  0  1  0  0  0  0  0  0  0  0  0
    9.3824    1.6762    7.5211 O   0  0  0  0  0  0  0  0  0  0  0  0
    7.3361    0.4269    7.5252 C   0  0  0  0  0  0  0  0  0  0  0  0
    6.7282    1.0334    8.8115 C   0  0  0  0  0  0  0  0  0  0  0  0
    6.0377    2.4426    8.7090 C   0  0  2  0  0  0  0  0  0  0  0  0
    6.1764    3.0208   10.1471 C   0  0  0  0  0  0  0  0  0  0  0  0
    2.8613    3.5721   10.4212 H   0  0  0  0  0  0  0  0  0  0  0  0
    2.4492    1.9853   11.2361 H   0  0  0  0  0  0  0  0  0  0  0  0
    3.7325    0.7542    9.6297 H   0  0  0  0  0  0  0  0  0  0  0  0
    4.7271    1.7555    6.2266 H   0  0  0  0  0  0  0  0  0  0  0  0
    4.4668    0.4476    7.3458 H   0  0  0  0  0  0  0  0  0  0  0  0
    2.6119    0.7044    5.8396 H   0  0  0  0  0  0  0  0  0  0  0  0
    2.1124    0.9447    7.4811 H   0  0  0  0  0  0  0  0  0  0  0  0
    0.9916    2.6214    6.3446 H   0  0  0  0  0  0  0  0  0  0  0  0
    1.8538    3.3837    8.2809 H   0  0  0  0  0  0  0  0  0  0  0  0
    0.6149    4.9655    7.3257 H   0  0  0  0  0  0  0  0  0  0  0  0
    1.9822    5.8282    7.9490 H   0  0  0  0  0  0  0  0  0  0  0  0
    1.1807    6.5007    5.6745 H   0  0  0  0  0  0  0  0  0  0  0  0
    2.8731    6.2351    5.7510 H   0  0  0  0  0  0  0  0  0  0  0  0
    3.6262    5.4362    3.6042 H   0  0  0  0  0  0  0  0  0  0  0  0
    2.1969    6.3985    3.2480 H   0  0  0  0  0  0  0  0  0  0  0  0
    2.4126    4.8378    2.4767 H   0  0  0  0  0  0  0  0  0  0  0  0
   -0.4813    2.4692    4.2417 H   0  0  0  0  0  0  0  0  0  0  0  0
   -0.0747    2.9571    2.5956 H   0  0  0  0  0  0  0  0  0  0  0  0
    1.6356    1.3649    4.0446 H   0  0  0  0  0  0  0  0  0  0  0  0
    2.1981    2.5196    2.8618 H   0  0  0  0  0  0  0  0  0  0  0  0
    3.4512    3.2702    4.6949 H   0  0  0  0  0  0  0  0  0  0  0  0
    3.9203    4.4644    8.7864 H   0  0  0  0  0  0  0  0  0  0  0  0
    4.9265    4.1274    5.9779 H   0  0  0  0  0  0  0  0  0  0  0  0
    4.5092    5.6002    6.8404 H   0  0  0  0  0  0  0  0  0  0  0  0
    6.8710    5.3445    6.9088 H   0  0  0  0  0  0  0  0  0  0  0  0
    6.1905    5.2591    8.5004 H   0  0  0  0  0  0  0  0  0  0  0  0
    7.8376    3.5954    8.3439 H   0  0  0  0  0  0  0  0  0  0  0  0
    6.6004    2.4509    5.8406 H   0  0  0  0  0  0  0  0  0  0  0  0
    9.0663    3.6991    6.1627 H   0  0  0  0  0  0  0  0  0  0  0  0
    8.5322    0.9572    5.8149 H   0  0  0  0  0  0  0  0  0  0  0  0
   10.0464    2.0343    6.9429 H   0  0  0  0  0  0  0  0  0  0  0  0
    6.5529    0.0717    6.8584 H   0  0  0  0  0  0  0  0  0  0  0  0
    7.9174   -0.4622    7.7794 H   0  0  0  0  0  0  0  0  0  0  0  0
    6.0449    0.3089    9.2410 H   0  0  0  0  0  0  0  0  0  0  0  0
    7.5564    1.0966    9.5287 H   0  0  0  0  0  0  0  0  0  0  0  0
    7.2166    3.2125   10.4090 H   0  0  0  0  0  0  0  0  0  0  0  0
    5.8086    2.3305   10.9079 H   0  0  0  0  0  0  0  0  0  0  0  0
    5.6373    3.9571   10.2740 H   0  0  0  0  0  0  0  0  0  0  0  0
  1  2  2  0
  1 29  1  0
  1 30  1  0
  3  2  1  1
  2 31  1  0
  3 17  1  0
  3 27  1  0
  3  4  1  0
  4  5  1  0
  4 32  1  0
  4 33  1  0
  5  6  1  0
  5 34  1  0
  5 35  1  0
  6 16  1  0
  6  7  1  0
  6 36  1  6
  7  8  1  0
  7 17  1  0
  7 37  1  1
  8  9  1  0
  8 38  1  0
  8 39  1  0
  9 10  1  0
  9 40  1  0
  9 41  1  0
 10 16  1  0
 10 11  1  6
 10 12  1  0
 11 42  1  0
 11 43  1  0
 11 44  1  0
 12 13  2  0
 12 14  1  0
 14 15  1  0
 14 45  1  0
 14 46  1  0
 15 16  1  0
 15 47  1  0
 15 48  1  0
 16 49  1  6
 17 18  1  0
 17 50  1  1
 18 19  1  0
 18 51  1  0
 18 52  1  0
 19 20  1  0
 19 53  1  0
 19 54  1  0
 20 27  1  0
 20 21  1  0
 20 55  1  1
 21 22  1  0
 21 23  1  0
 21 56  1  6
 22 57  1  0
 23 24  1  0
 23 25  1  0
 23 58  1  6
 24 59  1  0
 25 26  1  0
 25 60  1  0
 25 61  1  0
 26 27  1  0
 26 62  1  0
 26 63  1  0
 27 28  1  1
 28 64  1  0
 28 65  1  0
 28 66  1  0
M  END
>  <i_m_ct_stereo_status>  (156) 
1

>  <s_m_source_file>  (156) 
/var/tmp/pbs.5076255.sched01/tmpscvaj2_a/3886avry94.sdf

>  <i_m_source_file_index>  (156) 
30

>  <i_lp_mmshare_version>  (156) 
48012

>  <i_f3d_flags>  (156) 
0

>  <s_epik_input>  (156) 
W0NIMl0xW0NIMl1DKD1PKVtDQEBdKFtDSDNdKShbQ0gyXVtDSDJdMilbQ0BIXTFbQ0BASF0oW0NIMl1bQ0gyXTMpW0NASF0yW0NAQEhdKFtDQEBdMzRbQ0hdPVtDSDJdKVtDSDJdW0NIMl1bQ0BIXTVbQ0BdNChbQ0gzXSlbQ0gyXVtDSDJdW0NASF0oW09IXSlbQ0BASF01W09IXQ==

>  <s_epik_cmdline>  (156) 
J2VwaWtfcHl0aG9uJywgJy1waHQnLCAnMi4wJywgJy1waCcsICc3LjAnLCAnLXRuJywgJzgnLCAnLW1hJywgJzIwMCcsICctaW1hZScsICc8aW5maWxlLm1hZT4nLCAnLW9tYWUnLCAnPG91dGZpbGUubWFlPic=

>  <r_lp_tautomer_probability>  (156) 
1

>  <r_epik_Ionization_Penalty>  (156) 
1.51322e-06

>  <r_epik_Ionization_Penalty_Charging>  (156) 
0

>  <r_epik_Ionization_Penalty_Neutral>  (156) 
1.51322e-06

>  <r_epik_State_Penalty>  (156) 
-0

>  <r_epik_Charging_Adjusted_Penalty>  (156) 
0

>  <i_epik_Tot_Q>  (156) 
0

>  <i_epik_Tot_abs_Q>  (156) 
0

>  <s_lp_Force_Field>  (156) 
OPLS3e

>  <r_lp_Energy>  (156) 
61.2781

>  <b_lp_Chiralities_Consistent>  (156) 
1

>  <s_lp_Variant>  (156) 
55:0-1

>  <s_i_glide_gridfile>  (156) 
pfpi4k_grid

>  <i_i_glide_lignum>  (156) 
30

>  <i_i_glide_rotatable_bonds>  (156) 
3

>  <r_i_docking_score>  (156) 
-2.58386

>  <r_i_glide_ligand_efficiency>  (156) 
-0.0922807

>  <r_i_glide_ligand_efficiency_sa>  (156) 
-0.280219

>  <r_i_glide_ligand_efficiency_ln>  (156) 
-0.596431

>  <r_i_glide_gscore>  (156) 
-2.58386

>  <r_i_glide_lipo>  (156) 
-0.202529

>  <r_i_glide_hbond>  (156) 
-0.0519335

>  <r_i_glide_metal>  (156) 
-0

>  <r_i_glide_rewards>  (156) 
-0.773404

>  <r_i_glide_evdw>  (156) 
-19.0302

>  <r_i_glide_ecoul>  (156) 
-4.46771

>  <r_i_glide_erotb>  (156) 
0.130256

>  <r_i_glide_esite>  (156) 
-0.064582

>  <r_i_glide_emodel>  (156) 
-26.2694

>  <r_i_glide_energy>  (156) 
-23.4979

>  <r_i_glide_einternal>  (156) 
1.69645

>  <r_i_glide_intrahb_reward>  (156) 
-0

>  <i_i_glide_confnum>  (156) 
1

>  <i_i_glide_posenum>  (156) 
5

>  <r_i_glide_eff_state_penalty>  (156) 
0

>  <ligand_id>  (156) 
55

>  <original_smiles>  (156) 
C=CC12CCC3C(CCC4(C)C(=O)CCC34)C1CCC1C(O)C(O)CCC12C

>  <smiles>  (156) 
[H]OC1([H])C([H])([H])C([H])([H])C2(C([H])([H])[H])C([H])(C([H])([H])C([H])([H])C3([H])C4([H])C([H])([H])C([H])([H])C5(C([H])([H])[H])C(=O)C([H])([H])C([H])([H])C5([H])C4([H])C([H])([H])C([H])([H])C32C([H])=C([H])[H])C1([H])O[H]

$$$$
55:0:1
     RDKit          3D

 66 70  0  0  1  0  0  0  0  0999 V2000
    8.5214   -2.8969    0.8787 C   0  0  0  0  0  0  0  0  0  0  0  0
    7.7145   -3.8693    1.4740 C   0  0  0  0  0  0  0  0  0  0  0  0
    6.2208   -4.2183    1.3028 C   0  0  1  0  0  0  0  0  0  0  0  0
    5.3355   -2.9869    1.5937 C   0  0  0  0  0  0  0  0  0  0  0  0
    5.5705   -1.7720    0.6681 C   0  0  0  0  0  0  0  0  0  0  0  0
    5.4826   -2.1314   -0.8358 C   0  0  1  0  0  0  0  0  0  0  0  0
    6.2152   -3.4028   -1.1759 C   0  0  2  0  0  0  0  0  0  0  0  0
    6.1336   -3.4606   -2.7290 C   0  0  0  0  0  0  0  0  0  0  0  0
    4.7837   -3.6131   -3.3994 C   0  0  0  0  0  0  0  0  0  0  0  0
    3.8531   -2.5245   -2.9589 C   0  0  2  0  0  0  0  0  0  0  0  0
    2.4167   -2.9856   -3.2693 C   0  0  0  0  0  0  0  0  0  0  0  0
    4.0972   -1.1996   -3.7126 C   0  0  0  0  0  0  0  0  0  0  0  0
    4.2044   -1.0039   -4.9083 O   0  0  0  0  0  0  0  0  0  0  0  0
    4.0062   -0.0600   -2.7632 C   0  0  0  0  0  0  0  0  0  0  0  0
    3.6744   -0.7203   -1.4434 C   0  0  0  0  0  0  0  0  0  0  0  0
    4.0528   -2.1511   -1.4416 C   0  0  2  0  0  0  0  0  0  0  0  0
    5.9986   -4.6238   -0.1932 C   0  0  2  0  0  0  0  0  0  0  0  0
    4.6656   -5.3625   -0.4332 C   0  0  0  0  0  0  0  0  0  0  0  0
    4.5624   -6.6334    0.3923 C   0  0  0  0  0  0  0  0  0  0  0  0
    4.5789   -6.3172    1.8799 C   0  0  2  0  0  0  0  0  0  0  0  0
    3.2345   -5.7436    2.4038 C   0  0  1  0  0  0  0  0  0  0  0  0
    2.1256   -6.5365    2.0257 O   0  0  0  0  0  0  0  0  0  0  0  0
    3.2395   -5.5782    3.9334 C   0  0  1  0  0  0  0  0  0  0  0  0
    3.3735   -6.8136    4.6144 O   0  0  0  0  0  0  0  0  0  0  0  0
    4.3986   -4.6626    4.3309 C   0  0  0  0  0  0  0  0  0  0  0  0
    5.7575   -5.1656    3.7925 C   0  0  0  0  0  0  0  0  0  0  0  0
    5.8835   -5.5142    2.2781 C   0  0  2  0  0  0  0  0  0  0  0  0
    7.0278   -6.5728    2.2131 C   0  0  0  0  0  0  0  0  0  0  0  0
    8.1866   -2.1846    0.1376 H   0  0  0  0  0  0  0  0  0  0  0  0
    9.5387   -2.8819    1.1329 H   0  0  0  0  0  0  0  0  0  0  0  0
    8.2983   -4.4476    2.1161 H   0  0  0  0  0  0  0  0  0  0  0  0
    4.2746   -3.2181    1.4938 H   0  0  0  0  0  0  0  0  0  0  0  0
    5.4886   -2.6342    2.6130 H   0  0  0  0  0  0  0  0  0  0  0  0
    4.8606   -0.9963    0.9664 H   0  0  0  0  0  0  0  0  0  0  0  0
    6.5355   -1.3154    0.8872 H   0  0  0  0  0  0  0  0  0  0  0  0
    6.0148   -1.3302   -1.3663 H   0  0  0  0  0  0  0  0  0  0  0  0
    7.2760   -3.2504   -1.1588 H   0  0  0  0  0  0  0  0  0  0  0  0
    6.7448   -2.6827   -3.1671 H   0  0  0  0  0  0  0  0  0  0  0  0
    6.6115   -4.2926   -3.0563 H   0  0  0  0  0  0  0  0  0  0  0  0
    4.9087   -3.6116   -4.4855 H   0  0  0  0  0  0  0  0  0  0  0  0
    4.3471   -4.5817   -3.1908 H   0  0  0  0  0  0  0  0  0  0  0  0
    2.1126   -3.8204   -2.6221 H   0  0  0  0  0  0  0  0  0  0  0  0
    2.3282   -3.3075   -4.3110 H   0  0  0  0  0  0  0  0  0  0  0  0
    1.7033   -2.1790   -3.1127 H   0  0  0  0  0  0  0  0  0  0  0  0
    4.9078    0.5587   -2.7434 H   0  0  0  0  0  0  0  0  0  0  0  0
    3.1337    0.4938   -3.1113 H   0  0  0  0  0  0  0  0  0  0  0  0
    3.9234   -0.1608   -0.5505 H   0  0  0  0  0  0  0  0  0  0  0  0
    2.6307   -0.7345   -1.4612 H   0  0  0  0  0  0  0  0  0  0  0  0
    3.3670   -2.7207   -0.7978 H   0  0  0  0  0  0  0  0  0  0  0  0
    6.8050   -5.3583   -0.3151 H   0  0  0  0  0  0  0  0  0  0  0  0
    3.7651   -4.7569   -0.3010 H   0  0  0  0  0  0  0  0  0  0  0  0
    4.6636   -5.6971   -1.4591 H   0  0  0  0  0  0  0  0  0  0  0  0
    3.6746   -7.1942    0.1109 H   0  0  0  0  0  0  0  0  0  0  0  0
    5.3897   -7.2934    0.1462 H   0  0  0  0  0  0  0  0  0  0  0  0
    4.6419   -7.3005    2.3602 H   0  0  0  0  0  0  0  0  0  0  0  0
    3.0411   -4.7746    1.9536 H   0  0  0  0  0  0  0  0  0  0  0  0
    2.2292   -6.7610    1.1082 H   0  0  0  0  0  0  0  0  0  0  0  0
    2.2995   -5.1308    4.2599 H   0  0  0  0  0  0  0  0  0  0  0  0
    4.1524   -7.2574    4.2908 H   0  0  0  0  0  0  0  0  0  0  0  0
    4.1819   -3.6509    3.9897 H   0  0  0  0  0  0  0  0  0  0  0  0
    4.4527   -4.5885    5.4157 H   0  0  0  0  0  0  0  0  0  0  0  0
    6.5162   -4.4616    4.0810 H   0  0  0  0  0  0  0  0  0  0  0  0
    6.0048   -6.0573    4.3811 H   0  0  0  0  0  0  0  0  0  0  0  0
    6.7482   -7.5097    2.7074 H   0  0  0  0  0  0  0  0  0  0  0  0
    7.9371   -6.2758    2.7398 H   0  0  0  0  0  0  0  0  0  0  0  0
    7.3237   -6.8509    1.2031 H   0  0  0  0  0  0  0  0  0  0  0  0
  1  2  2  0
  1 29  1  0
  1 30  1  0
  3  2  1  6
  2 31  1  0
  3 17  1  0
  3 27  1  0
  3  4  1  0
  4  5  1  0
  4 32  1  0
  4 33  1  0
  5  6  1  0
  5 34  1  0
  5 35  1  0
  6 16  1  0
  6  7  1  0
  6 36  1  6
  7  8  1  0
  7 17  1  0
  7 37  1  6
  8  9  1  0
  8 38  1  0
  8 39  1  0
  9 10  1  0
  9 40  1  0
  9 41  1  0
 10 16  1  0
 10 11  1  1
 10 12  1  0
 11 42  1  0
 11 43  1  0
 11 44  1  0
 12 13  2  0
 12 14  1  0
 14 15  1  0
 14 45  1  0
 14 46  1  0
 15 16  1  0
 15 47  1  0
 15 48  1  0
 16 49  1  1
 17 18  1  0
 17 50  1  6
 18 19  1  0
 18 51  1  0
 18 52  1  0
 19 20  1  0
 19 53  1  0
 19 54  1  0
 20 27  1  0
 20 21  1  0
 20 55  1  1
 21 22  1  0
 21 23  1  0
 21 56  1  6
 22 57  1  0
 23 24  1  0
 23 25  1  0
 23 58  1  1
 24 59  1  0
 25 26  1  0
 25 60  1  0
 25 61  1  0
 26 27  1  0
 26 62  1  0
 26 63  1  0
 27 28  1  1
 28 64  1  0
 28 65  1  0
 28 66  1  0
M  END
>  <i_m_ct_stereo_status>  (157) 
1

>  <s_m_source_file>  (157) 
/var/tmp/pbs.5076255.sched01/tmpscvaj2_a/3886avry94.sdf

>  <i_m_source_file_index>  (157) 
30

>  <i_lp_mmshare_version>  (157) 
48012

>  <i_f3d_flags>  (157) 
0

>  <s_epik_input>  (157) 
W0NIMl0xW0NIMl1DKD1PKVtDQEBdKFtDSDNdKShbQ0gyXVtDSDJdMilbQ0BIXTFbQ0BASF0oW0NIMl1bQ0gyXTMpW0NASF0yW0NAQEhdKFtDQEBdMzRbQ0hdPVtDSDJdKVtDSDJdW0NIMl1bQ0BIXTVbQ0BdNChbQ0gzXSlbQ0gyXVtDSDJdW0NASF0oW09IXSlbQ0BASF01W09IXQ==

>  <s_epik_cmdline>  (157) 
J2VwaWtfcHl0aG9uJywgJy1waHQnLCAnMi4wJywgJy1waCcsICc3LjAnLCAnLXRuJywgJzgnLCAnLW1hJywgJzIwMCcsICctaW1hZScsICc8aW5maWxlLm1hZT4nLCAnLW9tYWUnLCAnPG91dGZpbGUubWFlPic=

>  <r_lp_tautomer_probability>  (157) 
1

>  <r_epik_Ionization_Penalty>  (157) 
1.51322e-06

>  <r_epik_Ionization_Penalty_Charging>  (157) 
0

>  <r_epik_Ionization_Penalty_Neutral>  (157) 
1.51322e-06

>  <r_epik_State_Penalty>  (157) 
-0

>  <r_epik_Charging_Adjusted_Penalty>  (157) 
0

>  <i_epik_Tot_Q>  (157) 
0

>  <i_epik_Tot_abs_Q>  (157) 
0

>  <s_lp_Force_Field>  (157) 
OPLS3e

>  <r_lp_Energy>  (157) 
61.2781

>  <b_lp_Chiralities_Consistent>  (157) 
1

>  <s_lp_Variant>  (157) 
55:0-1

>  <s_i_glide_gridfile>  (157) 
pfpi4k_grid

>  <i_i_glide_lignum>  (157) 
30

>  <i_i_glide_rotatable_bonds>  (157) 
3

>  <r_i_docking_score>  (157) 
-2.40485

>  <r_i_glide_ligand_efficiency>  (157) 
-0.0858875

>  <r_i_glide_ligand_efficiency_sa>  (157) 
-0.260805

>  <r_i_glide_ligand_efficiency_ln>  (157) 
-0.55511

>  <r_i_glide_gscore>  (157) 
-2.40485

>  <r_i_glide_lipo>  (157) 
-1.56427

>  <r_i_glide_hbond>  (157) 
-0.32

>  <r_i_glide_metal>  (157) 
-0

>  <r_i_glide_rewards>  (157) 
-1.04769

>  <r_i_glide_evdw>  (157) 
0.788206

>  <r_i_glide_ecoul>  (157) 
-3.97682

>  <r_i_glide_erotb>  (157) 
0.130256

>  <r_i_glide_esite>  (157) 
0

>  <r_i_glide_emodel>  (157) 
3.88091

>  <r_i_glide_energy>  (157) 
-3.18861

>  <r_i_glide_einternal>  (157) 
8.95179

>  <r_i_glide_intrahb_reward>  (157) 
-0

>  <i_i_glide_confnum>  (157) 
4

>  <i_i_glide_posenum>  (157) 
11

>  <r_i_glide_eff_state_penalty>  (157) 
0

>  <ligand_id>  (157) 
55

>  <original_smiles>  (157) 
C=CC12CCC3C(CCC4(C)C(=O)CCC34)C1CCC1C(O)C(O)CCC12C

>  <smiles>  (157) 
[H]OC1([H])C([H])([H])C([H])([H])C2(C([H])([H])[H])C([H])(C([H])([H])C([H])([H])C3([H])C4([H])C([H])([H])C([H])([H])C5(C([H])([H])[H])C(=O)C([H])([H])C([H])([H])C5([H])C4([H])C([H])([H])C([H])([H])C32C([H])=C([H])[H])C1([H])O[H]

$$$$
55:0:2
     RDKit          3D

 66 70  0  0  1  0  0  0  0  0999 V2000
   -1.1034    2.7905   11.2247 C   0  0  0  0  0  0  0  0  0  0  0  0
   -0.0471    3.3648   10.6145 C   0  0  0  0  0  0  0  0  0  0  0  0
    0.9080    2.7513    9.5700 C   0  0  1  0  0  0  0  0  0  0  0  0
    0.1916    1.5804    8.8300 C   0  0  0  0  0  0  0  0  0  0  0  0
   -1.0877    1.9750    8.0641 C   0  0  0  0  0  0  0  0  0  0  0  0
   -0.8854    3.0895    7.0178 C   0  0  1  0  0  0  0  0  0  0  0  0
   -0.1052    4.2561    7.6652 C   0  0  2  0  0  0  0  0  0  0  0  0
    0.0155    5.4316    6.6714 C   0  0  0  0  0  0  0  0  0  0  0  0
    0.5357    5.0559    5.2703 C   0  0  0  0  0  0  0  0  0  0  0  0
   -0.0406    3.7646    4.6304 C   0  0  2  0  0  0  0  0  0  0  0  0
    0.9641    3.3082    3.5581 C   0  0  0  0  0  0  0  0  0  0  0  0
   -1.4022    3.9300    3.9346 C   0  0  0  0  0  0  0  0  0  0  0  0
   -1.7696    4.9374    3.3128 O   0  0  0  0  0  0  0  0  0  0  0  0
   -2.2526    2.6894    4.0825 C   0  0  0  0  0  0  0  0  0  0  0  0
   -1.3600    1.7390    4.8900 C   0  0  0  0  0  0  0  0  0  0  0  0
   -0.3283    2.6154    5.6402 C   0  0  2  0  0  0  0  0  0  0  0  0
    1.1829    3.8591    8.4787 C   0  0  2  0  0  0  0  0  0  0  0  0
    2.4147    3.5397    7.6066 C   0  0  0  0  0  0  0  0  0  0  0  0
    3.6676    3.3242    8.4410 C   0  0  0  0  0  0  0  0  0  0  0  0
    3.5182    2.1426    9.4060 C   0  0  2  0  0  0  0  0  0  0  0  0
    3.6378    0.7567    8.7182 C   0  0  1  0  0  0  0  0  0  0  0  0
    4.8169    0.6577    7.9498 O   0  0  0  0  0  0  0  0  0  0  0  0
    3.6230   -0.3978    9.7287 C   0  0  1  0  0  0  0  0  0  0  0  0
    4.7440   -0.3354   10.5903 O   0  0  0  0  0  0  0  0  0  0  0  0
    2.3402   -0.3382   10.5564 C   0  0  0  0  0  0  0  0  0  0  0  0
    2.1171    1.0381   11.2270 C   0  0  0  0  0  0  0  0  0  0  0  0
    2.2639    2.3218   10.3367 C   0  0  2  0  0  0  0  0  0  0  0  0
    2.6609    3.4333   11.3589 C   0  0  0  0  0  0  0  0  0  0  0  0
   -1.4096    1.7740   11.0427 H   0  0  0  0  0  0  0  0  0  0  0  0
   -1.6954    3.3477   11.9334 H   0  0  0  0  0  0  0  0  0  0  0  0
    0.1607    4.3891   10.8841 H   0  0  0  0  0  0  0  0  0  0  0  0
    0.8481    1.1135    8.1072 H   0  0  0  0  0  0  0  0  0  0  0  0
   -0.0786    0.8033    9.5379 H   0  0  0  0  0  0  0  0  0  0  0  0
   -1.5052    1.0808    7.6103 H   0  0  0  0  0  0  0  0  0  0  0  0
   -1.8561    2.3121    8.7600 H   0  0  0  0  0  0  0  0  0  0  0  0
   -1.8852    3.4831    6.8033 H   0  0  0  0  0  0  0  0  0  0  0  0
   -0.7728    4.6500    8.4295 H   0  0  0  0  0  0  0  0  0  0  0  0
   -0.9719    5.8900    6.5490 H   0  0  0  0  0  0  0  0  0  0  0  0
    0.6420    6.2199    7.0950 H   0  0  0  0  0  0  0  0  0  0  0  0
    0.3354    5.9035    4.6181 H   0  0  0  0  0  0  0  0  0  0  0  0
    1.6262    4.9950    5.2763 H   0  0  0  0  0  0  0  0  0  0  0  0
    1.9006    2.9696    4.0058 H   0  0  0  0  0  0  0  0  0  0  0  0
    1.2067    4.1337    2.8862 H   0  0  0  0  0  0  0  0  0  0  0  0
    0.5796    2.5007    2.9370 H   0  0  0  0  0  0  0  0  0  0  0  0
   -3.1623    2.9444    4.6242 H   0  0  0  0  0  0  0  0  0  0  0  0
   -2.5335    2.2673    3.1159 H   0  0  0  0  0  0  0  0  0  0  0  0
   -1.9561    1.0948    5.5360 H   0  0  0  0  0  0  0  0  0  0  0  0
   -0.8367    1.0780    4.2008 H   0  0  0  0  0  0  0  0  0  0  0  0
    0.5783    2.0307    5.8062 H   0  0  0  0  0  0  0  0  0  0  0  0
    1.4580    4.7710    9.0064 H   0  0  0  0  0  0  0  0  0  0  0  0
    2.2497    2.6744    6.9711 H   0  0  0  0  0  0  0  0  0  0  0  0
    2.6448    4.3845    6.9636 H   0  0  0  0  0  0  0  0  0  0  0  0
    4.5293    3.1903    7.7878 H   0  0  0  0  0  0  0  0  0  0  0  0
    3.8795    4.2323    9.0021 H   0  0  0  0  0  0  0  0  0  0  0  0
    4.4073    2.1918   10.0381 H   0  0  0  0  0  0  0  0  0  0  0  0
    2.8231    0.6030    8.0177 H   0  0  0  0  0  0  0  0  0  0  0  0
    4.7322    1.2636    7.2277 H   0  0  0  0  0  0  0  0  0  0  0  0
    3.6754   -1.3518    9.1991 H   0  0  0  0  0  0  0  0  0  0  0  0
    5.5143   -0.4329   10.0464 H   0  0  0  0  0  0  0  0  0  0  0  0
    1.5042   -0.5979    9.9099 H   0  0  0  0  0  0  0  0  0  0  0  0
    2.3624   -1.1165   11.3209 H   0  0  0  0  0  0  0  0  0  0  0  0
    1.1470    1.0298   11.7127 H   0  0  0  0  0  0  0  0  0  0  0  0
    2.8416    1.0892   12.0458 H   0  0  0  0  0  0  0  0  0  0  0  0
    3.6417    3.2482   11.7981 H   0  0  0  0  0  0  0  0  0  0  0  0
    1.9751    3.4793   12.2058 H   0  0  0  0  0  0  0  0  0  0  0  0
    2.6954    4.4255   10.9138 H   0  0  0  0  0  0  0  0  0  0  0  0
  1  2  2  0
  1 29  1  0
  1 30  1  0
  3  2  1  1
  2 31  1  0
  3 17  1  0
  3 27  1  0
  3  4  1  0
  4  5  1  0
  4 32  1  0
  4 33  1  0
  5  6  1  0
  5 34  1  0
  5 35  1  0
  6 16  1  0
  6  7  1  0
  6 36  1  6
  7  8  1  0
  7 17  1  0
  7 37  1  1
  8  9  1  0
  8 38  1  0
  8 39  1  0
  9 10  1  0
  9 40  1  0
  9 41  1  0
 10 16  1  0
 10 11  1  6
 10 12  1  0
 11 42  1  0
 11 43  1  0
 11 44  1  0
 12 13  2  0
 12 14  1  0
 14 15  1  0
 14 45  1  0
 14 46  1  0
 15 16  1  0
 15 47  1  0
 15 48  1  0
 16 49  1  1
 17 18  1  0
 17 50  1  1
 18 19  1  0
 18 51  1  0
 18 52  1  0
 19 20  1  0
 19 53  1  0
 19 54  1  0
 20 27  1  0
 20 21  1  0
 20 55  1  1
 21 22  1  0
 21 23  1  0
 21 56  1  6
 22 57  1  0
 23 24  1  0
 23 25  1  0
 23 58  1  6
 24 59  1  0
 25 26  1  0
 25 60  1  0
 25 61  1  0
 26 27  1  0
 26 62  1  0
 26 63  1  0
 27 28  1  1
 28 64  1  0
 28 65  1  0
 28 66  1  0
M  END
>  <i_m_ct_stereo_status>  (158) 
1

>  <s_m_source_file>  (158) 
/var/tmp/pbs.5076255.sched01/tmpscvaj2_a/3886avry94.sdf

>  <i_m_source_file_index>  (158) 
30

>  <i_lp_mmshare_version>  (158) 
48012

>  <i_f3d_flags>  (158) 
0

>  <s_epik_input>  (158) 
W0NIMl0xW0NIMl1DKD1PKVtDQEBdKFtDSDNdKShbQ0gyXVtDSDJdMilbQ0BIXTFbQ0BASF0oW0NIMl1bQ0gyXTMpW0NASF0yW0NAQEhdKFtDQEBdMzRbQ0hdPVtDSDJdKVtDSDJdW0NIMl1bQ0BIXTVbQ0BdNChbQ0gzXSlbQ0gyXVtDSDJdW0NASF0oW09IXSlbQ0BASF01W09IXQ==

>  <s_epik_cmdline>  (158) 
J2VwaWtfcHl0aG9uJywgJy1waHQnLCAnMi4wJywgJy1waCcsICc3LjAnLCAnLXRuJywgJzgnLCAnLW1hJywgJzIwMCcsICctaW1hZScsICc8aW5maWxlLm1hZT4nLCAnLW9tYWUnLCAnPG91dGZpbGUubWFlPic=

>  <r_lp_tautomer_probability>  (158) 
1

>  <r_epik_Ionization_Penalty>  (158) 
1.51322e-06

>  <r_epik_Ionization_Penalty_Charging>  (158) 
0

>  <r_epik_Ionization_Penalty_Neutral>  (158) 
1.51322e-06

>  <r_epik_State_Penalty>  (158) 
-0

>  <r_epik_Charging_Adjusted_Penalty>  (158) 
0

>  <i_epik_Tot_Q>  (158) 
0

>  <i_epik_Tot_abs_Q>  (158) 
0

>  <s_lp_Force_Field>  (158) 
OPLS3e

>  <r_lp_Energy>  (158) 
61.2781

>  <b_lp_Chiralities_Consistent>  (158) 
1

>  <s_lp_Variant>  (158) 
55:0-1

>  <s_i_glide_gridfile>  (158) 
pfpi4k_grid

>  <i_i_glide_lignum>  (158) 
30

>  <i_i_glide_rotatable_bonds>  (158) 
3

>  <r_i_docking_score>  (158) 
-2.24574

>  <r_i_glide_ligand_efficiency>  (158) 
-0.0802049

>  <r_i_glide_ligand_efficiency_sa>  (158) 
-0.243549

>  <r_i_glide_ligand_efficiency_ln>  (158) 
-0.518382

>  <r_i_glide_gscore>  (158) 
-2.24574

>  <r_i_glide_lipo>  (158) 
0

>  <r_i_glide_hbond>  (158) 
-0.16

>  <r_i_glide_metal>  (158) 
-0

>  <r_i_glide_rewards>  (158) 
-0.773404

>  <r_i_glide_evdw>  (158) 
-15.3211

>  <r_i_glide_ecoul>  (158) 
-3.98261

>  <r_i_glide_erotb>  (158) 
0.130256

>  <r_i_glide_esite>  (158) 
-0.0791443

>  <r_i_glide_emodel>  (158) 
-22.206

>  <r_i_glide_energy>  (158) 
-19.3037

>  <r_i_glide_einternal>  (158) 
0.670932

>  <r_i_glide_intrahb_reward>  (158) 
-0

>  <i_i_glide_confnum>  (158) 
1

>  <i_i_glide_posenum>  (158) 
14

>  <r_i_glide_eff_state_penalty>  (158) 
0

>  <ligand_id>  (158) 
55

>  <original_smiles>  (158) 
C=CC12CCC3C(CCC4(C)C(=O)CCC34)C1CCC1C(O)C(O)CCC12C

>  <smiles>  (158) 
[H]OC1([H])C([H])([H])C([H])([H])C2(C([H])([H])[H])C([H])(C([H])([H])C([H])([H])C3([H])C4([H])C([H])([H])C([H])([H])C5(C([H])([H])[H])C(=O)C([H])([H])C([H])([H])C5([H])C4([H])C([H])([H])C([H])([H])C32C([H])=C([H])[H])C1([H])O[H]

$$$$
56:0:0
     RDKit          3D

 41 45  0  0  1  0  0  0  0  0999 V2000
    3.3065   -6.7285    2.4305 C   0  0  0  0  0  0  0  0  0  0  0  0
    3.0875   -5.4192    2.2378 C   0  0  0  0  0  0  0  0  0  0  0  0
    2.0674   -4.6611    2.9547 C   0  0  0  0  0  0  0  0  0  0  0  0
    1.3494   -5.0642    3.8738 O   0  0  0  0  0  0  0  0  0  0  0  0
    2.0279   -3.4351    2.4381 O   0  0  0  0  0  0  0  0  0  0  0  0
    2.7949   -3.2855    1.2483 C   0  0  1  0  0  0  0  0  0  0  0  0
    3.4909   -1.9217    1.2210 C   0  0  0  0  0  0  0  0  0  0  0  0
    4.7550   -1.8968    0.3341 C   0  0  1  0  0  0  0  0  0  0  0  0
    5.3412   -0.4805    0.4811 C   0  0  0  0  0  0  0  0  0  0  0  0
    5.8019   -2.9721    0.8291 C   0  0  1  0  0  0  0  0  0  0  0  0
    5.1849   -4.1482    1.6322 C   0  0  0  0  0  0  0  0  0  0  0  0
    3.7375   -4.5025    1.2372 C   0  0  1  0  0  0  0  0  0  0  0  0
    6.5082   -3.4414   -0.4211 C   0  0  2  0  0  0  0  0  0  0  0  0
    6.9735   -2.3869   -1.2534 O   0  0  0  0  0  0  0  0  0  0  0  0
    5.7006   -2.9927   -1.5775 C   0  0  1  0  0  0  0  0  0  0  0  0
    5.6190   -3.1206   -3.0665 C   0  0  1  0  0  0  0  0  0  0  0  0
    4.8969   -4.2592   -3.4721 O   0  0  0  0  0  0  0  0  0  0  0  0
    4.9851   -1.9416   -3.4534 O   0  0  0  0  0  0  0  0  0  0  0  0
    4.3794   -1.2782   -2.3354 C   0  0  1  0  0  0  0  0  0  0  0  0
    2.9706   -0.9539   -2.7673 C   0  0  0  0  0  0  0  0  0  0  0  0
    4.4922   -2.2720   -1.1720 C   0  0  2  0  0  0  0  0  0  0  0  0
    4.0485   -7.2709    1.8630 H   0  0  0  0  0  0  0  0  0  0  0  0
    2.7410   -7.2844    3.1716 H   0  0  0  0  0  0  0  0  0  0  0  0
    2.1222   -3.3564    0.3927 H   0  0  0  0  0  0  0  0  0  0  0  0
    2.7764   -1.1550    0.9134 H   0  0  0  0  0  0  0  0  0  0  0  0
    3.7860   -1.6677    2.2420 H   0  0  0  0  0  0  0  0  0  0  0  0
    6.2362   -0.3357   -0.1225 H   0  0  0  0  0  0  0  0  0  0  0  0
    5.6035   -0.2451    1.5133 H   0  0  0  0  0  0  0  0  0  0  0  0
    4.6072    0.2563    0.1523 H   0  0  0  0  0  0  0  0  0  0  0  0
    6.5588   -2.5076    1.4647 H   0  0  0  0  0  0  0  0  0  0  0  0
    5.8150   -5.0323    1.5374 H   0  0  0  0  0  0  0  0  0  0  0  0
    5.2055   -3.8889    2.6916 H   0  0  0  0  0  0  0  0  0  0  0  0
    3.7258   -4.9747    0.2538 H   0  0  0  0  0  0  0  0  0  0  0  0
    7.1288   -4.3328   -0.4107 H   0  0  0  0  0  0  0  0  0  0  0  0
    6.6004   -3.1692   -3.5258 H   0  0  0  0  0  0  0  0  0  0  0  0
    4.1678   -4.4196   -2.8879 H   0  0  0  0  0  0  0  0  0  0  0  0
    4.9387   -0.3641   -2.1302 H   0  0  0  0  0  0  0  0  0  0  0  0
    2.4471   -0.4645   -1.9571 H   0  0  0  0  0  0  0  0  0  0  0  0
    2.3982   -1.8483   -3.0262 H   0  0  0  0  0  0  0  0  0  0  0  0
    2.9615   -0.2764   -3.6211 H   0  0  0  0  0  0  0  0  0  0  0  0
    3.6711   -2.9847   -1.2420 H   0  0  0  0  0  0  0  0  0  0  0  0
  1  2  2  0
  1 22  1  0
  1 23  1  0
  2 12  1  0
  2  3  1  0
  3  4  2  0
  3  5  1  0
  5  6  1  0
  6 12  1  0
  6  7  1  0
  6 24  1  6
  7  8  1  0
  7 25  1  0
  7 26  1  0
  8 21  1  0
  8  9  1  6
  8 10  1  0
  9 27  1  0
  9 28  1  0
  9 29  1  0
 10 11  1  0
 10 13  1  0
 10 30  1  1
 11 12  1  0
 11 31  1  0
 11 32  1  0
 12 33  1  6
 13 15  1  0
 13 14  1  0
 13 34  1  1
 15 14  1  6
 15 21  1  0
 15 16  1  0
 16 17  1  0
 16 18  1  0
 16 35  1  6
 17 36  1  0
 18 19  1  0
 19 20  1  0
 19 21  1  0
 19 37  1  1
 20 38  1  0
 20 39  1  0
 20 40  1  0
 21 41  1  1
M  END
>  <i_m_ct_stereo_status>  (159) 
1

>  <s_m_source_file>  (159) 
/var/tmp/pbs.5076255.sched01/tmpscvaj2_a/3886avry94.sdf

>  <i_m_source_file_index>  (159) 
31

>  <i_lp_mmshare_version>  (159) 
48012

>  <i_f3d_flags>  (159) 
0

>  <s_epik_input>  (159) 
Tz1DKE8xKUMoPVtDSDJdKVtDQEhdKFtDSDJdMilbQ0BASF0xW0NIMl1bQ0BAXShbQ0gzXSkoW0NAQEhdMltDQEhdKE8zKVtDQEBdMzQ1KVtDQEhdNVtDQEhdKFtDSDNdKU9bQ0BASF00W09IXQ==

>  <s_epik_cmdline>  (159) 
J2VwaWtfcHl0aG9uJywgJy1waHQnLCAnMi4wJywgJy1waCcsICc3LjAnLCAnLXRuJywgJzgnLCAnLW1hJywgJzIwMCcsICctaW1hZScsICc8aW5maWxlLm1hZT4nLCAnLW9tYWUnLCAnPG91dGZpbGUubWFlPic=

>  <r_lp_tautomer_probability>  (159) 
1

>  <r_epik_Ionization_Penalty>  (159) 
2.16491e-07

>  <r_epik_Ionization_Penalty_Charging>  (159) 
0

>  <r_epik_Ionization_Penalty_Neutral>  (159) 
2.16491e-07

>  <r_epik_State_Penalty>  (159) 
-0

>  <r_epik_Charging_Adjusted_Penalty>  (159) 
0

>  <i_epik_Tot_Q>  (159) 
0

>  <i_epik_Tot_abs_Q>  (159) 
0

>  <s_epik_Chemistry_Notes>  (159) 
This compound has an ester and may undergo hydrolysis at high or low pH. This compound contains an acetal/aminal-like group ( X-CH(R)-Y where X, Y are N, S, or O) that may be acid/base labile, releasing an aldehyde.

>  <s_lp_Force_Field>  (159) 
OPLS3e

>  <r_lp_Energy>  (159) 
40.9042

>  <b_lp_Chiralities_Consistent>  (159) 
1

>  <s_lp_Variant>  (159) 
56:0-1

>  <s_i_glide_gridfile>  (159) 
pfpi4k_grid

>  <i_i_glide_lignum>  (159) 
31

>  <i_i_glide_rotatable_bonds>  (159) 
1

>  <r_i_docking_score>  (159) 
-4.02715

>  <r_i_glide_ligand_efficiency>  (159) 
-0.191769

>  <r_i_glide_ligand_efficiency_sa>  (159) 
-0.529077

>  <r_i_glide_ligand_efficiency_ln>  (159) 
-0.995706

>  <r_i_glide_gscore>  (159) 
-4.02715

>  <r_i_glide_lipo>  (159) 
-0.433133

>  <r_i_glide_hbond>  (159) 
-0.16

>  <r_i_glide_metal>  (159) 
-0

>  <r_i_glide_rewards>  (159) 
-1.63041

>  <r_i_glide_evdw>  (159) 
-18.2288

>  <r_i_glide_ecoul>  (159) 
-5.90629

>  <r_i_glide_erotb>  (159) 
0

>  <r_i_glide_esite>  (159) 
-0.00622512

>  <r_i_glide_emodel>  (159) 
-30.6888

>  <r_i_glide_energy>  (159) 
-24.1351

>  <r_i_glide_einternal>  (159) 
0.225686

>  <r_i_glide_intrahb_reward>  (159) 
-0

>  <i_i_glide_confnum>  (159) 
2

>  <i_i_glide_posenum>  (159) 
26

>  <r_i_glide_eff_state_penalty>  (159) 
0

>  <ligand_id>  (159) 
56

>  <original_smiles>  (159) 
C=C1C(=O)OC2CC3(C)C(CC12)C1OC12C(O)OC(C)C32

>  <smiles>  (159) 
[H]OC1([H])OC([H])(C([H])([H])[H])C2([H])C13OC3([H])C1([H])C([H])([H])C3([H])C(=C([H])[H])C(=O)OC3([H])C([H])([H])C12C([H])([H])[H]

$$$$
56:0:1
     RDKit          3D

 41 45  0  0  1  0  0  0  0  0999 V2000
    3.4991   -1.2064   -3.8843 C   0  0  0  0  0  0  0  0  0  0  0  0
    3.9074   -2.0680   -2.9379 C   0  0  0  0  0  0  0  0  0  0  0  0
    4.4357   -3.3915   -3.2175 C   0  0  0  0  0  0  0  0  0  0  0  0
    4.6594   -3.8752   -4.3191 O   0  0  0  0  0  0  0  0  0  0  0  0
    4.6449   -4.0084   -2.0579 O   0  0  0  0  0  0  0  0  0  0  0  0
    4.0597   -3.3500   -0.9467 C   0  0  1  0  0  0  0  0  0  0  0  0
    4.9718   -3.4744    0.2805 C   0  0  0  0  0  0  0  0  0  0  0  0
    4.7775   -2.3376    1.3048 C   0  0  1  0  0  0  0  0  0  0  0  0
    5.7949   -2.5883    2.4276 C   0  0  0  0  0  0  0  0  0  0  0  0
    5.0484   -0.9371    0.6212 C   0  0  1  0  0  0  0  0  0  0  0  0
    4.8827   -0.9298   -0.9185 C   0  0  0  0  0  0  0  0  0  0  0  0
    3.8296   -1.9133   -1.4449 C   0  0  1  0  0  0  0  0  0  0  0  0
    4.1096    0.0250    1.3079 C   0  0  2  0  0  0  0  0  0  0  0  0
    4.1838   -0.0383    2.7272 O   0  0  0  0  0  0  0  0  0  0  0  0
    3.1284   -0.7762    2.0768 C   0  0  1  0  0  0  0  0  0  0  0  0
    1.8823   -0.6199    2.8894 C   0  0  1  0  0  0  0  0  0  0  0  0
    0.7413   -0.5541    2.0698 O   0  0  0  0  0  0  0  0  0  0  0  0
    1.8869   -1.7735    3.6906 O   0  0  0  0  0  0  0  0  0  0  0  0
    2.8442   -2.7540    3.2340 C   0  0  1  0  0  0  0  0  0  0  0  0
    2.1676   -4.1253    3.1886 C   0  0  0  0  0  0  0  0  0  0  0  0
    3.3164   -2.2193    1.8769 C   0  0  2  0  0  0  0  0  0  0  0  0
    3.0794   -0.2422   -3.6337 H   0  0  0  0  0  0  0  0  0  0  0  0
    3.5731   -1.4575   -4.9366 H   0  0  0  0  0  0  0  0  0  0  0  0
    3.0936   -3.8105   -0.7294 H   0  0  0  0  0  0  0  0  0  0  0  0
    4.8403   -4.4551    0.7418 H   0  0  0  0  0  0  0  0  0  0  0  0
    6.0083   -3.4391   -0.0632 H   0  0  0  0  0  0  0  0  0  0  0  0
    5.7574   -1.8340    3.2158 H   0  0  0  0  0  0  0  0  0  0  0  0
    6.8061   -2.5886    2.0184 H   0  0  0  0  0  0  0  0  0  0  0  0
    5.6317   -3.5633    2.8924 H   0  0  0  0  0  0  0  0  0  0  0  0
    6.0576   -0.5845    0.8399 H   0  0  0  0  0  0  0  0  0  0  0  0
    4.6180    0.0691   -1.2594 H   0  0  0  0  0  0  0  0  0  0  0  0
    5.8409   -1.1508   -1.3825 H   0  0  0  0  0  0  0  0  0  0  0  0
    2.8304   -1.5794   -1.1759 H   0  0  0  0  0  0  0  0  0  0  0  0
    3.8841    1.0028    0.8831 H   0  0  0  0  0  0  0  0  0  0  0  0
    1.8848    0.2764    3.5086 H   0  0  0  0  0  0  0  0  0  0  0  0
    0.9951   -0.6548    1.1543 H   0  0  0  0  0  0  0  0  0  0  0  0
    3.6659   -2.7585    3.9476 H   0  0  0  0  0  0  0  0  0  0  0  0
    2.8515   -4.8984    2.8397 H   0  0  0  0  0  0  0  0  0  0  0  0
    1.2987   -4.1067    2.5306 H   0  0  0  0  0  0  0  0  0  0  0  0
    1.8220   -4.3946    4.1859 H   0  0  0  0  0  0  0  0  0  0  0  0
    2.5918   -2.5136    1.1189 H   0  0  0  0  0  0  0  0  0  0  0  0
  1  2  2  0
  1 22  1  0
  1 23  1  0
  2 12  1  0
  2  3  1  0
  3  4  2  0
  3  5  1  0
  5  6  1  0
  6 12  1  0
  6  7  1  0
  6 24  1  1
  7  8  1  0
  7 25  1  0
  7 26  1  0
  8 21  1  0
  8  9  1  1
  8 10  1  0
  9 27  1  0
  9 28  1  0
  9 29  1  0
 10 11  1  0
 10 13  1  0
 10 30  1  6
 11 12  1  0
 11 31  1  0
 11 32  1  0
 12 33  1  6
 13 15  1  0
 13 14  1  0
 13 34  1  6
 15 14  1  1
 15 21  1  0
 15 16  1  0
 16 17  1  0
 16 18  1  0
 16 35  1  1
 17 36  1  0
 18 19  1  0
 19 20  1  0
 19 21  1  0
 19 37  1  1
 20 38  1  0
 20 39  1  0
 20 40  1  0
 21 41  1  6
M  END
>  <i_m_ct_stereo_status>  (160) 
1

>  <s_m_source_file>  (160) 
/var/tmp/pbs.5076255.sched01/tmpscvaj2_a/3886avry94.sdf

>  <i_m_source_file_index>  (160) 
31

>  <i_lp_mmshare_version>  (160) 
48012

>  <i_f3d_flags>  (160) 
0

>  <s_epik_input>  (160) 
Tz1DKE8xKUMoPVtDSDJdKVtDQEhdKFtDSDJdMilbQ0BASF0xW0NIMl1bQ0BAXShbQ0gzXSkoW0NAQEhdMltDQEhdKE8zKVtDQEBdMzQ1KVtDQEhdNVtDQEhdKFtDSDNdKU9bQ0BASF00W09IXQ==

>  <s_epik_cmdline>  (160) 
J2VwaWtfcHl0aG9uJywgJy1waHQnLCAnMi4wJywgJy1waCcsICc3LjAnLCAnLXRuJywgJzgnLCAnLW1hJywgJzIwMCcsICctaW1hZScsICc8aW5maWxlLm1hZT4nLCAnLW9tYWUnLCAnPG91dGZpbGUubWFlPic=

>  <r_lp_tautomer_probability>  (160) 
1

>  <r_epik_Ionization_Penalty>  (160) 
2.16491e-07

>  <r_epik_Ionization_Penalty_Charging>  (160) 
0

>  <r_epik_Ionization_Penalty_Neutral>  (160) 
2.16491e-07

>  <r_epik_State_Penalty>  (160) 
-0

>  <r_epik_Charging_Adjusted_Penalty>  (160) 
0

>  <i_epik_Tot_Q>  (160) 
0

>  <i_epik_Tot_abs_Q>  (160) 
0

>  <s_epik_Chemistry_Notes>  (160) 
This compound has an ester and may undergo hydrolysis at high or low pH. This compound contains an acetal/aminal-like group ( X-CH(R)-Y where X, Y are N, S, or O) that may be acid/base labile, releasing an aldehyde.

>  <s_lp_Force_Field>  (160) 
OPLS3e

>  <r_lp_Energy>  (160) 
40.9042

>  <b_lp_Chiralities_Consistent>  (160) 
1

>  <s_lp_Variant>  (160) 
56:0-1

>  <s_i_glide_gridfile>  (160) 
pfpi4k_grid

>  <i_i_glide_lignum>  (160) 
31

>  <i_i_glide_rotatable_bonds>  (160) 
1

>  <r_i_docking_score>  (160) 
-3.76638

>  <r_i_glide_ligand_efficiency>  (160) 
-0.179352

>  <r_i_glide_ligand_efficiency_sa>  (160) 
-0.494818

>  <r_i_glide_ligand_efficiency_ln>  (160) 
-0.931231

>  <r_i_glide_gscore>  (160) 
-3.76638

>  <r_i_glide_lipo>  (160) 
-0.474182

>  <r_i_glide_hbond>  (160) 
-0.0186885

>  <r_i_glide_metal>  (160) 
-0

>  <r_i_glide_rewards>  (160) 
-1.58806

>  <r_i_glide_evdw>  (160) 
-23.3737

>  <r_i_glide_ecoul>  (160) 
-3.33735

>  <r_i_glide_erotb>  (160) 
0

>  <r_i_glide_esite>  (160) 
-0.0161665

>  <r_i_glide_emodel>  (160) 
-31.904

>  <r_i_glide_energy>  (160) 
-26.7111

>  <r_i_glide_einternal>  (160) 
1.59299

>  <r_i_glide_intrahb_reward>  (160) 
-0

>  <i_i_glide_confnum>  (160) 
1

>  <i_i_glide_posenum>  (160) 
13

>  <r_i_glide_eff_state_penalty>  (160) 
0

>  <ligand_id>  (160) 
56

>  <original_smiles>  (160) 
C=C1C(=O)OC2CC3(C)C(CC12)C1OC12C(O)OC(C)C32

>  <smiles>  (160) 
[H]OC1([H])OC([H])(C([H])([H])[H])C2([H])C13OC3([H])C1([H])C([H])([H])C3([H])C(=C([H])[H])C(=O)OC3([H])C([H])([H])C12C([H])([H])[H]

$$$$
56:0:2
     RDKit          3D

 41 45  0  0  1  0  0  0  0  0999 V2000
   -2.0727    2.7948    2.8967 C   0  0  0  0  0  0  0  0  0  0  0  0
   -0.8492    2.8237    3.4456 C   0  0  0  0  0  0  0  0  0  0  0  0
   -0.1476    4.0605    3.7746 C   0  0  0  0  0  0  0  0  0  0  0  0
   -0.6232    5.2006    3.7695 O   0  0  0  0  0  0  0  0  0  0  0  0
    1.1011    3.7442    4.1289 O   0  0  0  0  0  0  0  0  0  0  0  0
    1.4278    2.3701    3.9471 C   0  0  1  0  0  0  0  0  0  0  0  0
    2.2483    1.8284    5.1308 C   0  0  0  0  0  0  0  0  0  0  0  0
    2.1533    0.2942    5.3054 C   0  0  1  0  0  0  0  0  0  0  0  0
    2.9973   -0.0675    6.5501 C   0  0  0  0  0  0  0  0  0  0  0  0
    0.6446   -0.1477    5.5051 C   0  0  1  0  0  0  0  0  0  0  0  0
   -0.4005    0.8605    4.9603 C   0  0  0  0  0  0  0  0  0  0  0  0
    0.0696    1.6714    3.7367 C   0  0  1  0  0  0  0  0  0  0  0  0
    0.5260   -1.5053    4.8510 C   0  0  2  0  0  0  0  0  0  0  0  0
    1.5384   -2.4199    5.2544 O   0  0  0  0  0  0  0  0  0  0  0  0
    1.7456   -1.6933    4.0227 C   0  0  1  0  0  0  0  0  0  0  0  0
    2.3340   -2.6271    3.0124 C   0  0  1  0  0  0  0  0  0  0  0  0
    1.8664   -2.3207    1.7174 O   0  0  0  0  0  0  0  0  0  0  0  0
    3.7130   -2.4087    3.1466 O   0  0  0  0  0  0  0  0  0  0  0  0
    3.9966   -1.1928    3.8689 C   0  0  1  0  0  0  0  0  0  0  0  0
    5.0208   -0.3792    3.0761 C   0  0  0  0  0  0  0  0  0  0  0  0
    2.6266   -0.5216    4.0461 C   0  0  2  0  0  0  0  0  0  0  0  0
   -2.5515    1.8637    2.6315 H   0  0  0  0  0  0  0  0  0  0  0  0
   -2.6159    3.7112    2.6928 H   0  0  0  0  0  0  0  0  0  0  0  0
    2.0169    2.2878    3.0315 H   0  0  0  0  0  0  0  0  0  0  0  0
    3.2867    2.1514    5.0374 H   0  0  0  0  0  0  0  0  0  0  0  0
    1.8733    2.2885    6.0481 H   0  0  0  0  0  0  0  0  0  0  0  0
    3.0037   -1.1400    6.7587 H   0  0  0  0  0  0  0  0  0  0  0  0
    2.6234    0.4345    7.4440 H   0  0  0  0  0  0  0  0  0  0  0  0
    4.0356    0.2442    6.4141 H   0  0  0  0  0  0  0  0  0  0  0  0
    0.4323   -0.2931    6.5664 H   0  0  0  0  0  0  0  0  0  0  0  0
   -1.3228    0.3393    4.7104 H   0  0  0  0  0  0  0  0  0  0  0  0
   -0.6697    1.5508    5.7579 H   0  0  0  0  0  0  0  0  0  0  0  0
    0.1175    1.0240    2.8609 H   0  0  0  0  0  0  0  0  0  0  0  0
   -0.4445   -1.9502    4.6226 H   0  0  0  0  0  0  0  0  0  0  0  0
    2.1049   -3.6723    3.2108 H   0  0  0  0  0  0  0  0  0  0  0  0
    2.0081   -1.4066    1.5257 H   0  0  0  0  0  0  0  0  0  0  0  0
    4.4050   -1.4865    4.8353 H   0  0  0  0  0  0  0  0  0  0  0  0
    5.2625    0.5513    3.5849 H   0  0  0  0  0  0  0  0  0  0  0  0
    4.6521   -0.1447    2.0757 H   0  0  0  0  0  0  0  0  0  0  0  0
    5.9379   -0.9541    2.9607 H   0  0  0  0  0  0  0  0  0  0  0  0
    2.3987    0.0313    3.1371 H   0  0  0  0  0  0  0  0  0  0  0  0
  1  2  2  0
  1 22  1  0
  1 23  1  0
  2 12  1  0
  2  3  1  0
  3  4  2  0
  3  5  1  0
  5  6  1  0
  6 12  1  0
  6  7  1  0
  6 24  1  6
  7  8  1  0
  7 25  1  0
  7 26  1  0
  8 21  1  0
  8  9  1  1
  8 10  1  0
  9 27  1  0
  9 28  1  0
  9 29  1  0
 10 11  1  0
 10 13  1  0
 10 30  1  1
 11 12  1  0
 11 31  1  0
 11 32  1  0
 12 33  1  6
 13 15  1  0
 13 14  1  0
 13 34  1  6
 15 14  1  1
 15 21  1  0
 15 16  1  0
 16 17  1  0
 16 18  1  0
 16 35  1  1
 17 36  1  0
 18 19  1  0
 19 20  1  0
 19 21  1  0
 19 37  1  1
 20 38  1  0
 20 39  1  0
 20 40  1  0
 21 41  1  6
M  END
>  <i_m_ct_stereo_status>  (161) 
1

>  <s_m_source_file>  (161) 
/var/tmp/pbs.5076255.sched01/tmpscvaj2_a/3886avry94.sdf

>  <i_m_source_file_index>  (161) 
31

>  <i_lp_mmshare_version>  (161) 
48012

>  <i_f3d_flags>  (161) 
0

>  <s_epik_input>  (161) 
Tz1DKE8xKUMoPVtDSDJdKVtDQEhdKFtDSDJdMilbQ0BASF0xW0NIMl1bQ0BAXShbQ0gzXSkoW0NAQEhdMltDQEhdKE8zKVtDQEBdMzQ1KVtDQEhdNVtDQEhdKFtDSDNdKU9bQ0BASF00W09IXQ==

>  <s_epik_cmdline>  (161) 
J2VwaWtfcHl0aG9uJywgJy1waHQnLCAnMi4wJywgJy1waCcsICc3LjAnLCAnLXRuJywgJzgnLCAnLW1hJywgJzIwMCcsICctaW1hZScsICc8aW5maWxlLm1hZT4nLCAnLW9tYWUnLCAnPG91dGZpbGUubWFlPic=

>  <r_lp_tautomer_probability>  (161) 
1

>  <r_epik_Ionization_Penalty>  (161) 
2.16491e-07

>  <r_epik_Ionization_Penalty_Charging>  (161) 
0

>  <r_epik_Ionization_Penalty_Neutral>  (161) 
2.16491e-07

>  <r_epik_State_Penalty>  (161) 
-0

>  <r_epik_Charging_Adjusted_Penalty>  (161) 
0

>  <i_epik_Tot_Q>  (161) 
0

>  <i_epik_Tot_abs_Q>  (161) 
0

>  <s_epik_Chemistry_Notes>  (161) 
This compound has an ester and may undergo hydrolysis at high or low pH. This compound contains an acetal/aminal-like group ( X-CH(R)-Y where X, Y are N, S, or O) that may be acid/base labile, releasing an aldehyde.

>  <s_lp_Force_Field>  (161) 
OPLS3e

>  <r_lp_Energy>  (161) 
40.9042

>  <b_lp_Chiralities_Consistent>  (161) 
1

>  <s_lp_Variant>  (161) 
56:0-1

>  <s_i_glide_gridfile>  (161) 
pfpi4k_grid

>  <i_i_glide_lignum>  (161) 
31

>  <i_i_glide_rotatable_bonds>  (161) 
1

>  <r_i_docking_score>  (161) 
-2.86938

>  <r_i_glide_ligand_efficiency>  (161) 
-0.136637

>  <r_i_glide_ligand_efficiency_sa>  (161) 
-0.376972

>  <r_i_glide_ligand_efficiency_ln>  (161) 
-0.70945

>  <r_i_glide_gscore>  (161) 
-2.86938

>  <r_i_glide_lipo>  (161) 
-0.140994

>  <r_i_glide_hbond>  (161) 
-0.0826066

>  <r_i_glide_metal>  (161) 
-0

>  <r_i_glide_rewards>  (161) 
-1.41595

>  <r_i_glide_evdw>  (161) 
-15.2183

>  <r_i_glide_ecoul>  (161) 
-2.45133

>  <r_i_glide_erotb>  (161) 
0

>  <r_i_glide_esite>  (161) 
-0.101218

>  <r_i_glide_emodel>  (161) 
-22.5907

>  <r_i_glide_energy>  (161) 
-17.6696

>  <r_i_glide_einternal>  (161) 
0.0049418

>  <r_i_glide_intrahb_reward>  (161) 
-0

>  <i_i_glide_confnum>  (161) 
2

>  <i_i_glide_posenum>  (161) 
7

>  <r_i_glide_eff_state_penalty>  (161) 
0

>  <ligand_id>  (161) 
56

>  <original_smiles>  (161) 
C=C1C(=O)OC2CC3(C)C(CC12)C1OC12C(O)OC(C)C32

>  <smiles>  (161) 
[H]OC1([H])OC([H])(C([H])([H])[H])C2([H])C13OC3([H])C1([H])C([H])([H])C3([H])C(=C([H])[H])C(=O)OC3([H])C([H])([H])C12C([H])([H])[H]

$$$$
59:0:0
     RDKit          3D

 44 46  0  0  1  0  0  0  0  0999 V2000
    0.9369   -0.0604   11.4714 O   0  0  0  0  0  0  0  0  0  0  0  0
    0.2673    0.5675   10.6615 C   0  0  0  0  0  0  0  0  0  0  0  0
   -0.5810    1.7238   11.0626 C   0  0  0  0  0  0  0  0  0  0  0  0
   -1.3120    2.4039   10.1697 C   0  0  0  0  0  0  0  0  0  0  0  0
   -1.3101    2.0427    8.7617 C   0  0  0  0  0  0  0  0  0  0  0  0
   -2.0926    2.7436    7.8237 C   0  0  0  0  0  0  0  0  0  0  0  0
   -2.0516    2.3293    6.4687 C   0  0  0  0  0  0  0  0  0  0  0  0
   -1.2710    1.2224    6.0596 C   0  0  0  0  0  0  0  0  0  0  0  0
   -1.2538    0.7376    4.7825 O   0  0  0  0  0  0  0  0  0  0  0  0
   -1.7305    1.6006    3.7258 C   0  0  0  0  0  0  0  0  0  0  0  0
   -0.6439    2.6311    3.3665 C   0  0  2  0  0  0  0  0  0  0  0  0
   -1.3268    3.7809    2.8689 O   0  0  0  0  0  0  0  0  0  0  0  0
    0.3669    2.1442    2.2879 C   0  0  0  0  0  0  0  0  0  0  0  0
    1.1820    0.9718    2.6820 N   0  0  0  0  0  0  0  0  0  0  0  0
    2.4928    0.9259    1.9449 C   0  0  0  0  0  0  0  0  0  0  0  0
    3.3735   -0.2466    2.4256 C   0  0  0  0  0  0  0  0  0  0  0  0
    2.6337   -1.6021    2.3507 C   0  0  0  0  0  0  0  0  0  0  0  0
    1.2809   -1.4883    3.0708 C   0  0  0  0  0  0  0  0  0  0  0  0
    0.4345   -0.3235    2.5325 C   0  0  0  0  0  0  0  0  0  0  0  0
   -0.4888    0.5527    7.0185 C   0  0  0  0  0  0  0  0  0  0  0  0
   -0.5030    0.9507    8.3888 C   0  0  0  0  0  0  0  0  0  0  0  0
    0.2370    0.2505    9.3120 O   0  0  0  0  0  0  0  0  0  0  0  0
   -0.5884    1.9593   12.1081 H   0  0  0  0  0  0  0  0  0  0  0  0
   -1.9468    3.2245   10.4923 H   0  0  0  0  0  0  0  0  0  0  0  0
   -2.7217    3.5663    8.1097 H   0  0  0  0  0  0  0  0  0  0  0  0
   -2.6613    2.8980    5.7976 H   0  0  0  0  0  0  0  0  0  0  0  0
   -1.8380    0.9561    2.8387 H   0  0  0  0  0  0  0  0  0  0  0  0
   -2.7000    2.0165    3.9382 H   0  0  0  0  0  0  0  0  0  0  0  0
   -0.0874    2.9762    4.2435 H   0  0  0  0  0  0  0  0  0  0  0  0
   -0.8120    4.1422    2.1620 H   0  0  0  0  0  0  0  0  0  0  0  0
   -0.1293    1.9590    1.3278 H   0  0  0  0  0  0  0  0  0  0  0  0
    1.0435    2.9661    2.0954 H   0  0  0  0  0  0  0  0  0  0  0  0
    2.2692    0.8035    0.8837 H   0  0  0  0  0  0  0  0  0  0  0  0
    3.0515    1.8635    2.0528 H   0  0  0  0  0  0  0  0  0  0  0  0
    4.2896   -0.3012    1.8230 H   0  0  0  0  0  0  0  0  0  0  0  0
    3.6732   -0.0565    3.4610 H   0  0  0  0  0  0  0  0  0  0  0  0
    2.4213   -1.8519    1.3052 H   0  0  0  0  0  0  0  0  0  0  0  0
    3.2258   -2.4164    2.7905 H   0  0  0  0  0  0  0  0  0  0  0  0
    0.7072   -2.4060    2.9523 H   0  0  0  0  0  0  0  0  0  0  0  0
    1.4362   -1.3546    4.1442 H   0  0  0  0  0  0  0  0  0  0  0  0
   -0.5044   -0.4010    3.0332 H   0  0  0  0  0  0  0  0  0  0  0  0
    0.2840   -0.4677    1.4414 H   0  0  0  0  0  0  0  0  0  0  0  0
    0.1266   -0.2862    6.7508 H   0  0  0  0  0  0  0  0  0  0  0  0
    1.4447    1.0962    3.6552 H   0  0  0  0  0  0  0  0  0  0  0  0
  1  2  2  0
  2 22  1  0
  2  3  1  0
  3  4  2  0
  3 23  1  0
  4  5  1  0
  4 24  1  0
  5 21  2  0
  5  6  1  0
  6  7  2  0
  6 25  1  0
  7  8  1  0
  7 26  1  0
  8  9  1  0
  8 20  2  0
  9 10  1  0
 10 11  1  0
 10 27  1  0
 10 28  1  0
 11 12  1  0
 11 13  1  0
 11 29  1  1
 12 30  1  0
 13 14  1  0
 13 31  1  0
 13 32  1  0
 14 19  1  0
 14 15  1  0
 14 44  1  0
 15 16  1  0
 15 33  1  0
 15 34  1  0
 16 17  1  0
 16 35  1  0
 16 36  1  0
 17 18  1  0
 17 37  1  0
 17 38  1  0
 18 19  1  0
 18 39  1  0
 18 40  1  0
 19 41  1  0
 19 42  1  0
 20 21  1  0
 20 43  1  0
 21 22  1  0
M  CHG  1  14   1
M  END
>  <i_m_ct_stereo_status>  (162) 
1

>  <s_m_source_file>  (162) 
/var/tmp/pbs.5076255.sched01/tmpscvaj2_a/3886avry94.sdf

>  <i_m_source_file_index>  (162) 
34

>  <i_lp_mmshare_version>  (162) 
48012

>  <i_f3d_flags>  (162) 
0

>  <s_epik_input>  (162) 
W2NIXTFbY0hdYyg9TylvYyhjMTIpW2NIXWMoW2NIXVtjSF0yKU9bQ0gyXVtDQEhdKFtPSF0pW0NIMl1OM1tDSDJdW0NIMl1bQ0gyXVtDSDJdW0NIMl0z

>  <s_epik_cmdline>  (162) 
J2VwaWtfcHl0aG9uJywgJy1waHQnLCAnMi4wJywgJy1waCcsICc3LjAnLCAnLXRuJywgJzgnLCAnLW1hJywgJzIwMCcsICctaW1hZScsICc8aW5maWxlLm1hZT4nLCAnLW9tYWUnLCAnPG91dGZpbGUubWFlPic=

>  <r_epik_Ionization_Penalty>  (162) 
0.00655667

>  <r_epik_Ionization_Penalty_Charging>  (162) 
0.00655593

>  <r_epik_Ionization_Penalty_Neutral>  (162) 
7.48928e-07

>  <r_epik_State_Penalty>  (162) 
0.00485521

>  <r_epik_Charging_Adjusted_Penalty>  (162) 
0.0114111

>  <i_epik_Tot_Q>  (162) 
1

>  <i_epik_Tot_abs_Q>  (162) 
1

>  <s_lp_Force_Field>  (162) 
OPLS3e

>  <r_lp_Energy>  (162) 
36.8922

>  <b_lp_Chiralities_Consistent>  (162) 
1

>  <s_lp_Variant>  (162) 
59:0-1

>  <s_i_glide_gridfile>  (162) 
pfpi4k_grid

>  <i_i_glide_lignum>  (162) 
34

>  <i_i_glide_rotatable_bonds>  (162) 
6

>  <r_i_docking_score>  (162) 
-3.37494

>  <r_i_glide_ligand_efficiency>  (162) 
-0.153406

>  <r_i_glide_ligand_efficiency_sa>  (162) 
-0.429851

>  <r_i_glide_ligand_efficiency_ln>  (162) 
-0.824958

>  <r_i_glide_gscore>  (162) 
-3.37494

>  <r_i_glide_lipo>  (162) 
-0.0741127

>  <r_i_glide_hbond>  (162) 
-0.16

>  <r_i_glide_metal>  (162) 
-0

>  <r_i_glide_rewards>  (162) 
-1.3339

>  <r_i_glide_evdw>  (162) 
-17.0501

>  <r_i_glide_ecoul>  (162) 
-10.1429

>  <r_i_glide_erotb>  (162) 
0.597213

>  <r_i_glide_esite>  (162) 
-0.0302025

>  <r_i_glide_emodel>  (162) 
-32.1183

>  <r_i_glide_energy>  (162) 
-27.1929

>  <r_i_glide_einternal>  (162) 
3.17856

>  <r_i_glide_intrahb_reward>  (162) 
-0

>  <i_i_glide_confnum>  (162) 
4

>  <i_i_glide_posenum>  (162) 
1

>  <r_i_glide_eff_state_penalty>  (162) 
0

>  <ligand_id>  (162) 
59

>  <original_smiles>  (162) 
O=c1ccc2ccc(OCC(O)CN3CCCCC3)cc2o1

>  <smiles>  (162) 
[H]OC([H])(C([H])([H])Oc1c([H])c([H])c2c([H])c([H])c(=O)oc2c1[H])C([H])([H])[N+]1([H])C([H])([H])C([H])([H])C([H])([H])C([H])([H])C1([H])[H]

$$$$
59:0:1
     RDKit          3D

 44 46  0  0  1  0  0  0  0  0999 V2000
   -3.5291    3.9414    8.9720 O   0  0  0  0  0  0  0  0  0  0  0  0
   -2.6610    3.0973    8.7859 C   0  0  0  0  0  0  0  0  0  0  0  0
   -1.7251    2.6681    9.8492 C   0  0  0  0  0  0  0  0  0  0  0  0
   -0.7652    1.7543    9.6126 C   0  0  0  0  0  0  0  0  0  0  0  0
   -0.6123    1.1476    8.2926 C   0  0  0  0  0  0  0  0  0  0  0  0
    0.3637    0.1712    7.9929 C   0  0  0  0  0  0  0  0  0  0  0  0
    0.4310   -0.3653    6.6914 C   0  0  0  0  0  0  0  0  0  0  0  0
   -0.4586    0.0840    5.6882 C   0  0  0  0  0  0  0  0  0  0  0  0
   -0.3583   -0.4339    4.4162 O   0  0  0  0  0  0  0  0  0  0  0  0
   -0.5370    0.4694    3.3193 C   0  0  0  0  0  0  0  0  0  0  0  0
    0.7939    0.5617    2.5743 C   0  0  2  0  0  0  0  0  0  0  0  0
    0.6518    1.3484    1.4101 O   0  0  0  0  0  0  0  0  0  0  0  0
    1.3147   -0.8354    2.1916 C   0  0  0  0  0  0  0  0  0  0  0  0
    2.6602   -0.7999    1.5754 N   0  0  0  0  0  0  0  0  0  0  0  0
    3.0026   -2.1156    0.9751 C   0  0  0  0  0  0  0  0  0  0  0  0
    4.3595   -2.0646    0.2515 C   0  0  0  0  0  0  0  0  0  0  0  0
    5.4755   -1.5842    1.1905 C   0  0  0  0  0  0  0  0  0  0  0  0
    5.0790   -0.2584    1.8403 C   0  0  0  0  0  0  0  0  0  0  0  0
    3.7128   -0.3515    2.5284 C   0  0  0  0  0  0  0  0  0  0  0  0
   -1.4567    1.0219    6.0176 C   0  0  0  0  0  0  0  0  0  0  0  0
   -1.5262    1.5684    7.3072 C   0  0  0  0  0  0  0  0  0  0  0  0
   -2.5101    2.4978    7.5631 O   0  0  0  0  0  0  0  0  0  0  0  0
   -1.8500    3.1105   10.8224 H   0  0  0  0  0  0  0  0  0  0  0  0
   -0.0957    1.4459   10.3996 H   0  0  0  0  0  0  0  0  0  0  0  0
    1.0535   -0.1579    8.7561 H   0  0  0  0  0  0  0  0  0  0  0  0
    1.1846   -1.1052    6.4547 H   0  0  0  0  0  0  0  0  0  0  0  0
   -1.3453    0.1350    2.6716 H   0  0  0  0  0  0  0  0  0  0  0  0
   -0.8013    1.4790    3.6139 H   0  0  0  0  0  0  0  0  0  0  0  0
    1.4694    1.0635    3.2625 H   0  0  0  0  0  0  0  0  0  0  0  0
    0.0836    0.9162    0.7799 H   0  0  0  0  0  0  0  0  0  0  0  0
    1.3441   -1.5044    3.0557 H   0  0  0  0  0  0  0  0  0  0  0  0
    0.6169   -1.2882    1.4913 H   0  0  0  0  0  0  0  0  0  0  0  0
    3.0348   -2.8714    1.7634 H   0  0  0  0  0  0  0  0  0  0  0  0
    2.2285   -2.4278    0.2715 H   0  0  0  0  0  0  0  0  0  0  0  0
    4.6016   -3.0541   -0.1414 H   0  0  0  0  0  0  0  0  0  0  0  0
    4.2824   -1.4015   -0.6119 H   0  0  0  0  0  0  0  0  0  0  0  0
    5.6512   -2.3298    1.9681 H   0  0  0  0  0  0  0  0  0  0  0  0
    6.4110   -1.4670    0.6439 H   0  0  0  0  0  0  0  0  0  0  0  0
    5.8323    0.0464    2.5703 H   0  0  0  0  0  0  0  0  0  0  0  0
    5.0428    0.5269    1.0839 H   0  0  0  0  0  0  0  0  0  0  0  0
    3.5052    0.6323    2.9483 H   0  0  0  0  0  0  0  0  0  0  0  0
    3.7665   -1.0515    3.3664 H   0  0  0  0  0  0  0  0  0  0  0  0
   -2.1784    1.3401    5.2824 H   0  0  0  0  0  0  0  0  0  0  0  0
    2.6013   -0.1327    0.8182 H   0  0  0  0  0  0  0  0  0  0  0  0
  1  2  2  0
  2 22  1  0
  2  3  1  0
  3  4  2  0
  3 23  1  0
  4  5  1  0
  4 24  1  0
  5 21  2  0
  5  6  1  0
  6  7  2  0
  6 25  1  0
  7  8  1  0
  7 26  1  0
  8  9  1  0
  8 20  2  0
  9 10  1  0
 10 11  1  0
 10 27  1  0
 10 28  1  0
 11 12  1  0
 11 13  1  0
 11 29  1  1
 12 30  1  0
 13 14  1  0
 13 31  1  0
 13 32  1  0
 14 19  1  0
 14 15  1  0
 14 44  1  0
 15 16  1  0
 15 33  1  0
 15 34  1  0
 16 17  1  0
 16 35  1  0
 16 36  1  0
 17 18  1  0
 17 37  1  0
 17 38  1  0
 18 19  1  0
 18 39  1  0
 18 40  1  0
 19 41  1  0
 19 42  1  0
 20 21  1  0
 20 43  1  0
 21 22  1  0
M  CHG  1  14   1
M  END
>  <i_m_ct_stereo_status>  (163) 
1

>  <s_m_source_file>  (163) 
/var/tmp/pbs.5076255.sched01/tmpscvaj2_a/3886avry94.sdf

>  <i_m_source_file_index>  (163) 
34

>  <i_lp_mmshare_version>  (163) 
48012

>  <i_f3d_flags>  (163) 
0

>  <s_epik_input>  (163) 
W2NIXTFbY0hdYyg9TylvYyhjMTIpW2NIXWMoW2NIXVtjSF0yKU9bQ0gyXVtDQEhdKFtPSF0pW0NIMl1OM1tDSDJdW0NIMl1bQ0gyXVtDSDJdW0NIMl0z

>  <s_epik_cmdline>  (163) 
J2VwaWtfcHl0aG9uJywgJy1waHQnLCAnMi4wJywgJy1waCcsICc3LjAnLCAnLXRuJywgJzgnLCAnLW1hJywgJzIwMCcsICctaW1hZScsICc8aW5maWxlLm1hZT4nLCAnLW9tYWUnLCAnPG91dGZpbGUubWFlPic=

>  <r_epik_Ionization_Penalty>  (163) 
0.00655667

>  <r_epik_Ionization_Penalty_Charging>  (163) 
0.00655593

>  <r_epik_Ionization_Penalty_Neutral>  (163) 
7.48928e-07

>  <r_epik_State_Penalty>  (163) 
0.00485521

>  <r_epik_Charging_Adjusted_Penalty>  (163) 
0.0114111

>  <i_epik_Tot_Q>  (163) 
1

>  <i_epik_Tot_abs_Q>  (163) 
1

>  <s_lp_Force_Field>  (163) 
OPLS3e

>  <r_lp_Energy>  (163) 
36.8922

>  <b_lp_Chiralities_Consistent>  (163) 
1

>  <s_lp_Variant>  (163) 
59:0-1

>  <s_i_glide_gridfile>  (163) 
pfpi4k_grid

>  <i_i_glide_lignum>  (163) 
34

>  <i_i_glide_rotatable_bonds>  (163) 
6

>  <r_i_docking_score>  (163) 
-3.15823

>  <r_i_glide_ligand_efficiency>  (163) 
-0.143556

>  <r_i_glide_ligand_efficiency_sa>  (163) 
-0.40225

>  <r_i_glide_ligand_efficiency_ln>  (163) 
-0.771987

>  <r_i_glide_gscore>  (163) 
-3.15823

>  <r_i_glide_lipo>  (163) 
-0.284395

>  <r_i_glide_hbond>  (163) 
-0.151275

>  <r_i_glide_metal>  (163) 
-0

>  <r_i_glide_rewards>  (163) 
-1.3339

>  <r_i_glide_evdw>  (163) 
-20.9699

>  <r_i_glide_ecoul>  (163) 
-5.87633

>  <r_i_glide_erotb>  (163) 
0.597213

>  <r_i_glide_esite>  (163) 
-0.0559297

>  <r_i_glide_emodel>  (163) 
-31.0656

>  <r_i_glide_energy>  (163) 
-26.8462

>  <r_i_glide_einternal>  (163) 
6.44895

>  <r_i_glide_intrahb_reward>  (163) 
-0

>  <i_i_glide_confnum>  (163) 
3

>  <i_i_glide_posenum>  (163) 
11

>  <r_i_glide_eff_state_penalty>  (163) 
0

>  <ligand_id>  (163) 
59

>  <original_smiles>  (163) 
O=c1ccc2ccc(OCC(O)CN3CCCCC3)cc2o1

>  <smiles>  (163) 
[H]OC([H])(C([H])([H])Oc1c([H])c([H])c2c([H])c([H])c(=O)oc2c1[H])C([H])([H])[N+]1([H])C([H])([H])C([H])([H])C([H])([H])C([H])([H])C1([H])[H]

$$$$
59:0:2
     RDKit          3D

 44 46  0  0  1  0  0  0  0  0999 V2000
   -3.6985    3.0281    9.3495 O   0  0  0  0  0  0  0  0  0  0  0  0
   -2.8507    3.2091    8.4857 C   0  0  0  0  0  0  0  0  0  0  0  0
   -1.9122    4.3534    8.5275 C   0  0  0  0  0  0  0  0  0  0  0  0
   -0.9972    4.5462    7.5651 C   0  0  0  0  0  0  0  0  0  0  0  0
   -0.8928    3.6377    6.4305 C   0  0  0  0  0  0  0  0  0  0  0  0
    0.0442    3.8167    5.3972 C   0  0  0  0  0  0  0  0  0  0  0  0
    0.0901    2.9068    4.3283 C   0  0  0  0  0  0  0  0  0  0  0  0
   -0.8107    1.8122    4.2786 C   0  0  0  0  0  0  0  0  0  0  0  0
   -0.8744    0.8949    3.2490 O   0  0  0  0  0  0  0  0  0  0  0  0
   -0.0176    1.0249    2.1170 C   0  0  0  0  0  0  0  0  0  0  0  0
    1.3368    0.3639    2.4123 C   0  0  2  0  0  0  0  0  0  0  0  0
    2.1680    0.4206    1.2768 O   0  0  0  0  0  0  0  0  0  0  0  0
    1.1659   -1.1250    2.7661 C   0  0  0  0  0  0  0  0  0  0  0  0
    2.4502   -1.7906    3.1188 N   0  0  0  0  0  0  0  0  0  0  0  0
    2.3040   -3.2725    3.1449 C   0  0  0  0  0  0  0  0  0  0  0  0
    3.6526   -3.9675    3.4036 C   0  0  0  0  0  0  0  0  0  0  0  0
    4.3035   -3.4548    4.6965 C   0  0  0  0  0  0  0  0  0  0  0  0
    4.3985   -1.9253    4.6767 C   0  0  0  0  0  0  0  0  0  0  0  0
    3.0321   -1.2891    4.3961 C   0  0  0  0  0  0  0  0  0  0  0  0
   -1.7298    1.6392    5.3378 C   0  0  0  0  0  0  0  0  0  0  0  0
   -1.7858    2.5474    6.4083 C   0  0  0  0  0  0  0  0  0  0  0  0
   -2.7178    2.3603    7.4120 O   0  0  0  0  0  0  0  0  0  0  0  0
   -2.0014    5.0244    9.3701 H   0  0  0  0  0  0  0  0  0  0  0  0
   -0.3192    5.3918    7.6092 H   0  0  0  0  0  0  0  0  0  0  0  0
    0.7258    4.6516    5.4146 H   0  0  0  0  0  0  0  0  0  0  0  0
    0.8235    3.0812    3.5555 H   0  0  0  0  0  0  0  0  0  0  0  0
   -0.5041    0.5205    1.2818 H   0  0  0  0  0  0  0  0  0  0  0  0
    0.0927    2.0611    1.8073 H   0  0  0  0  0  0  0  0  0  0  0  0
    1.8138    0.9164    3.2185 H   0  0  0  0  0  0  0  0  0  0  0  0
    1.6914    0.0642    0.5283 H   0  0  0  0  0  0  0  0  0  0  0  0
    0.4692   -1.2481    3.5971 H   0  0  0  0  0  0  0  0  0  0  0  0
    0.7124   -1.6341    1.9113 H   0  0  0  0  0  0  0  0  0  0  0  0
    1.5919   -3.5478    3.9261 H   0  0  0  0  0  0  0  0  0  0  0  0
    1.8899   -3.6333    2.2015 H   0  0  0  0  0  0  0  0  0  0  0  0
    3.5051   -5.0473    3.4628 H   0  0  0  0  0  0  0  0  0  0  0  0
    4.3183   -3.7953    2.5582 H   0  0  0  0  0  0  0  0  0  0  0  0
    3.7091   -3.7700    5.5566 H   0  0  0  0  0  0  0  0  0  0  0  0
    5.2953   -3.8913    4.8208 H   0  0  0  0  0  0  0  0  0  0  0  0
    4.7805   -1.5573    5.6305 H   0  0  0  0  0  0  0  0  0  0  0  0
    5.1123   -1.6038    3.9183 H   0  0  0  0  0  0  0  0  0  0  0  0
    3.1854   -0.2112    4.3845 H   0  0  0  0  0  0  0  0  0  0  0  0
    2.3432   -1.5042    5.2152 H   0  0  0  0  0  0  0  0  0  0  0  0
   -2.4081    0.7981    5.3112 H   0  0  0  0  0  0  0  0  0  0  0  0
    3.0975   -1.5605    2.3751 H   0  0  0  0  0  0  0  0  0  0  0  0
  1  2  2  0
  2 22  1  0
  2  3  1  0
  3  4  2  0
  3 23  1  0
  4  5  1  0
  4 24  1  0
  5 21  2  0
  5  6  1  0
  6  7  2  0
  6 25  1  0
  7  8  1  0
  7 26  1  0
  8  9  1  0
  8 20  2  0
  9 10  1  0
 10 11  1  0
 10 27  1  0
 10 28  1  0
 11 12  1  0
 11 13  1  0
 11 29  1  1
 12 30  1  0
 13 14  1  0
 13 31  1  0
 13 32  1  0
 14 19  1  0
 14 15  1  0
 14 44  1  0
 15 16  1  0
 15 33  1  0
 15 34  1  0
 16 17  1  0
 16 35  1  0
 16 36  1  0
 17 18  1  0
 17 37  1  0
 17 38  1  0
 18 19  1  0
 18 39  1  0
 18 40  1  0
 19 41  1  0
 19 42  1  0
 20 21  1  0
 20 43  1  0
 21 22  1  0
M  CHG  1  14   1
M  END
>  <i_m_ct_stereo_status>  (164) 
1

>  <s_m_source_file>  (164) 
/var/tmp/pbs.5076255.sched01/tmpscvaj2_a/3886avry94.sdf

>  <i_m_source_file_index>  (164) 
34

>  <i_lp_mmshare_version>  (164) 
48012

>  <i_f3d_flags>  (164) 
0

>  <s_epik_input>  (164) 
W2NIXTFbY0hdYyg9TylvYyhjMTIpW2NIXWMoW2NIXVtjSF0yKU9bQ0gyXVtDQEhdKFtPSF0pW0NIMl1OM1tDSDJdW0NIMl1bQ0gyXVtDSDJdW0NIMl0z

>  <s_epik_cmdline>  (164) 
J2VwaWtfcHl0aG9uJywgJy1waHQnLCAnMi4wJywgJy1waCcsICc3LjAnLCAnLXRuJywgJzgnLCAnLW1hJywgJzIwMCcsICctaW1hZScsICc8aW5maWxlLm1hZT4nLCAnLW9tYWUnLCAnPG91dGZpbGUubWFlPic=

>  <r_epik_Ionization_Penalty>  (164) 
0.00655667

>  <r_epik_Ionization_Penalty_Charging>  (164) 
0.00655593

>  <r_epik_Ionization_Penalty_Neutral>  (164) 
7.48928e-07

>  <r_epik_State_Penalty>  (164) 
0.00485521

>  <r_epik_Charging_Adjusted_Penalty>  (164) 
0.0114111

>  <i_epik_Tot_Q>  (164) 
1

>  <i_epik_Tot_abs_Q>  (164) 
1

>  <s_lp_Force_Field>  (164) 
OPLS3e

>  <r_lp_Energy>  (164) 
36.8922

>  <b_lp_Chiralities_Consistent>  (164) 
1

>  <s_lp_Variant>  (164) 
59:0-1

>  <s_i_glide_gridfile>  (164) 
pfpi4k_grid

>  <i_i_glide_lignum>  (164) 
34

>  <i_i_glide_rotatable_bonds>  (164) 
6

>  <r_i_docking_score>  (164) 
-2.96968

>  <r_i_glide_ligand_efficiency>  (164) 
-0.134986

>  <r_i_glide_ligand_efficiency_sa>  (164) 
-0.378235

>  <r_i_glide_ligand_efficiency_ln>  (164) 
-0.725899

>  <r_i_glide_gscore>  (164) 
-2.96968

>  <r_i_glide_lipo>  (164) 
-0.153484

>  <r_i_glide_hbond>  (164) 
-0.16

>  <r_i_glide_metal>  (164) 
-0

>  <r_i_glide_rewards>  (164) 
-1.3339

>  <r_i_glide_evdw>  (164) 
-20.2257

>  <r_i_glide_ecoul>  (164) 
-6.03231

>  <r_i_glide_erotb>  (164) 
0.597213

>  <r_i_glide_esite>  (164) 
-0.00337724

>  <r_i_glide_emodel>  (164) 
-33.1326

>  <r_i_glide_energy>  (164) 
-26.258

>  <r_i_glide_einternal>  (164) 
0.698844

>  <r_i_glide_intrahb_reward>  (164) 
-0

>  <i_i_glide_confnum>  (164) 
3

>  <i_i_glide_posenum>  (164) 
18

>  <r_i_glide_eff_state_penalty>  (164) 
0

>  <ligand_id>  (164) 
59

>  <original_smiles>  (164) 
O=c1ccc2ccc(OCC(O)CN3CCCCC3)cc2o1

>  <smiles>  (164) 
[H]OC([H])(C([H])([H])Oc1c([H])c([H])c2c([H])c([H])c(=O)oc2c1[H])C([H])([H])[N+]1([H])C([H])([H])C([H])([H])C([H])([H])C([H])([H])C1([H])[H]

$$$$
60:0:0
     RDKit          3D

 69 74  0  0  1  0  0  0  0  0999 V2000
    9.6579   -6.2805    6.1274 C   0  0  0  0  0  0  0  0  0  0  0  0
    8.3202   -6.6130    5.7834 O   0  0  0  0  0  0  0  0  0  0  0  0
    8.2063   -7.7288    4.9030 C   0  0  2  0  0  0  0  0  0  0  0  0
    8.4425   -7.2313    3.4573 C   0  0  0  0  0  0  0  0  0  0  0  0
    7.0625   -6.8795    2.8528 C   0  0  1  0  0  0  0  0  0  0  0  0
    6.8707   -7.5024    1.4603 C   0  0  0  0  0  0  0  0  0  0  0  0
    6.0430   -7.2578    3.9574 C   0  0  2  0  0  0  0  0  0  0  0  0
    6.7654   -8.2733    4.8276 C   0  0  2  0  0  0  0  0  0  0  0  0
    5.9691   -8.6970    6.0967 C   0  0  2  0  0  0  0  0  0  0  0  0
    6.4796   -8.0741    7.4139 C   0  0  0  0  0  0  0  0  0  0  0  0
    6.2091  -10.1163    6.1923 O   0  0  0  0  0  0  0  0  0  0  0  0
    4.8601  -10.4010    5.8024 C   0  0  2  0  0  0  0  0  0  0  0  0
    4.8131  -11.3193    4.5815 C   0  0  0  0  0  0  0  0  0  0  0  0
    4.3338  -11.1616    3.3361 C   0  0  0  0  0  0  0  0  0  0  0  0
    3.8611   -9.9116    2.6531 C   0  0  1  0  0  0  0  0  0  0  0  0
    2.3408   -9.6665    2.6348 C   0  0  0  0  0  0  0  0  0  0  0  0
    1.5707   -9.3766    3.9533 C   0  0  2  0  0  0  0  0  0  0  0  0
    1.5512  -10.5742    4.9741 C   0  0  0  0  0  0  0  0  0  0  0  0
    1.0525  -11.7656    4.4138 O   0  0  0  0  0  0  0  0  0  0  0  0
    0.8576  -10.2330    6.1561 O   0  0  0  0  0  0  0  0  0  0  0  0
    0.0533   -9.2385    3.5558 C   0  0  0  0  0  0  0  0  0  0  0  0
   -0.3251   -8.0063    2.7396 C   0  0  0  0  0  0  0  0  0  0  0  0
    0.0958   -6.7745    3.5193 C   0  0  0  0  0  0  0  0  0  0  0  0
    1.5994   -6.8030    3.7779 C   0  0  0  0  0  0  0  0  0  0  0  0
    2.1412   -8.0438    4.5813 C   0  0  2  0  0  0  0  0  0  0  0  0
    3.7144   -7.8937    4.8987 C   0  0  2  0  0  0  0  0  0  0  0  0
    3.7776   -6.4959    5.6265 C   0  0  0  0  0  0  0  0  0  0  0  0
    4.5945   -7.7180    3.6098 C   0  0  2  0  0  0  0  0  0  0  0  0
    4.7932   -8.8633    2.8081 O   0  0  0  0  0  0  0  0  0  0  0  0
    4.4238   -8.9025    5.9093 C   0  0  2  0  0  0  0  0  0  0  0  0
    3.6655   -8.7416    7.1006 O   0  0  0  0  0  0  0  0  0  0  0  0
    9.6498   -5.4300    6.8067 H   0  0  0  0  0  0  0  0  0  0  0  0
   10.2544   -5.9979    5.2629 H   0  0  0  0  0  0  0  0  0  0  0  0
   10.1573   -7.1070    6.6325 H   0  0  0  0  0  0  0  0  0  0  0  0
    8.9013   -8.5210    5.1867 H   0  0  0  0  0  0  0  0  0  0  0  0
    9.1162   -6.3759    3.4069 H   0  0  0  0  0  0  0  0  0  0  0  0
    8.9182   -8.0245    2.8810 H   0  0  0  0  0  0  0  0  0  0  0  0
    7.0159   -5.7976    2.7228 H   0  0  0  0  0  0  0  0  0  0  0  0
    6.9367   -8.5901    1.4886 H   0  0  0  0  0  0  0  0  0  0  0  0
    7.6389   -7.1415    0.7773 H   0  0  0  0  0  0  0  0  0  0  0  0
    5.9027   -7.2291    1.0414 H   0  0  0  0  0  0  0  0  0  0  0  0
    5.9888   -6.3370    4.5330 H   0  0  0  0  0  0  0  0  0  0  0  0
    6.8501   -9.1623    4.1994 H   0  0  0  0  0  0  0  0  0  0  0  0
    6.3857   -6.9895    7.4208 H   0  0  0  0  0  0  0  0  0  0  0  0
    7.5254   -8.3127    7.5902 H   0  0  0  0  0  0  0  0  0  0  0  0
    5.9310   -8.4419    8.2822 H   0  0  0  0  0  0  0  0  0  0  0  0
    4.3896  -10.9776    6.5992 H   0  0  0  0  0  0  0  0  0  0  0  0
    5.1462  -12.3230    4.8032 H   0  0  0  0  0  0  0  0  0  0  0  0
    4.3408  -12.0279    2.6862 H   0  0  0  0  0  0  0  0  0  0  0  0
    4.0696  -10.1581    1.6102 H   0  0  0  0  0  0  0  0  0  0  0  0
    2.1833   -8.8519    1.9312 H   0  0  0  0  0  0  0  0  0  0  0  0
    1.8814  -10.5312    2.1522 H   0  0  0  0  0  0  0  0  0  0  0  0
    2.5277  -10.8131    5.3294 H   0  0  0  0  0  0  0  0  0  0  0  0
    1.2301  -12.4644    5.0271 H   0  0  0  0  0  0  0  0  0  0  0  0
    1.0027  -10.9431    6.7858 H   0  0  0  0  0  0  0  0  0  0  0  0
   -0.2715  -10.1152    2.9933 H   0  0  0  0  0  0  0  0  0  0  0  0
   -0.5791   -9.2288    4.4435 H   0  0  0  0  0  0  0  0  0  0  0  0
    0.1303   -8.0267    1.7508 H   0  0  0  0  0  0  0  0  0  0  0  0
   -1.4040   -7.9937    2.5751 H   0  0  0  0  0  0  0  0  0  0  0  0
   -0.1511   -5.8768    2.9573 H   0  0  0  0  0  0  0  0  0  0  0  0
   -0.4481   -6.7249    4.4633 H   0  0  0  0  0  0  0  0  0  0  0  0
    2.0888   -6.7133    2.8128 H   0  0  0  0  0  0  0  0  0  0  0  0
    1.7837   -5.8681    4.2982 H   0  0  0  0  0  0  0  0  0  0  0  0
    1.6369   -7.9551    5.5419 H   0  0  0  0  0  0  0  0  0  0  0  0
    4.6667   -6.3690    6.2355 H   0  0  0  0  0  0  0  0  0  0  0  0
    2.9458   -6.3328    6.3139 H   0  0  0  0  0  0  0  0  0  0  0  0
    3.7943   -5.6632    4.9232 H   0  0  0  0  0  0  0  0  0  0  0  0
    4.1646   -6.9597    2.9568 H   0  0  0  0  0  0  0  0  0  0  0  0
    3.1772   -9.5373    7.2233 H   0  0  0  0  0  0  0  0  0  0  0  0
  1  2  1  0
  1 32  1  0
  1 33  1  0
  1 34  1  0
  2  3  1  0
  3  8  1  0
  3  4  1  0
  3 35  1  1
  4  5  1  0
  4 36  1  0
  4 37  1  0
  5  6  1  0
  5  7  1  0
  5 38  1  6
  6 39  1  0
  6 40  1  0
  6 41  1  0
  7 28  1  0
  7  8  1  0
  7 42  1  1
  8  9  1  0
  8 43  1  6
  9 30  1  0
  9 10  1  1
  9 11  1  0
 10 44  1  0
 10 45  1  0
 10 46  1  0
 11 12  1  0
 12 30  1  0
 12 13  1  0
 12 47  1  1
 13 14  2  3
 13 48  1  0
 14 15  1  0
 14 49  1  0
 15 29  1  0
 15 16  1  0
 15 50  1  6
 16 17  1  0
 16 51  1  0
 16 52  1  0
 17 25  1  0
 17 18  1  1
 17 21  1  0
 18 19  1  0
 18 20  1  0
 18 53  1  0
 19 54  1  0
 20 55  1  0
 21 22  1  0
 21 56  1  0
 21 57  1  0
 22 23  1  0
 22 58  1  0
 22 59  1  0
 23 24  1  0
 23 60  1  0
 23 61  1  0
 24 25  1  0
 24 62  1  0
 24 63  1  0
 25 26  1  0
 25 64  1  1
 26 27  1  1
 26 28  1  0
 26 30  1  0
 27 65  1  0
 27 66  1  0
 27 67  1  0
 28 29  1  0
 28 68  1  6
 30 31  1  1
 31 69  1  0
M  END
>  <i_m_ct_stereo_status>  (165) 
1

>  <s_m_source_file>  (165) 
/var/tmp/pbs.5076255.sched01/tmpscvaj2_a/3886avry94.sdf

>  <i_m_source_file_index>  (165) 
35

>  <i_lp_mmshare_version>  (165) 
48012

>  <i_f3d_flags>  (165) 
0

>  <s_epik_input>  (165) 
W0NIM11PW0NAQEhdMVtDSDJdW0NAQEhdKFtDSDNdKVtDQEhdKFtDQEBIXTFbQ0BdMjNbQ0gzXSlbQ0BASF00W0NAQF01KFtDSDNdKVtDQEBIXTZbQ0BAXShbQ0hdKFtPSF0pW09IXSkoW0NIMl1bQ0gyXVtDSDJdW0NIMl02KVtDSDJdW0NAQEhdKE80KS9bQ0hdPVtDSF1cW0NAQEhdKE8yKVtDQEBdMzVbT0hd

>  <s_epik_cmdline>  (165) 
J2VwaWtfcHl0aG9uJywgJy1waHQnLCAnMi4wJywgJy1waCcsICc3LjAnLCAnLXRuJywgJzgnLCAnLW1hJywgJzIwMCcsICctaW1hZScsICc8aW5maWxlLm1hZT4nLCAnLW9tYWUnLCAnPG91dGZpbGUubWFlPic=

>  <r_lp_tautomer_probability>  (165) 
1

>  <r_epik_Ionization_Penalty>  (165) 
2.55327e-07

>  <r_epik_Ionization_Penalty_Charging>  (165) 
0

>  <r_epik_Ionization_Penalty_Neutral>  (165) 
2.55327e-07

>  <r_epik_State_Penalty>  (165) 
-0

>  <r_epik_Charging_Adjusted_Penalty>  (165) 
0

>  <i_epik_Tot_Q>  (165) 
0

>  <i_epik_Tot_abs_Q>  (165) 
0

>  <s_epik_Chemistry_Notes>  (165) 
This compound contains an acetal/aminal-like group ( X-CH(R)-Y where X, Y are N, S, or O) that may be acid/base labile, releasing an aldehyde.

>  <s_lp_Force_Field>  (165) 
OPLS3e

>  <r_lp_Energy>  (165) 
104.308

>  <b_lp_Chiralities_Consistent>  (165) 
1

>  <s_lp_Variant>  (165) 
60:0-1

>  <s_i_glide_gridfile>  (165) 
pfpi4k_grid

>  <i_i_glide_lignum>  (165) 
35

>  <i_i_glide_rotatable_bonds>  (165) 
5

>  <r_i_docking_score>  (165) 
-2.37069

>  <r_i_glide_ligand_efficiency>  (165) 
-0.076474

>  <r_i_glide_ligand_efficiency_sa>  (165) 
-0.240234

>  <r_i_glide_ligand_efficiency_ln>  (165) 
-0.534664

>  <r_i_glide_gscore>  (165) 
-2.37069

>  <r_i_glide_lipo>  (165) 
-0.167391

>  <r_i_glide_hbond>  (165) 
0

>  <r_i_glide_metal>  (165) 
-0

>  <r_i_glide_rewards>  (165) 
-0.446143

>  <r_i_glide_evdw>  (165) 
-17.5067

>  <r_i_glide_ecoul>  (165) 
-6.22574

>  <r_i_glide_erotb>  (165) 
0.105465

>  <r_i_glide_esite>  (165) 
-0.053427

>  <r_i_glide_emodel>  (165) 
-26.9305

>  <r_i_glide_energy>  (165) 
-23.7325

>  <r_i_glide_einternal>  (165) 
1.96272

>  <r_i_glide_intrahb_reward>  (165) 
-0

>  <i_i_glide_confnum>  (165) 
2

>  <i_i_glide_posenum>  (165) 
1

>  <r_i_glide_eff_state_penalty>  (165) 
0

>  <ligand_id>  (165) 
60

>  <original_smiles>  (165) 
COC1CC(C)C2C1C1(C)OC3C=CC4CC5(C(O)O)CCCCC5C(C)(C2O4)C31O

>  <smiles>  (165) 
[H]OC([H])(O[H])C12C([H])([H])C3([H])OC4([H])C5([H])C([H])(C([H])([H])[H])C([H])([H])C([H])(OC([H])([H])[H])C5([H])C5(C([H])([H])[H])OC([H])(C([H])=C3[H])C5(O[H])C4(C([H])([H])[H])C1([H])C([H])([H])C([H])([H])C([H])([H])C2([H])[H]

$$$$
60:0:1
     RDKit          3D

 69 74  0  0  1  0  0  0  0  0999 V2000
    4.7408   -0.6071    4.3435 C   0  0  0  0  0  0  0  0  0  0  0  0
    4.0668   -1.8585    4.2722 O   0  0  0  0  0  0  0  0  0  0  0  0
    4.7330   -2.8346    3.4773 C   0  0  2  0  0  0  0  0  0  0  0  0
    4.4151   -2.5563    1.9891 C   0  0  0  0  0  0  0  0  0  0  0  0
    3.1700   -3.3907    1.6056 C   0  0  1  0  0  0  0  0  0  0  0  0
    3.3831   -4.1642    0.2924 C   0  0  0  0  0  0  0  0  0  0  0  0
    2.8469   -4.2098    2.8813 C   0  0  2  0  0  0  0  0  0  0  0  0
    4.1496   -4.2521    3.6612 C   0  0  2  0  0  0  0  0  0  0  0  0
    4.0179   -4.9175    5.0621 C   0  0  2  0  0  0  0  0  0  0  0  0
    4.0271   -3.9372    6.2481 C   0  0  0  0  0  0  0  0  0  0  0  0
    5.2257   -5.7054    5.1831 O   0  0  0  0  0  0  0  0  0  0  0  0
    4.4801   -6.9247    5.0355 C   0  0  2  0  0  0  0  0  0  0  0  0
    5.0242   -7.7643    3.8839 C   0  0  0  0  0  0  0  0  0  0  0  0
    4.4877   -8.1841    2.7296 C   0  0  0  0  0  0  0  0  0  0  0  0
    3.1966   -7.7778    2.0775 C   0  0  1  0  0  0  0  0  0  0  0  0
    1.9875   -8.7035    2.3026 C   0  0  0  0  0  0  0  0  0  0  0  0
    1.3588   -8.8529    3.7160 C   0  0  2  0  0  0  0  0  0  0  0  0
    2.2914   -9.5386    4.7842 C   0  0  0  0  0  0  0  0  0  0  0  0
    2.7486  -10.8033    4.3628 O   0  0  0  0  0  0  0  0  0  0  0  0
    1.7069   -9.5942    6.0704 O   0  0  0  0  0  0  0  0  0  0  0  0
    0.1945   -9.8952    3.5635 C   0  0  0  0  0  0  0  0  0  0  0  0
   -1.0238   -9.4423    2.7667 C   0  0  0  0  0  0  0  0  0  0  0  0
   -1.5827   -8.1955    3.4109 C   0  0  0  0  0  0  0  0  0  0  0  0
   -0.5169   -7.1025    3.4220 C   0  0  0  0  0  0  0  0  0  0  0  0
    0.8220   -7.4424    4.1772 C   0  0  2  0  0  0  0  0  0  0  0  0
    1.8041   -6.1643    4.2200 C   0  0  2  0  0  0  0  0  0  0  0  0
    0.8874   -5.0597    4.8622 C   0  0  0  0  0  0  0  0  0  0  0  0
    2.1682   -5.6095    2.7973 C   0  0  2  0  0  0  0  0  0  0  0  0
    3.0661   -6.3716    2.0161 O   0  0  0  0  0  0  0  0  0  0  0  0
    3.1040   -6.1915    5.1483 C   0  0  2  0  0  0  0  0  0  0  0  0
    2.5631   -6.4470    6.4344 O   0  0  0  0  0  0  0  0  0  0  0  0
    4.1743    0.0673    4.9844 H   0  0  0  0  0  0  0  0  0  0  0  0
    4.8322   -0.1248    3.3718 H   0  0  0  0  0  0  0  0  0  0  0  0
    5.7402   -0.7104    4.7649 H   0  0  0  0  0  0  0  0  0  0  0  0
    5.8039   -2.8314    3.6844 H   0  0  0  0  0  0  0  0  0  0  0  0
    4.2473   -1.5009    1.7742 H   0  0  0  0  0  0  0  0  0  0  0  0
    5.2706   -2.8612    1.3861 H   0  0  0  0  0  0  0  0  0  0  0  0
    2.3370   -2.7054    1.4397 H   0  0  0  0  0  0  0  0  0  0  0  0
    4.2289   -4.8504    0.3558 H   0  0  0  0  0  0  0  0  0  0  0  0
    3.5807   -3.4725   -0.5275 H   0  0  0  0  0  0  0  0  0  0  0  0
    2.4956   -4.7378    0.0238 H   0  0  0  0  0  0  0  0  0  0  0  0
    2.1882   -3.5354    3.4202 H   0  0  0  0  0  0  0  0  0  0  0  0
    4.8073   -4.8892    3.0686 H   0  0  0  0  0  0  0  0  0  0  0  0
    3.1720   -3.2619    6.2226 H   0  0  0  0  0  0  0  0  0  0  0  0
    4.9266   -3.3293    6.2560 H   0  0  0  0  0  0  0  0  0  0  0  0
    3.9927   -4.4547    7.2048 H   0  0  0  0  0  0  0  0  0  0  0  0
    4.6415   -7.5212    5.9330 H   0  0  0  0  0  0  0  0  0  0  0  0
    6.0059   -8.1650    4.0909 H   0  0  0  0  0  0  0  0  0  0  0  0
    5.0745   -8.8635    2.1292 H   0  0  0  0  0  0  0  0  0  0  0  0
    3.4363   -7.9571    1.0251 H   0  0  0  0  0  0  0  0  0  0  0  0
    1.2296   -8.3664    1.5989 H   0  0  0  0  0  0  0  0  0  0  0  0
    2.2695   -9.6948    1.9410 H   0  0  0  0  0  0  0  0  0  0  0  0
    3.1778   -8.9700    4.9549 H   0  0  0  0  0  0  0  0  0  0  0  0
    3.2832  -11.1931    5.0432 H   0  0  0  0  0  0  0  0  0  0  0  0
    1.6336  -10.5064    6.3446 H   0  0  0  0  0  0  0  0  0  0  0  0
    0.5622  -10.8119    3.0987 H   0  0  0  0  0  0  0  0  0  0  0  0
   -0.1682  -10.2014    4.5447 H   0  0  0  0  0  0  0  0  0  0  0  0
   -0.7848   -9.2673    1.7177 H   0  0  0  0  0  0  0  0  0  0  0  0
   -1.7777  -10.2261    2.7769 H   0  0  0  0  0  0  0  0  0  0  0  0
   -2.4606   -7.8592    2.8595 H   0  0  0  0  0  0  0  0  0  0  0  0
   -1.9052   -8.4166    4.4285 H   0  0  0  0  0  0  0  0  0  0  0  0
   -0.3289   -6.8409    2.3832 H   0  0  0  0  0  0  0  0  0  0  0  0
   -1.0322   -6.2611    3.8705 H   0  0  0  0  0  0  0  0  0  0  0  0
    0.4872   -7.5981    5.2026 H   0  0  0  0  0  0  0  0  0  0  0  0
    1.4541   -4.2502    5.3128 H   0  0  0  0  0  0  0  0  0  0  0  0
    0.2624   -5.4417    5.6711 H   0  0  0  0  0  0  0  0  0  0  0  0
    0.2346   -4.5829    4.1309 H   0  0  0  0  0  0  0  0  0  0  0  0
    1.2684   -5.4956    2.1976 H   0  0  0  0  0  0  0  0  0  0  0  0
    2.3694   -7.3739    6.4679 H   0  0  0  0  0  0  0  0  0  0  0  0
  1  2  1  0
  1 32  1  0
  1 33  1  0
  1 34  1  0
  2  3  1  0
  3  8  1  0
  3  4  1  0
  3 35  1  6
  4  5  1  0
  4 36  1  0
  4 37  1  0
  5  6  1  0
  5  7  1  0
  5 38  1  6
  6 39  1  0
  6 40  1  0
  6 41  1  0
  7 28  1  0
  7  8  1  0
  7 42  1  1
  8  9  1  0
  8 43  1  6
  9 30  1  0
  9 10  1  1
  9 11  1  0
 10 44  1  0
 10 45  1  0
 10 46  1  0
 11 12  1  0
 12 30  1  0
 12 13  1  0
 12 47  1  1
 13 14  2  3
 13 48  1  0
 14 15  1  0
 14 49  1  0
 15 29  1  0
 15 16  1  0
 15 50  1  6
 16 17  1  0
 16 51  1  0
 16 52  1  0
 17 25  1  0
 17 18  1  1
 17 21  1  0
 18 19  1  0
 18 20  1  0
 18 53  1  0
 19 54  1  0
 20 55  1  0
 21 22  1  0
 21 56  1  0
 21 57  1  0
 22 23  1  0
 22 58  1  0
 22 59  1  0
 23 24  1  0
 23 60  1  0
 23 61  1  0
 24 25  1  0
 24 62  1  0
 24 63  1  0
 25 26  1  0
 25 64  1  1
 26 27  1  1
 26 28  1  0
 26 30  1  0
 27 65  1  0
 27 66  1  0
 27 67  1  0
 28 29  1  0
 28 68  1  6
 30 31  1  1
 31 69  1  0
M  END
>  <i_m_ct_stereo_status>  (166) 
1

>  <s_m_source_file>  (166) 
/var/tmp/pbs.5076255.sched01/tmpscvaj2_a/3886avry94.sdf

>  <i_m_source_file_index>  (166) 
35

>  <i_lp_mmshare_version>  (166) 
48012

>  <i_f3d_flags>  (166) 
0

>  <s_epik_input>  (166) 
W0NIM11PW0NAQEhdMVtDSDJdW0NAQEhdKFtDSDNdKVtDQEhdKFtDQEBIXTFbQ0BdMjNbQ0gzXSlbQ0BASF00W0NAQF01KFtDSDNdKVtDQEBIXTZbQ0BAXShbQ0hdKFtPSF0pW09IXSkoW0NIMl1bQ0gyXVtDSDJdW0NIMl02KVtDSDJdW0NAQEhdKE80KS9bQ0hdPVtDSF1cW0NAQEhdKE8yKVtDQEBdMzVbT0hd

>  <s_epik_cmdline>  (166) 
J2VwaWtfcHl0aG9uJywgJy1waHQnLCAnMi4wJywgJy1waCcsICc3LjAnLCAnLXRuJywgJzgnLCAnLW1hJywgJzIwMCcsICctaW1hZScsICc8aW5maWxlLm1hZT4nLCAnLW9tYWUnLCAnPG91dGZpbGUubWFlPic=

>  <r_lp_tautomer_probability>  (166) 
1

>  <r_epik_Ionization_Penalty>  (166) 
2.55327e-07

>  <r_epik_Ionization_Penalty_Charging>  (166) 
0

>  <r_epik_Ionization_Penalty_Neutral>  (166) 
2.55327e-07

>  <r_epik_State_Penalty>  (166) 
-0

>  <r_epik_Charging_Adjusted_Penalty>  (166) 
0

>  <i_epik_Tot_Q>  (166) 
0

>  <i_epik_Tot_abs_Q>  (166) 
0

>  <s_epik_Chemistry_Notes>  (166) 
This compound contains an acetal/aminal-like group ( X-CH(R)-Y where X, Y are N, S, or O) that may be acid/base labile, releasing an aldehyde.

>  <s_lp_Force_Field>  (166) 
OPLS3e

>  <r_lp_Energy>  (166) 
104.308

>  <b_lp_Chiralities_Consistent>  (166) 
1

>  <s_lp_Variant>  (166) 
60:0-1

>  <s_i_glide_gridfile>  (166) 
pfpi4k_grid

>  <i_i_glide_lignum>  (166) 
35

>  <i_i_glide_rotatable_bonds>  (166) 
5

>  <r_i_docking_score>  (166) 
-2.32666

>  <r_i_glide_ligand_efficiency>  (166) 
-0.0750536

>  <r_i_glide_ligand_efficiency_sa>  (166) 
-0.235772

>  <r_i_glide_ligand_efficiency_ln>  (166) 
-0.524733

>  <r_i_glide_gscore>  (166) 
-2.32666

>  <r_i_glide_lipo>  (166) 
-0.146811

>  <r_i_glide_hbond>  (166) 
0

>  <r_i_glide_metal>  (166) 
-0

>  <r_i_glide_rewards>  (166) 
-0.946143

>  <r_i_glide_evdw>  (166) 
-19.9303

>  <r_i_glide_ecoul>  (166) 
-2.15346

>  <r_i_glide_erotb>  (166) 
0.105465

>  <r_i_glide_esite>  (166) 
-0.0196357

>  <r_i_glide_emodel>  (166) 
-29.0807

>  <r_i_glide_energy>  (166) 
-22.0838

>  <r_i_glide_einternal>  (166) 
4.01745

>  <r_i_glide_intrahb_reward>  (166) 
-0.5

>  <i_i_glide_confnum>  (166) 
1

>  <i_i_glide_posenum>  (166) 
19

>  <r_i_glide_eff_state_penalty>  (166) 
0

>  <ligand_id>  (166) 
60

>  <original_smiles>  (166) 
COC1CC(C)C2C1C1(C)OC3C=CC4CC5(C(O)O)CCCCC5C(C)(C2O4)C31O

>  <smiles>  (166) 
[H]OC([H])(O[H])C12C([H])([H])C3([H])OC4([H])C5([H])C([H])(C([H])([H])[H])C([H])([H])C([H])(OC([H])([H])[H])C5([H])C5(C([H])([H])[H])OC([H])(C([H])=C3[H])C5(O[H])C4(C([H])([H])[H])C1([H])C([H])([H])C([H])([H])C([H])([H])C2([H])[H]

$$$$
60:0:2
     RDKit          3D

 69 74  0  0  1  0  0  0  0  0999 V2000
    4.8077   -0.5108    3.5725 C   0  0  0  0  0  0  0  0  0  0  0  0
    4.1041   -1.7461    3.5557 O   0  0  0  0  0  0  0  0  0  0  0  0
    4.7301   -2.7591    2.7756 C   0  0  2  0  0  0  0  0  0  0  0  0
    4.3275   -2.5559    1.2962 C   0  0  0  0  0  0  0  0  0  0  0  0
    3.0721   -3.4219    1.0268 C   0  0  1  0  0  0  0  0  0  0  0  0
    3.2220   -4.2699   -0.2482 C   0  0  0  0  0  0  0  0  0  0  0  0
    2.8252   -4.1716    2.3619 C   0  0  2  0  0  0  0  0  0  0  0  0
    4.1681   -4.1640    3.0721 C   0  0  2  0  0  0  0  0  0  0  0  0
    4.1181   -4.7450    4.5165 C   0  0  2  0  0  0  0  0  0  0  0  0
    4.1769   -3.6950    5.6405 C   0  0  0  0  0  0  0  0  0  0  0  0
    5.3395   -5.5144    4.6153 O   0  0  0  0  0  0  0  0  0  0  0  0
    4.6024   -6.7474    4.5794 C   0  0  2  0  0  0  0  0  0  0  0  0
    5.0909   -7.6527    3.4533 C   0  0  0  0  0  0  0  0  0  0  0  0
    4.4976   -8.1440    2.3578 C   0  0  0  0  0  0  0  0  0  0  0  0
    3.1750   -7.7817    1.7519 C   0  0  1  0  0  0  0  0  0  0  0  0
    1.9804   -8.6996    2.0794 C   0  0  0  0  0  0  0  0  0  0  0  0
    1.4264   -8.7789    3.5308 C   0  0  2  0  0  0  0  0  0  0  0  0
    2.4258   -9.3864    4.5749 C   0  0  0  0  0  0  0  0  0  0  0  0
    2.9786  -10.6237    4.1765 O   0  0  0  0  0  0  0  0  0  0  0  0
    1.9127   -9.4328    5.8922 O   0  0  0  0  0  0  0  0  0  0  0  0
    0.2671   -9.8400    3.5048 C   0  0  0  0  0  0  0  0  0  0  0  0
   -0.9978   -9.4401    2.7541 C   0  0  0  0  0  0  0  0  0  0  0  0
   -1.5277   -8.1582    3.3572 C   0  0  0  0  0  0  0  0  0  0  0  0
   -0.4744   -7.0602    3.2494 C   0  0  0  0  0  0  0  0  0  0  0  0
    0.9062   -7.3467    3.9466 C   0  0  2  0  0  0  0  0  0  0  0  0
    1.8775   -6.0566    3.8659 C   0  0  2  0  0  0  0  0  0  0  0  0
    0.9832   -4.9211    4.4917 C   0  0  0  0  0  0  0  0  0  0  0  0
    2.1620   -5.5825    2.3946 C   0  0  2  0  0  0  0  0  0  0  0  0
    3.0262   -6.3844    1.6131 O   0  0  0  0  0  0  0  0  0  0  0  0
    3.2223   -6.0227    4.7229 C   0  0  2  0  0  0  0  0  0  0  0  0
    2.7533   -6.2067    6.0495 O   0  0  0  0  0  0  0  0  0  0  0  0
    4.2641    0.2013    4.1913 H   0  0  0  0  0  0  0  0  0  0  0  0
    4.9049   -0.0730    2.5804 H   0  0  0  0  0  0  0  0  0  0  0  0
    5.8057   -0.6266    3.9951 H   0  0  0  0  0  0  0  0  0  0  0  0
    5.8118   -2.7422    2.9155 H   0  0  0  0  0  0  0  0  0  0  0  0
    4.1367   -1.5094    1.0522 H   0  0  0  0  0  0  0  0  0  0  0  0
    5.1498   -2.8776    0.6555 H   0  0  0  0  0  0  0  0  0  0  0  0
    2.2272   -2.7520    0.8633 H   0  0  0  0  0  0  0  0  0  0  0  0
    4.0731   -4.9510   -0.1914 H   0  0  0  0  0  0  0  0  0  0  0  0
    3.3697   -3.6323   -1.1210 H   0  0  0  0  0  0  0  0  0  0  0  0
    2.3260   -4.8625   -0.4314 H   0  0  0  0  0  0  0  0  0  0  0  0
    2.1878   -3.4715    2.8932 H   0  0  0  0  0  0  0  0  0  0  0  0
    4.7986   -4.8316    2.4827 H   0  0  0  0  0  0  0  0  0  0  0  0
    3.3153   -3.0277    5.6219 H   0  0  0  0  0  0  0  0  0  0  0  0
    5.0695   -3.0788    5.5663 H   0  0  0  0  0  0  0  0  0  0  0  0
    4.1997   -4.1528    6.6280 H   0  0  0  0  0  0  0  0  0  0  0  0
    4.8177   -7.2952    5.4963 H   0  0  0  0  0  0  0  0  0  0  0  0
    6.0845   -8.0373    3.6296 H   0  0  0  0  0  0  0  0  0  0  0  0
    5.0590   -8.8541    1.7665 H   0  0  0  0  0  0  0  0  0  0  0  0
    3.3981   -8.0223    0.7119 H   0  0  0  0  0  0  0  0  0  0  0  0
    1.1857   -8.4031    1.3978 H   0  0  0  0  0  0  0  0  0  0  0  0
    2.2513   -9.7067    1.7564 H   0  0  0  0  0  0  0  0  0  0  0  0
    3.2716   -8.7487    4.6988 H   0  0  0  0  0  0  0  0  0  0  0  0
    2.2886  -11.2562    4.0424 H   0  0  0  0  0  0  0  0  0  0  0  0
    1.3367  -10.1820    5.9785 H   0  0  0  0  0  0  0  0  0  0  0  0
    0.6195  -10.7775    3.0731 H   0  0  0  0  0  0  0  0  0  0  0  0
   -0.0511  -10.0901    4.5183 H   0  0  0  0  0  0  0  0  0  0  0  0
   -0.8202   -9.3256    1.6850 H   0  0  0  0  0  0  0  0  0  0  0  0
   -1.7452  -10.2242    2.8549 H   0  0  0  0  0  0  0  0  0  0  0  0
   -2.4365   -7.8566    2.8357 H   0  0  0  0  0  0  0  0  0  0  0  0
   -1.7950   -8.3211    4.4033 H   0  0  0  0  0  0  0  0  0  0  0  0
   -0.3452   -6.8508    2.1907 H   0  0  0  0  0  0  0  0  0  0  0  0
   -0.9718   -6.2050    3.6864 H   0  0  0  0  0  0  0  0  0  0  0  0
    0.6365   -7.4489    4.9971 H   0  0  0  0  0  0  0  0  0  0  0  0
    1.5623   -4.0797    4.8631 H   0  0  0  0  0  0  0  0  0  0  0  0
    0.4059   -5.2575    5.3547 H   0  0  0  0  0  0  0  0  0  0  0  0
    0.2879   -4.4924    3.7722 H   0  0  0  0  0  0  0  0  0  0  0  0
    1.2328   -5.5126    1.8378 H   0  0  0  0  0  0  0  0  0  0  0  0
    2.5765   -7.1334    6.1503 H   0  0  0  0  0  0  0  0  0  0  0  0
  1  2  1  0
  1 32  1  0
  1 33  1  0
  1 34  1  0
  2  3  1  0
  3  8  1  0
  3  4  1  0
  3 35  1  6
  4  5  1  0
  4 36  1  0
  4 37  1  0
  5  6  1  0
  5  7  1  0
  5 38  1  6
  6 39  1  0
  6 40  1  0
  6 41  1  0
  7 28  1  0
  7  8  1  0
  7 42  1  1
  8  9  1  0
  8 43  1  6
  9 30  1  0
  9 10  1  1
  9 11  1  0
 10 44  1  0
 10 45  1  0
 10 46  1  0
 11 12  1  0
 12 30  1  0
 12 13  1  0
 12 47  1  1
 13 14  2  3
 13 48  1  0
 14 15  1  0
 14 49  1  0
 15 29  1  0
 15 16  1  0
 15 50  1  6
 16 17  1  0
 16 51  1  0
 16 52  1  0
 17 25  1  0
 17 18  1  1
 17 21  1  0
 18 19  1  0
 18 20  1  0
 18 53  1  0
 19 54  1  0
 20 55  1  0
 21 22  1  0
 21 56  1  0
 21 57  1  0
 22 23  1  0
 22 58  1  0
 22 59  1  0
 23 24  1  0
 23 60  1  0
 23 61  1  0
 24 25  1  0
 24 62  1  0
 24 63  1  0
 25 26  1  0
 25 64  1  1
 26 27  1  1
 26 28  1  0
 26 30  1  0
 27 65  1  0
 27 66  1  0
 27 67  1  0
 28 29  1  0
 28 68  1  6
 30 31  1  1
 31 69  1  0
M  END
>  <i_m_ct_stereo_status>  (167) 
1

>  <s_m_source_file>  (167) 
/var/tmp/pbs.5076255.sched01/tmpscvaj2_a/3886avry94.sdf

>  <i_m_source_file_index>  (167) 
35

>  <i_lp_mmshare_version>  (167) 
48012

>  <i_f3d_flags>  (167) 
0

>  <s_epik_input>  (167) 
W0NIM11PW0NAQEhdMVtDSDJdW0NAQEhdKFtDSDNdKVtDQEhdKFtDQEBIXTFbQ0BdMjNbQ0gzXSlbQ0BASF00W0NAQF01KFtDSDNdKVtDQEBIXTZbQ0BAXShbQ0hdKFtPSF0pW09IXSkoW0NIMl1bQ0gyXVtDSDJdW0NIMl02KVtDSDJdW0NAQEhdKE80KS9bQ0hdPVtDSF1cW0NAQEhdKE8yKVtDQEBdMzVbT0hd

>  <s_epik_cmdline>  (167) 
J2VwaWtfcHl0aG9uJywgJy1waHQnLCAnMi4wJywgJy1waCcsICc3LjAnLCAnLXRuJywgJzgnLCAnLW1hJywgJzIwMCcsICctaW1hZScsICc8aW5maWxlLm1hZT4nLCAnLW9tYWUnLCAnPG91dGZpbGUubWFlPic=

>  <r_lp_tautomer_probability>  (167) 
1

>  <r_epik_Ionization_Penalty>  (167) 
2.55327e-07

>  <r_epik_Ionization_Penalty_Charging>  (167) 
0

>  <r_epik_Ionization_Penalty_Neutral>  (167) 
2.55327e-07

>  <r_epik_State_Penalty>  (167) 
-0

>  <r_epik_Charging_Adjusted_Penalty>  (167) 
0

>  <i_epik_Tot_Q>  (167) 
0

>  <i_epik_Tot_abs_Q>  (167) 
0

>  <s_epik_Chemistry_Notes>  (167) 
This compound contains an acetal/aminal-like group ( X-CH(R)-Y where X, Y are N, S, or O) that may be acid/base labile, releasing an aldehyde.

>  <s_lp_Force_Field>  (167) 
OPLS3e

>  <r_lp_Energy>  (167) 
104.308

>  <b_lp_Chiralities_Consistent>  (167) 
1

>  <s_lp_Variant>  (167) 
60:0-1

>  <s_i_glide_gridfile>  (167) 
pfpi4k_grid

>  <i_i_glide_lignum>  (167) 
35

>  <i_i_glide_rotatable_bonds>  (167) 
5

>  <r_i_docking_score>  (167) 
-1.84176

>  <r_i_glide_ligand_efficiency>  (167) 
-0.0594116

>  <r_i_glide_ligand_efficiency_sa>  (167) 
-0.186635

>  <r_i_glide_ligand_efficiency_ln>  (167) 
-0.415374

>  <r_i_glide_gscore>  (167) 
-1.84176

>  <r_i_glide_lipo>  (167) 
-0.198419

>  <r_i_glide_hbond>  (167) 
0

>  <r_i_glide_metal>  (167) 
-0

>  <r_i_glide_rewards>  (167) 
-0.446143

>  <r_i_glide_evdw>  (167) 
-21.1114

>  <r_i_glide_ecoul>  (167) 
-1.56155

>  <r_i_glide_erotb>  (167) 
0.105465

>  <r_i_glide_esite>  (167) 
-0.0128602

>  <r_i_glide_emodel>  (167) 
-25.299

>  <r_i_glide_energy>  (167) 
-22.673

>  <r_i_glide_einternal>  (167) 
1.17414

>  <r_i_glide_intrahb_reward>  (167) 
-0

>  <i_i_glide_confnum>  (167) 
2

>  <i_i_glide_posenum>  (167) 
14

>  <r_i_glide_eff_state_penalty>  (167) 
0

>  <ligand_id>  (167) 
60

>  <original_smiles>  (167) 
COC1CC(C)C2C1C1(C)OC3C=CC4CC5(C(O)O)CCCCC5C(C)(C2O4)C31O

>  <smiles>  (167) 
[H]OC([H])(O[H])C12C([H])([H])C3([H])OC4([H])C5([H])C([H])(C([H])([H])[H])C([H])([H])C([H])(OC([H])([H])[H])C5([H])C5(C([H])([H])[H])OC([H])(C([H])=C3[H])C5(O[H])C4(C([H])([H])[H])C1([H])C([H])([H])C([H])([H])C([H])([H])C2([H])[H]

$$$$
60:1:0
     RDKit          3D

 69 74  0  0  1  0  0  0  0  0999 V2000
    3.1045  -11.3623    3.1384 C   0  0  0  0  0  0  0  0  0  0  0  0
    3.3498   -9.9883    2.8594 O   0  0  0  0  0  0  0  0  0  0  0  0
    2.5277   -9.0960    3.6003 C   0  0  2  0  0  0  0  0  0  0  0  0
    1.1700   -8.9661    2.8687 C   0  0  0  0  0  0  0  0  0  0  0  0
    1.2629   -7.7496    1.9159 C   0  0  1  0  0  0  0  0  0  0  0  0
    0.0494   -6.8201    2.0642 C   0  0  0  0  0  0  0  0  0  0  0  0
    2.6730   -7.1545    2.1758 C   0  0  2  0  0  0  0  0  0  0  0  0
    3.0608   -7.6496    3.5638 C   0  0  2  0  0  0  0  0  0  0  0  0
    4.5189   -7.2858    4.0042 C   0  0  2  0  0  0  0  0  0  0  0  0
    5.4851   -8.4828    3.9998 C   0  0  0  0  0  0  0  0  0  0  0  0
    4.4379   -6.8137    5.3791 O   0  0  0  0  0  0  0  0  0  0  0  0
    4.6206   -5.4347    4.9612 C   0  0  2  0  0  0  0  0  0  0  0  0
    3.3143   -4.6805    5.0322 C   0  0  0  0  0  0  0  0  0  0  0  0
    3.1383   -3.5498    4.3445 C   0  0  0  0  0  0  0  0  0  0  0  0
    2.1980   -3.6074    3.1627 C   0  0  1  0  0  0  0  0  0  0  0  0
    2.5577   -2.7447    1.9403 C   0  0  0  0  0  0  0  0  0  0  0  0
    4.0151   -2.7173    1.3518 C   0  0  2  0  0  0  0  0  0  0  0  0
    4.5580   -1.2489    1.5902 C   0  0  0  0  0  0  0  0  0  0  0  0
    4.7081   -0.9269    2.9546 O   0  0  0  0  0  0  0  0  0  0  0  0
    3.8117   -0.2655    0.8968 O   0  0  0  0  0  0  0  0  0  0  0  0
    3.9321   -2.9508   -0.1880 C   0  0  0  0  0  0  0  0  0  0  0  0
    5.2717   -2.7448   -0.9161 C   0  0  0  0  0  0  0  0  0  0  0  0
    6.4046   -3.5810   -0.3102 C   0  0  0  0  0  0  0  0  0  0  0  0
    6.4225   -3.6013    1.2356 C   0  0  0  0  0  0  0  0  0  0  0  0
    5.0250   -3.8105    1.9156 C   0  0  2  0  0  0  0  0  0  0  0  0
    4.5586   -5.3418    2.1404 C   0  0  2  0  0  0  0  0  0  0  0  0
    5.2250   -6.2258    1.0247 C   0  0  0  0  0  0  0  0  0  0  0  0
    2.9971   -5.6388    1.9502 C   0  0  2  0  0  0  0  0  0  0  0  0
    2.0273   -4.9569    2.7548 O   0  0  0  0  0  0  0  0  0  0  0  0
    5.0698   -5.9032    3.5443 C   0  0  2  0  0  0  0  0  0  0  0  0
    6.4823   -5.8541    3.4705 O   0  0  0  0  0  0  0  0  0  0  0  0
    3.7686  -11.9744    2.5307 H   0  0  0  0  0  0  0  0  0  0  0  0
    2.0831  -11.6614    2.9052 H   0  0  0  0  0  0  0  0  0  0  0  0
    3.2986  -11.5973    4.1853 H   0  0  0  0  0  0  0  0  0  0  0  0
    2.4098   -9.4383    4.6301 H   0  0  0  0  0  0  0  0  0  0  0  0
    0.9017   -9.8689    2.3176 H   0  0  0  0  0  0  0  0  0  0  0  0
    0.3792   -8.8116    3.6048 H   0  0  0  0  0  0  0  0  0  0  0  0
    1.2481   -8.1200    0.8902 H   0  0  0  0  0  0  0  0  0  0  0  0
   -0.0299   -6.4170    3.0747 H   0  0  0  0  0  0  0  0  0  0  0  0
   -0.8737   -7.3575    1.8418 H   0  0  0  0  0  0  0  0  0  0  0  0
    0.1254   -5.9955    1.3603 H   0  0  0  0  0  0  0  0  0  0  0  0
    3.2528   -7.7369    1.4703 H   0  0  0  0  0  0  0  0  0  0  0  0
    2.3755   -7.1482    4.2355 H   0  0  0  0  0  0  0  0  0  0  0  0
    5.6509   -8.8562    2.9878 H   0  0  0  0  0  0  0  0  0  0  0  0
    5.1097   -9.3063    4.6034 H   0  0  0  0  0  0  0  0  0  0  0  0
    6.4597   -8.2253    4.4106 H   0  0  0  0  0  0  0  0  0  0  0  0
    5.4206   -4.9429    5.5142 H   0  0  0  0  0  0  0  0  0  0  0  0
    2.4739   -5.3443    5.0888 H   0  0  0  0  0  0  0  0  0  0  0  0
    3.9624   -2.8776    4.2318 H   0  0  0  0  0  0  0  0  0  0  0  0
    1.2220   -3.2902    3.5301 H   0  0  0  0  0  0  0  0  0  0  0  0
    1.8634   -3.0320    1.1498 H   0  0  0  0  0  0  0  0  0  0  0  0
    2.2357   -1.7329    2.1878 H   0  0  0  0  0  0  0  0  0  0  0  0
    5.5565   -1.1173    1.1861 H   0  0  0  0  0  0  0  0  0  0  0  0
    3.8719   -1.0050    3.3824 H   0  0  0  0  0  0  0  0  0  0  0  0
    2.8904   -0.4757    0.9316 H   0  0  0  0  0  0  0  0  0  0  0  0
    3.5941   -3.9626   -0.3989 H   0  0  0  0  0  0  0  0  0  0  0  0
    3.1786   -2.3000   -0.6370 H   0  0  0  0  0  0  0  0  0  0  0  0
    5.1529   -3.0188   -1.9645 H   0  0  0  0  0  0  0  0  0  0  0  0
    5.5442   -1.6914   -0.9179 H   0  0  0  0  0  0  0  0  0  0  0  0
    6.3168   -4.5882   -0.7035 H   0  0  0  0  0  0  0  0  0  0  0  0
    7.3644   -3.2136   -0.6758 H   0  0  0  0  0  0  0  0  0  0  0  0
    7.1612   -4.3174    1.5858 H   0  0  0  0  0  0  0  0  0  0  0  0
    6.8633   -2.6711    1.5907 H   0  0  0  0  0  0  0  0  0  0  0  0
    5.2918   -3.4906    2.9135 H   0  0  0  0  0  0  0  0  0  0  0  0
    5.1898   -7.2909    1.2412 H   0  0  0  0  0  0  0  0  0  0  0  0
    6.2943   -6.0870    0.8914 H   0  0  0  0  0  0  0  0  0  0  0  0
    4.7507   -6.0720    0.0535 H   0  0  0  0  0  0  0  0  0  0  0  0
    2.7213   -5.4033    0.9251 H   0  0  0  0  0  0  0  0  0  0  0  0
    6.7524   -6.5422    2.8789 H   0  0  0  0  0  0  0  0  0  0  0  0
  1  2  1  0
  1 32  1  0
  1 33  1  0
  1 34  1  0
  2  3  1  0
  3  8  1  0
  3  4  1  0
  3 35  1  1
  4  5  1  0
  4 36  1  0
  4 37  1  0
  5  6  1  0
  5  7  1  0
  5 38  1  6
  6 39  1  0
  6 40  1  0
  6 41  1  0
  7 28  1  0
  7  8  1  0
  7 42  1  6
  8  9  1  0
  8 43  1  1
  9 30  1  0
  9 10  1  1
  9 11  1  0
 10 44  1  0
 10 45  1  0
 10 46  1  0
 11 12  1  0
 12 30  1  0
 12 13  1  0
 12 47  1  1
 13 14  2  3
 13 48  1  0
 14 15  1  0
 14 49  1  0
 15 29  1  0
 15 16  1  0
 15 50  1  1
 16 17  1  0
 16 51  1  0
 16 52  1  0
 17 25  1  0
 17 18  1  6
 17 21  1  0
 18 19  1  0
 18 20  1  0
 18 53  1  0
 19 54  1  0
 20 55  1  0
 21 22  1  0
 21 56  1  0
 21 57  1  0
 22 23  1  0
 22 58  1  0
 22 59  1  0
 23 24  1  0
 23 60  1  0
 23 61  1  0
 24 25  1  0
 24 62  1  0
 24 63  1  0
 25 26  1  0
 25 64  1  1
 26 27  1  6
 26 28  1  0
 26 30  1  0
 27 65  1  0
 27 66  1  0
 27 67  1  0
 28 29  1  0
 28 68  1  6
 30 31  1  1
 31 69  1  0
M  END
>  <i_m_ct_stereo_status>  (168) 
1

>  <s_m_source_file>  (168) 
/var/tmp/pbs.5076255.sched01/tmpscvaj2_a/3886avry94.sdf

>  <i_m_source_file_index>  (168) 
36

>  <i_lp_mmshare_version>  (168) 
48012

>  <i_f3d_flags>  (168) 
0

>  <s_epik_input>  (168) 
W0NIM11PW0NAQEhdMVtDSDJdW0NAQEhdKFtDSDNdKVtDQEhdKFtDQEBIXTFbQ0BdMjNbQ0gzXSlbQ0BASF00W0NAQF01KFtDSDNdKVtDQEBIXTZbQ0BAXShbQ0hdKFtPSF0pW09IXSkoW0NIMl1bQ0gyXVtDSDJdW0NIMl02KVtDSDJdW0NAQEhdKE80KS9bQ0hdPVtDSF1cW0NAQEhdKE8yKVtDQEBdMzVbT0hd

>  <s_epik_cmdline>  (168) 
J2VwaWtfcHl0aG9uJywgJy1waHQnLCAnMi4wJywgJy1waCcsICc3LjAnLCAnLXRuJywgJzgnLCAnLW1hJywgJzIwMCcsICctaW1hZScsICc8aW5maWxlLm1hZT4nLCAnLW9tYWUnLCAnPG91dGZpbGUubWFlPic=

>  <r_lp_tautomer_probability>  (168) 
1

>  <r_epik_Ionization_Penalty>  (168) 
2.55327e-07

>  <r_epik_Ionization_Penalty_Charging>  (168) 
0

>  <r_epik_Ionization_Penalty_Neutral>  (168) 
2.55327e-07

>  <r_epik_State_Penalty>  (168) 
-0

>  <r_epik_Charging_Adjusted_Penalty>  (168) 
0

>  <i_epik_Tot_Q>  (168) 
0

>  <i_epik_Tot_abs_Q>  (168) 
0

>  <s_epik_Chemistry_Notes>  (168) 
This compound contains an acetal/aminal-like group ( X-CH(R)-Y where X, Y are N, S, or O) that may be acid/base labile, releasing an aldehyde.

>  <s_lp_Force_Field>  (168) 
OPLS3e

>  <r_lp_Energy>  (168) 
125.838

>  <b_lp_Chiralities_Consistent>  (168) 
1

>  <s_lp_Variant>  (168) 
60:0-2

>  <s_i_glide_gridfile>  (168) 
pfpi4k_grid

>  <i_i_glide_lignum>  (168) 
36

>  <i_i_glide_rotatable_bonds>  (168) 
5

>  <r_i_docking_score>  (168) 
-2.04241

>  <r_i_glide_ligand_efficiency>  (168) 
-0.0658843

>  <r_i_glide_ligand_efficiency_sa>  (168) 
-0.206968

>  <r_i_glide_ligand_efficiency_ln>  (168) 
-0.460627

>  <r_i_glide_gscore>  (168) 
-2.04241

>  <r_i_glide_lipo>  (168) 
-0.31619

>  <r_i_glide_hbond>  (168) 
0

>  <r_i_glide_metal>  (168) 
-0

>  <r_i_glide_rewards>  (168) 
-0.503145

>  <r_i_glide_evdw>  (168) 
-21.0517

>  <r_i_glide_ecoul>  (168) 
-1.83973

>  <r_i_glide_erotb>  (168) 
0.105465

>  <r_i_glide_esite>  (168) 
0

>  <r_i_glide_emodel>  (168) 
-25.5142

>  <r_i_glide_energy>  (168) 
-22.8914

>  <r_i_glide_einternal>  (168) 
0.689961

>  <r_i_glide_intrahb_reward>  (168) 
-0

>  <i_i_glide_confnum>  (168) 
1

>  <i_i_glide_posenum>  (168) 
6

>  <r_i_glide_eff_state_penalty>  (168) 
0

>  <ligand_id>  (168) 
60

>  <original_smiles>  (168) 
COC1CC(C)C2C1C1(C)OC3C=CC4CC5(C(O)O)CCCCC5C(C)(C2O4)C31O

>  <smiles>  (168) 
[H]OC([H])(O[H])C12C([H])([H])C3([H])OC4([H])C5([H])C([H])(C([H])([H])[H])C([H])([H])C([H])(OC([H])([H])[H])C5([H])C5(C([H])([H])[H])OC([H])(C([H])=C3[H])C5(O[H])C4(C([H])([H])[H])C1([H])C([H])([H])C([H])([H])C([H])([H])C2([H])[H]

$$$$
60:1:1
     RDKit          3D

 69 74  0  0  1  0  0  0  0  0999 V2000
   -2.9245    3.0326    8.6284 C   0  0  0  0  0  0  0  0  0  0  0  0
   -2.4337    2.3847    7.4539 O   0  0  0  0  0  0  0  0  0  0  0  0
   -1.7193    3.2511    6.5764 C   0  0  2  0  0  0  0  0  0  0  0  0
   -2.5772    3.4402    5.2996 C   0  0  0  0  0  0  0  0  0  0  0  0
   -2.1182    2.4008    4.2476 C   0  0  1  0  0  0  0  0  0  0  0  0
   -1.8545    3.0339    2.8690 C   0  0  0  0  0  0  0  0  0  0  0  0
   -0.9571    1.6423    4.9419 C   0  0  2  0  0  0  0  0  0  0  0  0
   -0.4444    2.6032    6.0109 C   0  0  2  0  0  0  0  0  0  0  0  0
    0.6756    2.0196    6.9408 C   0  0  2  0  0  0  0  0  0  0  0  0
    0.2023    1.6976    8.3586 C   0  0  0  0  0  0  0  0  0  0  0  0
    1.6954    3.0269    7.0677 O   0  0  0  0  0  0  0  0  0  0  0  0
    2.5846    2.3310    6.1907 C   0  0  2  0  0  0  0  0  0  0  0  0
    2.6112    2.9928    4.8213 C   0  0  0  0  0  0  0  0  0  0  0  0
    3.0157    2.3168    3.7527 C   0  0  0  0  0  0  0  0  0  0  0  0
    1.9808    1.9586    2.7144 C   0  0  1  0  0  0  0  0  0  0  0  0
    2.1595    0.6041    1.9985 C   0  0  0  0  0  0  0  0  0  0  0  0
    2.4909   -0.7148    2.7916 C   0  0  2  0  0  0  0  0  0  0  0  0
    3.9382   -1.1592    2.3170 C   0  0  0  0  0  0  0  0  0  0  0  0
    4.9309   -0.2326    2.7008 O   0  0  0  0  0  0  0  0  0  0  0  0
    3.9989   -1.4485    0.9333 O   0  0  0  0  0  0  0  0  0  0  0  0
    1.5032   -1.8286    2.3511 C   0  0  0  0  0  0  0  0  0  0  0  0
    1.8377   -3.2216    2.8974 C   0  0  0  0  0  0  0  0  0  0  0  0
    1.9975   -3.2367    4.4203 C   0  0  0  0  0  0  0  0  0  0  0  0
    2.7877   -2.0290    4.9726 C   0  0  0  0  0  0  0  0  0  0  0  0
    2.3978   -0.6393    4.3732 C   0  0  2  0  0  0  0  0  0  0  0  0
    1.1772    0.1401    5.0913 C   0  0  2  0  0  0  0  0  0  0  0  0
    0.2205   -0.9397    5.7230 C   0  0  0  0  0  0  0  0  0  0  0  0
    0.1922    0.9545    4.1276 C   0  0  2  0  0  0  0  0  0  0  0  0
    0.6991    2.0161    3.3125 O   0  0  0  0  0  0  0  0  0  0  0  0
    1.6852    1.0573    6.2736 C   0  0  2  0  0  0  0  0  0  0  0  0
    2.2699    0.1529    7.2101 O   0  0  0  0  0  0  0  0  0  0  0  0
   -3.4305    2.2953    9.2510 H   0  0  0  0  0  0  0  0  0  0  0  0
   -3.6166    3.8346    8.4008 H   0  0  0  0  0  0  0  0  0  0  0  0
   -2.1217    3.4491    9.2329 H   0  0  0  0  0  0  0  0  0  0  0  0
   -1.4983    4.2089    7.0366 H   0  0  0  0  0  0  0  0  0  0  0  0
   -3.6420    3.3434    5.5260 H   0  0  0  0  0  0  0  0  0  0  0  0
   -2.4105    4.4339    4.8918 H   0  0  0  0  0  0  0  0  0  0  0  0
   -2.9359    1.7057    4.0831 H   0  0  0  0  0  0  0  0  0  0  0  0
   -1.0615    3.7857    2.8938 H   0  0  0  0  0  0  0  0  0  0  0  0
   -2.7576    3.5060    2.4866 H   0  0  0  0  0  0  0  0  0  0  0  0
   -1.5683    2.2643    2.1456 H   0  0  0  0  0  0  0  0  0  0  0  0
   -1.5202    0.8761    5.4563 H   0  0  0  0  0  0  0  0  0  0  0  0
   -0.0180    3.4270    5.4496 H   0  0  0  0  0  0  0  0  0  0  0  0
   -0.5584    0.9139    8.3649 H   0  0  0  0  0  0  0  0  0  0  0  0
   -0.1761    2.5777    8.8499 H   0  0  0  0  0  0  0  0  0  0  0  0
    1.0158    1.3494    9.0001 H   0  0  0  0  0  0  0  0  0  0  0  0
    3.5740    2.1912    6.6041 H   0  0  0  0  0  0  0  0  0  0  0  0
    1.7959    3.6721    4.6817 H   0  0  0  0  0  0  0  0  0  0  0  0
    3.8083    1.6114    3.8614 H   0  0  0  0  0  0  0  0  0  0  0  0
    2.0023    2.7508    1.9749 H   0  0  0  0  0  0  0  0  0  0  0  0
    1.2467    0.4544    1.4101 H   0  0  0  0  0  0  0  0  0  0  0  0
    2.9134    0.7803    1.2305 H   0  0  0  0  0  0  0  0  0  0  0  0
    4.2582   -2.0937    2.7831 H   0  0  0  0  0  0  0  0  0  0  0  0
    4.5992    0.6294    2.5413 H   0  0  0  0  0  0  0  0  0  0  0  0
    3.3586   -0.9414    0.4798 H   0  0  0  0  0  0  0  0  0  0  0  0
    0.4962   -1.5681    2.6890 H   0  0  0  0  0  0  0  0  0  0  0  0
    1.4339   -1.8638    1.2719 H   0  0  0  0  0  0  0  0  0  0  0  0
    1.0515   -3.9249    2.6251 H   0  0  0  0  0  0  0  0  0  0  0  0
    2.7401   -3.6066    2.4174 H   0  0  0  0  0  0  0  0  0  0  0  0
    1.0133   -3.2972    4.8640 H   0  0  0  0  0  0  0  0  0  0  0  0
    2.4980   -4.1611    4.7137 H   0  0  0  0  0  0  0  0  0  0  0  0
    2.7427   -2.0345    6.0615 H   0  0  0  0  0  0  0  0  0  0  0  0
    3.8499   -2.2082    4.8177 H   0  0  0  0  0  0  0  0  0  0  0  0
    3.2631   -0.0808    4.7054 H   0  0  0  0  0  0  0  0  0  0  0  0
   -0.4741   -0.5184    6.4456 H   0  0  0  0  0  0  0  0  0  0  0  0
    0.7043   -1.6915    6.3310 H   0  0  0  0  0  0  0  0  0  0  0  0
   -0.3641   -1.4553    4.9544 H   0  0  0  0  0  0  0  0  0  0  0  0
   -0.2763    0.2681    3.4292 H   0  0  0  0  0  0  0  0  0  0  0  0
    2.5802    0.6839    7.9218 H   0  0  0  0  0  0  0  0  0  0  0  0
  1  2  1  0
  1 32  1  0
  1 33  1  0
  1 34  1  0
  2  3  1  0
  3  8  1  0
  3  4  1  0
  3 35  1  1
  4  5  1  0
  4 36  1  0
  4 37  1  0
  5  6  1  0
  5  7  1  0
  5 38  1  6
  6 39  1  0
  6 40  1  0
  6 41  1  0
  7 28  1  0
  7  8  1  0
  7 42  1  1
  8  9  1  0
  8 43  1  6
  9 30  1  0
  9 10  1  1
  9 11  1  0
 10 44  1  0
 10 45  1  0
 10 46  1  0
 11 12  1  0
 12 30  1  0
 12 13  1  0
 12 47  1  1
 13 14  2  3
 13 48  1  0
 14 15  1  0
 14 49  1  0
 15 29  1  0
 15 16  1  0
 15 50  1  6
 16 17  1  0
 16 51  1  0
 16 52  1  0
 17 25  1  0
 17 18  1  1
 17 21  1  0
 18 19  1  0
 18 20  1  0
 18 53  1  0
 19 54  1  0
 20 55  1  0
 21 22  1  0
 21 56  1  0
 21 57  1  0
 22 23  1  0
 22 58  1  0
 22 59  1  0
 23 24  1  0
 23 60  1  0
 23 61  1  0
 24 25  1  0
 24 62  1  0
 24 63  1  0
 25 26  1  0
 25 64  1  1
 26 27  1  1
 26 28  1  0
 26 30  1  0
 27 65  1  0
 27 66  1  0
 27 67  1  0
 28 29  1  0
 28 68  1  6
 30 31  1  1
 31 69  1  0
M  END
>  <i_m_ct_stereo_status>  (169) 
1

>  <s_m_source_file>  (169) 
/var/tmp/pbs.5076255.sched01/tmpscvaj2_a/3886avry94.sdf

>  <i_m_source_file_index>  (169) 
36

>  <i_lp_mmshare_version>  (169) 
48012

>  <i_f3d_flags>  (169) 
0

>  <s_epik_input>  (169) 
W0NIM11PW0NAQEhdMVtDSDJdW0NAQEhdKFtDSDNdKVtDQEhdKFtDQEBIXTFbQ0BdMjNbQ0gzXSlbQ0BASF00W0NAQF01KFtDSDNdKVtDQEBIXTZbQ0BAXShbQ0hdKFtPSF0pW09IXSkoW0NIMl1bQ0gyXVtDSDJdW0NIMl02KVtDSDJdW0NAQEhdKE80KS9bQ0hdPVtDSF1cW0NAQEhdKE8yKVtDQEBdMzVbT0hd

>  <s_epik_cmdline>  (169) 
J2VwaWtfcHl0aG9uJywgJy1waHQnLCAnMi4wJywgJy1waCcsICc3LjAnLCAnLXRuJywgJzgnLCAnLW1hJywgJzIwMCcsICctaW1hZScsICc8aW5maWxlLm1hZT4nLCAnLW9tYWUnLCAnPG91dGZpbGUubWFlPic=

>  <r_lp_tautomer_probability>  (169) 
1

>  <r_epik_Ionization_Penalty>  (169) 
2.55327e-07

>  <r_epik_Ionization_Penalty_Charging>  (169) 
0

>  <r_epik_Ionization_Penalty_Neutral>  (169) 
2.55327e-07

>  <r_epik_State_Penalty>  (169) 
-0

>  <r_epik_Charging_Adjusted_Penalty>  (169) 
0

>  <i_epik_Tot_Q>  (169) 
0

>  <i_epik_Tot_abs_Q>  (169) 
0

>  <s_epik_Chemistry_Notes>  (169) 
This compound contains an acetal/aminal-like group ( X-CH(R)-Y where X, Y are N, S, or O) that may be acid/base labile, releasing an aldehyde.

>  <s_lp_Force_Field>  (169) 
OPLS3e

>  <r_lp_Energy>  (169) 
125.838

>  <b_lp_Chiralities_Consistent>  (169) 
1

>  <s_lp_Variant>  (169) 
60:0-2

>  <s_i_glide_gridfile>  (169) 
pfpi4k_grid

>  <i_i_glide_lignum>  (169) 
36

>  <i_i_glide_rotatable_bonds>  (169) 
5

>  <r_i_docking_score>  (169) 
-1.80238

>  <r_i_glide_ligand_efficiency>  (169) 
-0.0581413

>  <r_i_glide_ligand_efficiency_sa>  (169) 
-0.182644

>  <r_i_glide_ligand_efficiency_ln>  (169) 
-0.406492

>  <r_i_glide_gscore>  (169) 
-1.80238

>  <r_i_glide_lipo>  (169) 
-0.106394

>  <r_i_glide_hbond>  (169) 
0

>  <r_i_glide_metal>  (169) 
-0

>  <r_i_glide_rewards>  (169) 
-0.455771

>  <r_i_glide_evdw>  (169) 
-21.259

>  <r_i_glide_ecoul>  (169) 
-1.88486

>  <r_i_glide_erotb>  (169) 
0.105465

>  <r_i_glide_esite>  (169) 
0

>  <r_i_glide_emodel>  (169) 
-24.1319

>  <r_i_glide_energy>  (169) 
-23.1439

>  <r_i_glide_einternal>  (169) 
1.82555

>  <r_i_glide_intrahb_reward>  (169) 
-0

>  <i_i_glide_confnum>  (169) 
2

>  <i_i_glide_posenum>  (169) 
36

>  <r_i_glide_eff_state_penalty>  (169) 
0

>  <ligand_id>  (169) 
60

>  <original_smiles>  (169) 
COC1CC(C)C2C1C1(C)OC3C=CC4CC5(C(O)O)CCCCC5C(C)(C2O4)C31O

>  <smiles>  (169) 
[H]OC([H])(O[H])C12C([H])([H])C3([H])OC4([H])C5([H])C([H])(C([H])([H])[H])C([H])([H])C([H])(OC([H])([H])[H])C5([H])C5(C([H])([H])[H])OC([H])(C([H])=C3[H])C5(O[H])C4(C([H])([H])[H])C1([H])C([H])([H])C([H])([H])C([H])([H])C2([H])[H]

$$$$
60:1:2
     RDKit          3D

 69 74  0  0  1  0  0  0  0  0999 V2000
   -2.9351    3.0089    8.4948 C   0  0  0  0  0  0  0  0  0  0  0  0
   -2.3076    2.3111    7.4249 O   0  0  0  0  0  0  0  0  0  0  0  0
   -1.6698    3.1754    6.4899 C   0  0  2  0  0  0  0  0  0  0  0  0
   -2.5940    3.2887    5.2549 C   0  0  0  0  0  0  0  0  0  0  0  0
   -2.1395    2.2287    4.2149 C   0  0  1  0  0  0  0  0  0  0  0  0
   -1.9688    2.8112    2.8102 C   0  0  0  0  0  0  0  0  0  0  0  0
   -0.9219    1.5374    4.8840 C   0  0  2  0  0  0  0  0  0  0  0  0
   -0.3956    2.5582    5.8866 C   0  0  2  0  0  0  0  0  0  0  0  0
    0.7857    2.0580    6.7881 C   0  0  2  0  0  0  0  0  0  0  0  0
    0.3749    1.7783    8.2404 C   0  0  0  0  0  0  0  0  0  0  0  0
    1.7653    3.1118    6.8112 O   0  0  0  0  0  0  0  0  0  0  0  0
    2.6409    2.3966    5.9407 C   0  0  2  0  0  0  0  0  0  0  0  0
    2.5911    2.9994    4.5409 C   0  0  0  0  0  0  0  0  0  0  0  0
    2.9785    2.2938    3.4784 C   0  0  0  0  0  0  0  0  0  0  0  0
    1.9019    1.8632    2.5117 C   0  0  1  0  0  0  0  0  0  0  0  0
    2.0867    0.4890    1.8347 C   0  0  0  0  0  0  0  0  0  0  0  0
    2.5026   -0.7864    2.6611 C   0  0  2  0  0  0  0  0  0  0  0  0
    3.9384   -1.2009    2.1337 C   0  0  0  0  0  0  0  0  0  0  0  0
    4.9246   -0.2489    2.4455 O   0  0  0  0  0  0  0  0  0  0  0  0
    3.9473   -1.5288    0.7550 O   0  0  0  0  0  0  0  0  0  0  0  0
    1.5361   -1.9449    2.3103 C   0  0  0  0  0  0  0  0  0  0  0  0
    1.9452   -3.3073    2.8942 C   0  0  0  0  0  0  0  0  0  0  0  0
    2.1837   -3.2570    4.4027 C   0  0  0  0  0  0  0  0  0  0  0  0
    2.9554   -2.0016    4.8730 C   0  0  0  0  0  0  0  0  0  0  0  0
    2.4787   -0.6516    4.2406 C   0  0  2  0  0  0  0  0  0  0  0  0
    1.2706    0.1125    4.9904 C   0  0  2  0  0  0  0  0  0  0  0  0
    0.3851   -0.9746    5.7038 C   0  0  0  0  0  0  0  0  0  0  0  0
    0.2120    0.8575    4.0451 C   0  0  2  0  0  0  0  0  0  0  0  0
    0.6474    1.9023    3.1724 O   0  0  0  0  0  0  0  0  0  0  0  0
    1.7954    1.0925    6.1170 C   0  0  2  0  0  0  0  0  0  0  0  0
    2.4488    0.2381    7.0570 O   0  0  0  0  0  0  0  0  0  0  0  0
   -3.3869    2.2937    9.1803 H   0  0  0  0  0  0  0  0  0  0  0  0
   -3.7113    3.6856    8.1419 H   0  0  0  0  0  0  0  0  0  0  0  0
   -2.2119    3.5885    9.0692 H   0  0  0  0  0  0  0  0  0  0  0  0
   -1.4516    4.1552    6.9181 H   0  0  0  0  0  0  0  0  0  0  0  0
   -3.6420    3.1850    5.5358 H   0  0  0  0  0  0  0  0  0  0  0  0
   -2.4834    4.2801    4.8152 H   0  0  0  0  0  0  0  0  0  0  0  0
   -2.9204    1.4880    4.0782 H   0  0  0  0  0  0  0  0  0  0  0  0
   -1.2092    3.5917    2.7729 H   0  0  0  0  0  0  0  0  0  0  0  0
   -2.9109    3.2308    2.4569 H   0  0  0  0  0  0  0  0  0  0  0  0
   -1.6932    2.0233    2.1064 H   0  0  0  0  0  0  0  0  0  0  0  0
   -1.4290    0.7719    5.4596 H   0  0  0  0  0  0  0  0  0  0  0  0
   -0.0261    3.3708    5.2757 H   0  0  0  0  0  0  0  0  0  0  0  0
   -0.3246    0.9421    8.3075 H   0  0  0  0  0  0  0  0  0  0  0  0
   -0.0800    2.6462    8.7062 H   0  0  0  0  0  0  0  0  0  0  0  0
    1.2318    1.5212    8.8632 H   0  0  0  0  0  0  0  0  0  0  0  0
    3.6553    2.3120    6.3122 H   0  0  0  0  0  0  0  0  0  0  0  0
    1.7522    3.6472    4.4064 H   0  0  0  0  0  0  0  0  0  0  0  0
    3.7987    1.6203    3.5712 H   0  0  0  0  0  0  0  0  0  0  0  0
    1.8476    2.6255    1.7342 H   0  0  0  0  0  0  0  0  0  0  0  0
    1.1492    0.2857    1.3065 H   0  0  0  0  0  0  0  0  0  0  0  0
    2.7885    0.6558    1.0205 H   0  0  0  0  0  0  0  0  0  0  0  0
    4.3073   -2.1082    2.6064 H   0  0  0  0  0  0  0  0  0  0  0  0
    4.5922    0.6020    2.2304 H   0  0  0  0  0  0  0  0  0  0  0  0
    3.2778   -1.0480    0.3124 H   0  0  0  0  0  0  0  0  0  0  0  0
    0.5422   -1.7134    2.6913 H   0  0  0  0  0  0  0  0  0  0  0  0
    1.4178   -2.0316    1.2357 H   0  0  0  0  0  0  0  0  0  0  0  0
    1.1695   -4.0428    2.6855 H   0  0  0  0  0  0  0  0  0  0  0  0
    2.8351   -3.6803    2.3841 H   0  0  0  0  0  0  0  0  0  0  0  0
    1.2232   -3.3359    4.9037 H   0  0  0  0  0  0  0  0  0  0  0  0
    2.7317   -4.1497    4.7089 H   0  0  0  0  0  0  0  0  0  0  0  0
    2.9618   -1.9716    5.9599 H   0  0  0  0  0  0  0  0  0  0  0  0
    4.0136   -2.1491    4.6667 H   0  0  0  0  0  0  0  0  0  0  0  0
    3.3407   -0.0475    4.5036 H   0  0  0  0  0  0  0  0  0  0  0  0
   -0.2875   -0.5503    6.4452 H   0  0  0  0  0  0  0  0  0  0  0  0
    0.9263   -1.6862    6.3186 H   0  0  0  0  0  0  0  0  0  0  0  0
   -0.2170   -1.5416    4.9897 H   0  0  0  0  0  0  0  0  0  0  0  0
   -0.2640    0.1282    3.3956 H   0  0  0  0  0  0  0  0  0  0  0  0
    3.2684    0.0030    6.6759 H   0  0  0  0  0  0  0  0  0  0  0  0
  1  2  1  0
  1 32  1  0
  1 33  1  0
  1 34  1  0
  2  3  1  0
  3  8  1  0
  3  4  1  0
  3 35  1  1
  4  5  1  0
  4 36  1  0
  4 37  1  0
  5  6  1  0
  5  7  1  0
  5 38  1  6
  6 39  1  0
  6 40  1  0
  6 41  1  0
  7 28  1  0
  7  8  1  0
  7 42  1  1
  8  9  1  0
  8 43  1  6
  9 30  1  0
  9 10  1  1
  9 11  1  0
 10 44  1  0
 10 45  1  0
 10 46  1  0
 11 12  1  0
 12 30  1  0
 12 13  1  0
 12 47  1  1
 13 14  2  3
 13 48  1  0
 14 15  1  0
 14 49  1  0
 15 29  1  0
 15 16  1  0
 15 50  1  6
 16 17  1  0
 16 51  1  0
 16 52  1  0
 17 25  1  0
 17 18  1  6
 17 21  1  0
 18 19  1  0
 18 20  1  0
 18 53  1  0
 19 54  1  0
 20 55  1  0
 21 22  1  0
 21 56  1  0
 21 57  1  0
 22 23  1  0
 22 58  1  0
 22 59  1  0
 23 24  1  0
 23 60  1  0
 23 61  1  0
 24 25  1  0
 24 62  1  0
 24 63  1  0
 25 26  1  0
 25 64  1  6
 26 27  1  1
 26 28  1  0
 26 30  1  0
 27 65  1  0
 27 66  1  0
 27 67  1  0
 28 29  1  0
 28 68  1  6
 30 31  1  1
 31 69  1  0
M  END
>  <i_m_ct_stereo_status>  (170) 
1

>  <s_m_source_file>  (170) 
/var/tmp/pbs.5076255.sched01/tmpscvaj2_a/3886avry94.sdf

>  <i_m_source_file_index>  (170) 
36

>  <i_lp_mmshare_version>  (170) 
48012

>  <i_f3d_flags>  (170) 
0

>  <s_epik_input>  (170) 
W0NIM11PW0NAQEhdMVtDSDJdW0NAQEhdKFtDSDNdKVtDQEhdKFtDQEBIXTFbQ0BdMjNbQ0gzXSlbQ0BASF00W0NAQF01KFtDSDNdKVtDQEBIXTZbQ0BAXShbQ0hdKFtPSF0pW09IXSkoW0NIMl1bQ0gyXVtDSDJdW0NIMl02KVtDSDJdW0NAQEhdKE80KS9bQ0hdPVtDSF1cW0NAQEhdKE8yKVtDQEBdMzVbT0hd

>  <s_epik_cmdline>  (170) 
J2VwaWtfcHl0aG9uJywgJy1waHQnLCAnMi4wJywgJy1waCcsICc3LjAnLCAnLXRuJywgJzgnLCAnLW1hJywgJzIwMCcsICctaW1hZScsICc8aW5maWxlLm1hZT4nLCAnLW9tYWUnLCAnPG91dGZpbGUubWFlPic=

>  <r_lp_tautomer_probability>  (170) 
1

>  <r_epik_Ionization_Penalty>  (170) 
2.55327e-07

>  <r_epik_Ionization_Penalty_Charging>  (170) 
0

>  <r_epik_Ionization_Penalty_Neutral>  (170) 
2.55327e-07

>  <r_epik_State_Penalty>  (170) 
-0

>  <r_epik_Charging_Adjusted_Penalty>  (170) 
0

>  <i_epik_Tot_Q>  (170) 
0

>  <i_epik_Tot_abs_Q>  (170) 
0

>  <s_epik_Chemistry_Notes>  (170) 
This compound contains an acetal/aminal-like group ( X-CH(R)-Y where X, Y are N, S, or O) that may be acid/base labile, releasing an aldehyde.

>  <s_lp_Force_Field>  (170) 
OPLS3e

>  <r_lp_Energy>  (170) 
125.838

>  <b_lp_Chiralities_Consistent>  (170) 
1

>  <s_lp_Variant>  (170) 
60:0-2

>  <s_i_glide_gridfile>  (170) 
pfpi4k_grid

>  <i_i_glide_lignum>  (170) 
36

>  <i_i_glide_rotatable_bonds>  (170) 
5

>  <r_i_docking_score>  (170) 
-1.79425

>  <r_i_glide_ligand_efficiency>  (170) 
-0.057879

>  <r_i_glide_ligand_efficiency_sa>  (170) 
-0.18182

>  <r_i_glide_ligand_efficiency_ln>  (170) 
-0.404658

>  <r_i_glide_gscore>  (170) 
-1.79425

>  <r_i_glide_lipo>  (170) 
-0.128824

>  <r_i_glide_hbond>  (170) 
0

>  <r_i_glide_metal>  (170) 
-0

>  <r_i_glide_rewards>  (170) 
-0.446143

>  <r_i_glide_evdw>  (170) 
-20.2648

>  <r_i_glide_ecoul>  (170) 
-2.07599

>  <r_i_glide_erotb>  (170) 
0.105465

>  <r_i_glide_esite>  (170) 
-0.000108162

>  <r_i_glide_emodel>  (170) 
-23.6805

>  <r_i_glide_energy>  (170) 
-22.3408

>  <r_i_glide_einternal>  (170) 
1.71672

>  <r_i_glide_intrahb_reward>  (170) 
-0

>  <i_i_glide_confnum>  (170) 
1

>  <i_i_glide_posenum>  (170) 
25

>  <r_i_glide_eff_state_penalty>  (170) 
0

>  <ligand_id>  (170) 
60

>  <original_smiles>  (170) 
COC1CC(C)C2C1C1(C)OC3C=CC4CC5(C(O)O)CCCCC5C(C)(C2O4)C31O

>  <smiles>  (170) 
[H]OC([H])(O[H])C12C([H])([H])C3([H])OC4([H])C5([H])C([H])(C([H])([H])[H])C([H])([H])C([H])(OC([H])([H])[H])C5([H])C5(C([H])([H])[H])OC([H])(C([H])=C3[H])C5(O[H])C4(C([H])([H])[H])C1([H])C([H])([H])C([H])([H])C([H])([H])C2([H])[H]

$$$$
61:0:0
     RDKit          3D

 31 33  0  0  1  0  0  0  0  0999 V2000
    5.1341   -0.7843    1.8835 C   0  0  0  0  0  0  0  0  0  0  0  0
    5.2088   -2.0694    1.1739 N   0  0  0  0  0  0  0  0  0  0  0  0
    6.2054   -2.3108    0.2820 C   0  0  0  0  0  0  0  0  0  0  0  0
    7.0926   -1.4839    0.0696 O   0  0  0  0  0  0  0  0  0  0  0  0
    6.2949   -3.6318   -0.5126 C   0  0  0  0  0  0  0  0  0  0  0  0
    4.9920   -4.3866   -0.8967 C   0  0  1  0  0  0  0  0  0  0  0  0
    4.7591   -5.6744   -0.0559 C   0  0  0  0  0  0  0  0  0  0  0  0
    3.9747   -5.4252    1.2550 C   0  0  1  0  0  0  0  0  0  0  0  0
    4.6754   -4.3636    2.1182 C   0  0  0  0  0  0  0  0  0  0  0  0
    4.1474   -3.0114    1.5722 C   0  0  2  0  0  0  0  0  0  0  0  0
    3.1090   -3.3669    0.4710 C   0  0  1  0  0  0  0  0  0  0  0  0
    3.7343   -3.4902   -0.9349 C   0  0  0  0  0  0  0  0  0  0  0  0
    2.6365   -4.7418    0.9675 C   0  0  1  0  0  0  0  0  0  0  0  0
    1.7993   -5.4547    0.0742 O   0  0  0  0  0  0  0  0  0  0  0  0
    5.8737   -0.0538    1.5638 H   0  0  0  0  0  0  0  0  0  0  0  0
    5.2822   -0.9332    2.9526 H   0  0  0  0  0  0  0  0  0  0  0  0
    4.1625   -0.3163    1.7366 H   0  0  0  0  0  0  0  0  0  0  0  0
    6.8060   -3.3847   -1.4441 H   0  0  0  0  0  0  0  0  0  0  0  0
    6.9886   -4.2940    0.0037 H   0  0  0  0  0  0  0  0  0  0  0  0
    5.1541   -4.7243   -1.9208 H   0  0  0  0  0  0  0  0  0  0  0  0
    4.2146   -6.3989   -0.6625 H   0  0  0  0  0  0  0  0  0  0  0  0
    5.7106   -6.1591    0.1699 H   0  0  0  0  0  0  0  0  0  0  0  0
    3.8455   -6.3616    1.8019 H   0  0  0  0  0  0  0  0  0  0  0  0
    4.3598   -4.4755    3.1568 H   0  0  0  0  0  0  0  0  0  0  0  0
    5.7621   -4.4653    2.1162 H   0  0  0  0  0  0  0  0  0  0  0  0
    3.5827   -2.5539    2.3886 H   0  0  0  0  0  0  0  0  0  0  0  0
    2.2861   -2.6480    0.4434 H   0  0  0  0  0  0  0  0  0  0  0  0
    3.9630   -2.5079   -1.3525 H   0  0  0  0  0  0  0  0  0  0  0  0
    3.0011   -3.9077   -1.6222 H   0  0  0  0  0  0  0  0  0  0  0  0
    2.0855   -4.6261    1.9007 H   0  0  0  0  0  0  0  0  0  0  0  0
    2.2488   -5.5280   -0.7597 H   0  0  0  0  0  0  0  0  0  0  0  0
  1  2  1  0
  1 15  1  0
  1 16  1  0
  1 17  1  0
  2 10  1  0
  2  3  1  0
  3  4  2  0
  3  5  1  0
  5  6  1  0
  5 18  1  0
  5 19  1  0
  6 12  1  0
  6  7  1  0
  6 20  1  6
  7  8  1  0
  7 21  1  0
  7 22  1  0
  8 13  1  0
  8  9  1  0
  8 23  1  1
  9 10  1  0
  9 24  1  0
  9 25  1  0
 10 11  1  0
 10 26  1  1
 11 12  1  0
 11 13  1  0
 11 27  1  6
 12 28  1  0
 12 29  1  0
 13 14  1  0
 13 30  1  1
 14 31  1  0
M  END
>  <i_m_ct_stereo_status>  (171) 
1

>  <s_m_source_file>  (171) 
/var/tmp/pbs.5076255.sched01/tmpscvaj2_a/3886avry94.sdf

>  <i_m_source_file_index>  (171) 
37

>  <i_lp_mmshare_version>  (171) 
48012

>  <i_f3d_flags>  (171) 
0

>  <s_epik_input>  (171) 
W0NASF0xMltDSDJdQyg9TylOKFtDSDNdKVtDQEhdM1tDQEBIXShbQ0gyXTIpW0NAQEhdKFtPSF0pW0NAQEhdKFtDSDJdMSlbQ0gyXTM=

>  <s_epik_cmdline>  (171) 
J2VwaWtfcHl0aG9uJywgJy1waHQnLCAnMi4wJywgJy1waCcsICc3LjAnLCAnLXRuJywgJzgnLCAnLW1hJywgJzIwMCcsICctaW1hZScsICc8aW5maWxlLm1hZT4nLCAnLW9tYWUnLCAnPG91dGZpbGUubWFlPic=

>  <r_lp_tautomer_probability>  (171) 
1

>  <r_epik_Ionization_Penalty>  (171) 
4.56368e-07

>  <r_epik_Ionization_Penalty_Charging>  (171) 
0

>  <r_epik_Ionization_Penalty_Neutral>  (171) 
4.56368e-07

>  <r_epik_State_Penalty>  (171) 
-0

>  <r_epik_Charging_Adjusted_Penalty>  (171) 
0

>  <i_epik_Tot_Q>  (171) 
0

>  <i_epik_Tot_abs_Q>  (171) 
0

>  <s_lp_Force_Field>  (171) 
OPLS3e

>  <r_lp_Energy>  (171) 
39.3383

>  <b_lp_Chiralities_Consistent>  (171) 
1

>  <s_lp_Variant>  (171) 
61:0-1

>  <s_i_glide_gridfile>  (171) 
pfpi4k_grid

>  <i_i_glide_lignum>  (171) 
37

>  <i_i_glide_rotatable_bonds>  (171) 
1

>  <r_i_docking_score>  (171) 
-4.62794

>  <r_i_glide_ligand_efficiency>  (171) 
-0.330567

>  <r_i_glide_ligand_efficiency_sa>  (171) 
-0.796713

>  <r_i_glide_ligand_efficiency_ln>  (171) 
-1.27174

>  <r_i_glide_gscore>  (171) 
-4.62794

>  <r_i_glide_lipo>  (171) 
-0.29194

>  <r_i_glide_hbond>  (171) 
-0.490638

>  <r_i_glide_metal>  (171) 
-0

>  <r_i_glide_rewards>  (171) 
-2.22714

>  <r_i_glide_evdw>  (171) 
-13.7282

>  <r_i_glide_ecoul>  (171) 
-6.21205

>  <r_i_glide_erotb>  (171) 
0

>  <r_i_glide_esite>  (171) 
0

>  <r_i_glide_emodel>  (171) 
-26.4208

>  <r_i_glide_energy>  (171) 
-19.9402

>  <r_i_glide_einternal>  (171) 
0.0127168

>  <r_i_glide_intrahb_reward>  (171) 
-0

>  <i_i_glide_confnum>  (171) 
2

>  <i_i_glide_posenum>  (171) 
35

>  <r_i_glide_eff_state_penalty>  (171) 
0

>  <ligand_id>  (171) 
61

>  <original_smiles>  (171) 
CN1C(=O)CC2CC3CC1C(C2)C3O

>  <smiles>  (171) 
[H]OC1([H])C2([H])C([H])([H])C3([H])N(C([H])([H])[H])C(=O)C([H])([H])C([H])(C2([H])[H])C([H])([H])C13[H]

$$$$
61:0:1
     RDKit          3D

 31 33  0  0  1  0  0  0  0  0999 V2000
    3.3186   -0.4844   -3.0940 C   0  0  0  0  0  0  0  0  0  0  0  0
    4.0398   -1.5698   -2.4106 N   0  0  0  0  0  0  0  0  0  0  0  0
    4.4176   -2.6867   -3.0761 C   0  0  0  0  0  0  0  0  0  0  0  0
    4.2156   -2.8163   -4.2936 O   0  0  0  0  0  0  0  0  0  0  0  0
    5.1545   -3.8495   -2.3844 C   0  0  0  0  0  0  0  0  0  0  0  0
    4.8614   -4.1498   -0.8852 C   0  0  1  0  0  0  0  0  0  0  0  0
    6.0088   -3.7377    0.0816 C   0  0  0  0  0  0  0  0  0  0  0  0
    5.8993   -2.2741    0.5827 C   0  0  1  0  0  0  0  0  0  0  0  0
    5.8155   -1.2998   -0.5981 C   0  0  0  0  0  0  0  0  0  0  0  0
    4.3166   -1.2751   -0.9850 C   0  0  2  0  0  0  0  0  0  0  0  0
    3.6007   -2.1717    0.0583 C   0  0  1  0  0  0  0  0  0  0  0  0
    3.4951   -3.6488   -0.3821 C   0  0  0  0  0  0  0  0  0  0  0  0
    4.5484   -2.0421    1.2575 C   0  0  1  0  0  0  0  0  0  0  0  0
    4.2803   -2.9215    2.3348 O   0  0  0  0  0  0  0  0  0  0  0  0
    3.0505   -0.7031   -4.1284 H   0  0  0  0  0  0  0  0  0  0  0  0
    3.9153    0.4282   -3.1120 H   0  0  0  0  0  0  0  0  0  0  0  0
    2.3834   -0.2673   -2.5877 H   0  0  0  0  0  0  0  0  0  0  0  0
    4.8970   -4.7390   -2.9568 H   0  0  0  0  0  0  0  0  0  0  0  0
    6.2216   -3.7136   -2.5443 H   0  0  0  0  0  0  0  0  0  0  0  0
    4.8218   -5.2401   -0.8330 H   0  0  0  0  0  0  0  0  0  0  0  0
    6.0099   -4.4023    0.9470 H   0  0  0  0  0  0  0  0  0  0  0  0
    6.9783   -3.8856   -0.3986 H   0  0  0  0  0  0  0  0  0  0  0  0
    6.7317   -2.0367    1.2455 H   0  0  0  0  0  0  0  0  0  0  0  0
    6.1165   -0.3067   -0.2625 H   0  0  0  0  0  0  0  0  0  0  0  0
    6.4782   -1.5797   -1.4163 H   0  0  0  0  0  0  0  0  0  0  0  0
    3.9856   -0.2572   -0.7741 H   0  0  0  0  0  0  0  0  0  0  0  0
    2.6139   -1.7857    0.3093 H   0  0  0  0  0  0  0  0  0  0  0  0
    2.7267   -3.7749   -1.1446 H   0  0  0  0  0  0  0  0  0  0  0  0
    3.1636   -4.2587    0.4545 H   0  0  0  0  0  0  0  0  0  0  0  0
    4.5092   -1.0231    1.6545 H   0  0  0  0  0  0  0  0  0  0  0  0
    3.4386   -2.6985    2.6919 H   0  0  0  0  0  0  0  0  0  0  0  0
  1  2  1  0
  1 15  1  0
  1 16  1  0
  1 17  1  0
  2 10  1  0
  2  3  1  0
  3  4  2  0
  3  5  1  0
  5  6  1  0
  5 18  1  0
  5 19  1  0
  6 12  1  0
  6  7  1  0
  6 20  1  6
  7  8  1  0
  7 21  1  0
  7 22  1  0
  8 13  1  0
  8  9  1  0
  8 23  1  1
  9 10  1  0
  9 24  1  0
  9 25  1  0
 10 11  1  0
 10 26  1  1
 11 12  1  0
 11 13  1  0
 11 27  1  1
 12 28  1  0
 12 29  1  0
 13 14  1  0
 13 30  1  1
 14 31  1  0
M  END
>  <i_m_ct_stereo_status>  (172) 
1

>  <s_m_source_file>  (172) 
/var/tmp/pbs.5076255.sched01/tmpscvaj2_a/3886avry94.sdf

>  <i_m_source_file_index>  (172) 
37

>  <i_lp_mmshare_version>  (172) 
48012

>  <i_f3d_flags>  (172) 
0

>  <s_epik_input>  (172) 
W0NASF0xMltDSDJdQyg9TylOKFtDSDNdKVtDQEhdM1tDQEBIXShbQ0gyXTIpW0NAQEhdKFtPSF0pW0NAQEhdKFtDSDJdMSlbQ0gyXTM=

>  <s_epik_cmdline>  (172) 
J2VwaWtfcHl0aG9uJywgJy1waHQnLCAnMi4wJywgJy1waCcsICc3LjAnLCAnLXRuJywgJzgnLCAnLW1hJywgJzIwMCcsICctaW1hZScsICc8aW5maWxlLm1hZT4nLCAnLW9tYWUnLCAnPG91dGZpbGUubWFlPic=

>  <r_lp_tautomer_probability>  (172) 
1

>  <r_epik_Ionization_Penalty>  (172) 
4.56368e-07

>  <r_epik_Ionization_Penalty_Charging>  (172) 
0

>  <r_epik_Ionization_Penalty_Neutral>  (172) 
4.56368e-07

>  <r_epik_State_Penalty>  (172) 
-0

>  <r_epik_Charging_Adjusted_Penalty>  (172) 
0

>  <i_epik_Tot_Q>  (172) 
0

>  <i_epik_Tot_abs_Q>  (172) 
0

>  <s_lp_Force_Field>  (172) 
OPLS3e

>  <r_lp_Energy>  (172) 
39.3383

>  <b_lp_Chiralities_Consistent>  (172) 
1

>  <s_lp_Variant>  (172) 
61:0-1

>  <s_i_glide_gridfile>  (172) 
pfpi4k_grid

>  <i_i_glide_lignum>  (172) 
37

>  <i_i_glide_rotatable_bonds>  (172) 
1

>  <r_i_docking_score>  (172) 
-4.30919

>  <r_i_glide_ligand_efficiency>  (172) 
-0.307799

>  <r_i_glide_ligand_efficiency_sa>  (172) 
-0.74184

>  <r_i_glide_ligand_efficiency_ln>  (172) 
-1.18415

>  <r_i_glide_gscore>  (172) 
-4.30919

>  <r_i_glide_lipo>  (172) 
-0.235475

>  <r_i_glide_hbond>  (172) 
-0.264452

>  <r_i_glide_metal>  (172) 
-0

>  <r_i_glide_rewards>  (172) 
-2.23796

>  <r_i_glide_evdw>  (172) 
-18.1359

>  <r_i_glide_ecoul>  (172) 
-4.21122

>  <r_i_glide_erotb>  (172) 
0

>  <r_i_glide_esite>  (172) 
-0.0328178

>  <r_i_glide_emodel>  (172) 
-28.213

>  <r_i_glide_energy>  (172) 
-22.3472

>  <r_i_glide_einternal>  (172) 
0.31383

>  <r_i_glide_intrahb_reward>  (172) 
-0

>  <i_i_glide_confnum>  (172) 
2

>  <i_i_glide_posenum>  (172) 
38

>  <r_i_glide_eff_state_penalty>  (172) 
0

>  <ligand_id>  (172) 
61

>  <original_smiles>  (172) 
CN1C(=O)CC2CC3CC1C(C2)C3O

>  <smiles>  (172) 
[H]OC1([H])C2([H])C([H])([H])C3([H])N(C([H])([H])[H])C(=O)C([H])([H])C([H])(C2([H])[H])C([H])([H])C13[H]

$$$$
61:0:2
     RDKit          3D

 31 33  0  0  1  0  0  0  0  0999 V2000
    2.2370   -2.4116   -3.8707 C   0  0  0  0  0  0  0  0  0  0  0  0
    3.4123   -2.5230   -3.0163 N   0  0  0  0  0  0  0  0  0  0  0  0
    4.3955   -3.4026   -3.3127 C   0  0  0  0  0  0  0  0  0  0  0  0
    4.3689   -4.0761   -4.3339 O   0  0  0  0  0  0  0  0  0  0  0  0
    5.5992   -3.5967   -2.3921 C   0  0  0  0  0  0  0  0  0  0  0  0
    5.4991   -3.3584   -0.8653 C   0  0  1  0  0  0  0  0  0  0  0  0
    6.1930   -2.0528   -0.3915 C   0  0  0  0  0  0  0  0  0  0  0  0
    5.2704   -0.8125   -0.4716 C   0  0  1  0  0  0  0  0  0  0  0  0
    4.6946   -0.6611   -1.8935 C   0  0  0  0  0  0  0  0  0  0  0  0
    3.4404   -1.5620   -1.9044 C   0  0  2  0  0  0  0  0  0  0  0  0
    3.3198   -2.1555   -0.4683 C   0  0  1  0  0  0  0  0  0  0  0  0
    4.0757   -3.4845   -0.2961 C   0  0  0  0  0  0  0  0  0  0  0  0
    4.0031   -1.0471    0.3499 C   0  0  1  0  0  0  0  0  0  0  0  0
    4.2513   -1.3642    1.7048 O   0  0  0  0  0  0  0  0  0  0  0  0
    2.1741   -3.1536   -4.6643 H   0  0  0  0  0  0  0  0  0  0  0  0
    2.2075   -1.4202   -4.3256 H   0  0  0  0  0  0  0  0  0  0  0  0
    1.3606   -2.5765   -3.2544 H   0  0  0  0  0  0  0  0  0  0  0  0
    5.7392   -4.6524   -2.4945 H   0  0  0  0  0  0  0  0  0  0  0  0
    6.4636   -3.0917   -2.8257 H   0  0  0  0  0  0  0  0  0  0  0  0
    6.0763   -4.1691   -0.4219 H   0  0  0  0  0  0  0  0  0  0  0  0
    6.5401   -2.1780    0.6418 H   0  0  0  0  0  0  0  0  0  0  0  0
    7.0906   -1.8868   -0.9863 H   0  0  0  0  0  0  0  0  0  0  0  0
    5.8126    0.0659   -0.1202 H   0  0  0  0  0  0  0  0  0  0  0  0
    4.3555    0.3470   -2.1044 H   0  0  0  0  0  0  0  0  0  0  0  0
    5.4138   -0.8864   -2.6786 H   0  0  0  0  0  0  0  0  0  0  0  0
    2.6117   -0.8672   -2.0478 H   0  0  0  0  0  0  0  0  0  0  0  0
    2.2879   -2.3200   -0.1530 H   0  0  0  0  0  0  0  0  0  0  0  0
    3.5324   -4.3012   -0.7690 H   0  0  0  0  0  0  0  0  0  0  0  0
    4.1210   -3.7428    0.7633 H   0  0  0  0  0  0  0  0  0  0  0  0
    3.3898   -0.1465    0.3421 H   0  0  0  0  0  0  0  0  0  0  0  0
    3.4161   -1.4172    2.1371 H   0  0  0  0  0  0  0  0  0  0  0  0
  1  2  1  0
  1 15  1  0
  1 16  1  0
  1 17  1  0
  2 10  1  0
  2  3  1  0
  3  4  2  0
  3  5  1  0
  5  6  1  0
  5 18  1  0
  5 19  1  0
  6 12  1  0
  6  7  1  0
  6 20  1  1
  7  8  1  0
  7 21  1  0
  7 22  1  0
  8 13  1  0
  8  9  1  0
  8 23  1  1
  9 10  1  0
  9 24  1  0
  9 25  1  0
 10 11  1  0
 10 26  1  6
 11 12  1  0
 11 13  1  0
 11 27  1  1
 12 28  1  0
 12 29  1  0
 13 14  1  0
 13 30  1  1
 14 31  1  0
M  END
>  <i_m_ct_stereo_status>  (173) 
1

>  <s_m_source_file>  (173) 
/var/tmp/pbs.5076255.sched01/tmpscvaj2_a/3886avry94.sdf

>  <i_m_source_file_index>  (173) 
37

>  <i_lp_mmshare_version>  (173) 
48012

>  <i_f3d_flags>  (173) 
0

>  <s_epik_input>  (173) 
W0NASF0xMltDSDJdQyg9TylOKFtDSDNdKVtDQEhdM1tDQEBIXShbQ0gyXTIpW0NAQEhdKFtPSF0pW0NAQEhdKFtDSDJdMSlbQ0gyXTM=

>  <s_epik_cmdline>  (173) 
J2VwaWtfcHl0aG9uJywgJy1waHQnLCAnMi4wJywgJy1waCcsICc3LjAnLCAnLXRuJywgJzgnLCAnLW1hJywgJzIwMCcsICctaW1hZScsICc8aW5maWxlLm1hZT4nLCAnLW9tYWUnLCAnPG91dGZpbGUubWFlPic=

>  <r_lp_tautomer_probability>  (173) 
1

>  <r_epik_Ionization_Penalty>  (173) 
4.56368e-07

>  <r_epik_Ionization_Penalty_Charging>  (173) 
0

>  <r_epik_Ionization_Penalty_Neutral>  (173) 
4.56368e-07

>  <r_epik_State_Penalty>  (173) 
-0

>  <r_epik_Charging_Adjusted_Penalty>  (173) 
0

>  <i_epik_Tot_Q>  (173) 
0

>  <i_epik_Tot_abs_Q>  (173) 
0

>  <s_lp_Force_Field>  (173) 
OPLS3e

>  <r_lp_Energy>  (173) 
39.3383

>  <b_lp_Chiralities_Consistent>  (173) 
1

>  <s_lp_Variant>  (173) 
61:0-1

>  <s_i_glide_gridfile>  (173) 
pfpi4k_grid

>  <i_i_glide_lignum>  (173) 
37

>  <i_i_glide_rotatable_bonds>  (173) 
1

>  <r_i_docking_score>  (173) 
-4.16195

>  <r_i_glide_ligand_efficiency>  (173) 
-0.297282

>  <r_i_glide_ligand_efficiency_sa>  (173) 
-0.716493

>  <r_i_glide_ligand_efficiency_ln>  (173) 
-1.14369

>  <r_i_glide_gscore>  (173) 
-4.16195

>  <r_i_glide_lipo>  (173) 
-0.499043

>  <r_i_glide_hbond>  (173) 
-0.00177718

>  <r_i_glide_metal>  (173) 
-0

>  <r_i_glide_rewards>  (173) 
-2.33871

>  <r_i_glide_evdw>  (173) 
-17.2118

>  <r_i_glide_ecoul>  (173) 
-3.07892

>  <r_i_glide_erotb>  (173) 
0

>  <r_i_glide_esite>  (173) 
0

>  <r_i_glide_emodel>  (173) 
-25.8398

>  <r_i_glide_energy>  (173) 
-20.2907

>  <r_i_glide_einternal>  (173) 
0.323402

>  <r_i_glide_intrahb_reward>  (173) 
-0

>  <i_i_glide_confnum>  (173) 
2

>  <i_i_glide_posenum>  (173) 
13

>  <r_i_glide_eff_state_penalty>  (173) 
0

>  <ligand_id>  (173) 
61

>  <original_smiles>  (173) 
CN1C(=O)CC2CC3CC1C(C2)C3O

>  <smiles>  (173) 
[H]OC1([H])C2([H])C([H])([H])C3([H])N(C([H])([H])[H])C(=O)C([H])([H])C([H])(C2([H])[H])C([H])([H])C13[H]

$$$$
62:0:0
     RDKit          3D

 68 73  0  0  1  0  0  0  0  0999 V2000
    6.1483   -3.7075    6.0570 C   0  0  0  0  0  0  0  0  0  0  0  0
    5.4834   -3.9584    4.8280 O   0  0  0  0  0  0  0  0  0  0  0  0
    5.7702   -5.0593    4.0891 C   0  0  0  0  0  0  0  0  0  0  0  0
    6.5780   -5.9197    4.4212 O   0  0  0  0  0  0  0  0  0  0  0  0
    4.9936   -5.0840    2.8162 C   0  0  0  0  0  0  0  0  0  0  0  0
    4.6818   -3.9859    2.0853 C   0  0  0  0  0  0  0  0  0  0  0  0
    5.2748   -2.5967    2.2960 C   0  0  0  0  0  0  0  0  0  0  0  0
    3.8184   -4.1372    0.9907 N   0  0  0  0  0  0  0  0  0  0  0  0
    2.9677   -3.0592    0.4932 C   0  0  0  0  0  0  0  0  0  0  0  0
    3.3767   -2.5378   -0.8695 C   0  0  0  0  0  0  0  0  0  0  0  0
    2.8018   -3.0822   -2.0318 C   0  0  0  0  0  0  0  0  0  0  0  0
    3.1746   -2.6064   -3.3047 C   0  0  0  0  0  0  0  0  0  0  0  0
    4.1276   -1.5761   -3.4079 C   0  0  0  0  0  0  0  0  0  0  0  0
    4.6826   -1.0122   -2.2503 C   0  0  0  0  0  0  0  0  0  0  0  0
    4.2936   -1.4755   -0.9823 C   0  0  0  0  0  0  0  0  0  0  0  0
    3.4201   -5.4999    0.5749 C   0  0  1  0  0  0  0  0  0  0  0  0
    4.6121   -6.2569   -0.0406 C   0  0  0  0  0  0  0  0  0  0  0  0
    5.2899   -6.9455    1.1727 C   0  0  0  0  0  0  0  0  0  0  0  0
    4.4568   -6.4441    2.3650 C   0  0  2  0  0  0  0  0  0  0  0  0
    3.1333   -6.3146    1.7459 N   0  0  0  0  0  0  0  0  0  0  0  0
    2.0361   -5.8499    2.5942 C   0  0  0  0  0  0  0  0  0  0  0  0
    0.8013   -6.8017    2.5820 C   0  0  1  0  0  0  0  0  0  0  0  0
    0.1443   -6.5517    1.3474 O   0  0  0  0  0  0  0  0  0  0  0  0
    1.1535   -8.3169    2.6724 C   0  0  2  0  0  0  0  0  0  0  0  0
   -0.1291   -9.1921    2.6065 C   0  0  0  0  0  0  0  0  0  0  0  0
   -1.0664   -8.8380    3.7652 C   0  0  1  0  0  0  0  0  0  0  0  0
   -0.3410   -9.1029    5.1065 C   0  0  0  0  0  0  0  0  0  0  0  0
    0.9220   -8.2315    5.1978 C   0  0  1  0  0  0  0  0  0  0  0  0
    1.8624   -8.5941    4.0246 C   0  0  0  0  0  0  0  0  0  0  0  0
    0.5040   -6.7483    5.1298 C   0  0  0  0  0  0  0  0  0  0  0  0
   -0.1681   -6.4809    3.7576 C   0  0  2  0  0  0  0  0  0  0  0  0
   -1.4532   -7.3503    3.6640 C   0  0  0  0  0  0  0  0  0  0  0  0
    5.8446   -2.7344    6.4449 H   0  0  0  0  0  0  0  0  0  0  0  0
    7.2325   -3.6871    5.9484 H   0  0  0  0  0  0  0  0  0  0  0  0
    5.8841   -4.4629    6.7945 H   0  0  0  0  0  0  0  0  0  0  0  0
    6.2122   -2.6176    2.8544 H   0  0  0  0  0  0  0  0  0  0  0  0
    4.5705   -1.9280    2.7973 H   0  0  0  0  0  0  0  0  0  0  0  0
    5.5550   -2.1811    1.3333 H   0  0  0  0  0  0  0  0  0  0  0  0
    1.9340   -3.3954    0.4601 H   0  0  0  0  0  0  0  0  0  0  0  0
    2.9603   -2.2299    1.1936 H   0  0  0  0  0  0  0  0  0  0  0  0
    2.0573   -3.8554   -1.9497 H   0  0  0  0  0  0  0  0  0  0  0  0
    2.7125   -3.0243   -4.1875 H   0  0  0  0  0  0  0  0  0  0  0  0
    4.4216   -1.2007   -4.3749 H   0  0  0  0  0  0  0  0  0  0  0  0
    5.3907   -0.2066   -2.3157 H   0  0  0  0  0  0  0  0  0  0  0  0
    4.6866   -0.9829   -0.1099 H   0  0  0  0  0  0  0  0  0  0  0  0
    2.5647   -5.4921   -0.1007 H   0  0  0  0  0  0  0  0  0  0  0  0
    4.2509   -7.0235   -0.7241 H   0  0  0  0  0  0  0  0  0  0  0  0
    5.2798   -5.5946   -0.5880 H   0  0  0  0  0  0  0  0  0  0  0  0
    5.1882   -8.0314    1.0972 H   0  0  0  0  0  0  0  0  0  0  0  0
    6.3532   -6.7176    1.2707 H   0  0  0  0  0  0  0  0  0  0  0  0
    4.4717   -7.1489    3.1942 H   0  0  0  0  0  0  0  0  0  0  0  0
    2.4279   -5.7361    3.6032 H   0  0  0  0  0  0  0  0  0  0  0  0
    1.7361   -4.8359    2.3179 H   0  0  0  0  0  0  0  0  0  0  0  0
   -0.1941   -7.3818    1.0322 H   0  0  0  0  0  0  0  0  0  0  0  0
    1.8029   -8.6267    1.8460 H   0  0  0  0  0  0  0  0  0  0  0  0
   -0.6729   -9.0617    1.6739 H   0  0  0  0  0  0  0  0  0  0  0  0
    0.1317  -10.2494    2.6588 H   0  0  0  0  0  0  0  0  0  0  0  0
   -1.9604   -9.4536    3.6797 H   0  0  0  0  0  0  0  0  0  0  0  0
   -0.9892   -8.9109    5.9615 H   0  0  0  0  0  0  0  0  0  0  0  0
   -0.0524  -10.1541    5.1688 H   0  0  0  0  0  0  0  0  0  0  0  0
    1.4322   -8.4169    6.1437 H   0  0  0  0  0  0  0  0  0  0  0  0
    2.1602   -9.6444    4.0827 H   0  0  0  0  0  0  0  0  0  0  0  0
    2.7806   -8.0194    4.1156 H   0  0  0  0  0  0  0  0  0  0  0  0
   -0.2066   -6.5237    5.9297 H   0  0  0  0  0  0  0  0  0  0  0  0
    1.3659   -6.1006    5.2988 H   0  0  0  0  0  0  0  0  0  0  0  0
   -0.4379   -5.4336    3.7267 H   0  0  0  0  0  0  0  0  0  0  0  0
   -1.9957   -7.1712    2.7352 H   0  0  0  0  0  0  0  0  0  0  0  0
   -2.1432   -7.0843    4.4650 H   0  0  0  0  0  0  0  0  0  0  0  0
  1  2  1  0
  1 33  1  0
  1 34  1  0
  1 35  1  0
  2  3  1  0
  3  4  2  0
  3  5  1  0
  5 19  1  0
  5  6  2  0
  6  7  1  0
  6  8  1  0
  7 36  1  0
  7 37  1  0
  7 38  1  0
  8  9  1  0
  8 16  1  0
  9 10  1  0
  9 39  1  0
  9 40  1  0
 10 15  1  0
 10 11  2  0
 11 12  1  0
 11 41  1  0
 12 13  2  0
 12 42  1  0
 13 14  1  0
 13 43  1  0
 14 15  2  0
 14 44  1  0
 15 45  1  0
 16 20  1  0
 16 17  1  0
 16 46  1  6
 17 18  1  0
 17 47  1  0
 17 48  1  0
 18 19  1  0
 18 49  1  0
 18 50  1  0
 19 20  1  0
 19 51  1  1
 20 21  1  0
 21 22  1  0
 21 52  1  0
 21 53  1  0
 22 31  1  0
 22 23  1  6
 22 24  1  0
 23 54  1  0
 24 29  1  0
 24 25  1  0
 24 55  1  6
 25 26  1  0
 25 56  1  0
 25 57  1  0
 26 32  1  0
 26 27  1  0
 26 58  1  1
 27 28  1  0
 27 59  1  0
 27 60  1  0
 28 29  1  0
 28 30  1  0
 28 61  1  1
 29 62  1  0
 29 63  1  0
 30 31  1  0
 30 64  1  0
 30 65  1  0
 31 32  1  0
 31 66  1  1
 32 67  1  0
 32 68  1  0
M  END
>  <i_m_ct_stereo_status>  (174) 
1

>  <s_m_source_file>  (174) 
/var/tmp/pbs.5076255.sched01/tmpscvaj2_a/3886avry94.sdf

>  <i_m_source_file_index>  (174) 
38

>  <i_lp_mmshare_version>  (174) 
48012

>  <i_f3d_flags>  (174) 
0

>  <s_epik_input>  (174) 
W2NIXTFbY0hdW2NIXVtjSF1bY0hdYzFbQ0gyXU4oW0NAQEhdMjMpQyhbQ0gzXSk9QyhDKD1PKU9bQ0gzXSlbQ0BIXShbQ0gyXVtDSDJdMilOM1tDSDJdW0NAQF0oW09IXSkoW0NAQEhdNDUpW0NASF02W0NIMl1bQ0BASF0oW0NIMl01KVtDSDJdW0NAQEhdKFtDSDJdNClbQ0gyXTY=

>  <s_epik_cmdline>  (174) 
J2VwaWtfcHl0aG9uJywgJy1waHQnLCAnMi4wJywgJy1waCcsICc3LjAnLCAnLXRuJywgJzgnLCAnLW1hJywgJzIwMCcsICctaW1hZScsICc8aW5maWxlLm1hZT4nLCAnLW9tYWUnLCAnPG91dGZpbGUubWFlPic=

>  <r_epik_Ionization_Penalty>  (174) 
0.0211511

>  <r_epik_Ionization_Penalty_Charging>  (174) 
0

>  <r_epik_Ionization_Penalty_Neutral>  (174) 
0.0211511

>  <r_epik_State_Penalty>  (174) 
0.0168986

>  <r_epik_Charging_Adjusted_Penalty>  (174) 
0.0168986

>  <i_epik_Tot_Q>  (174) 
0

>  <i_epik_Tot_abs_Q>  (174) 
0

>  <s_epik_Chemistry_Notes>  (174) 
This compound has an ester and may undergo hydrolysis at high or low pH. This compound contains an acetal/aminal-like group ( X-CH(R)-Y where X, Y are N, S, or O) that may be acid/base labile, releasing an aldehyde.

>  <s_lp_Force_Field>  (174) 
OPLS3e

>  <r_lp_Energy>  (174) 
45.247

>  <b_lp_Chiralities_Consistent>  (174) 
1

>  <s_lp_Variant>  (174) 
62:0-1

>  <s_i_glide_gridfile>  (174) 
pfpi4k_grid

>  <i_i_glide_lignum>  (174) 
38

>  <i_i_glide_rotatable_bonds>  (174) 
7

>  <r_i_docking_score>  (174) 
-2.89525

>  <r_i_glide_ligand_efficiency>  (174) 
-0.0904766

>  <r_i_glide_ligand_efficiency_sa>  (174) 
-0.287245

>  <r_i_glide_ligand_efficiency_ln>  (174) 
-0.648326

>  <r_i_glide_gscore>  (174) 
-2.89525

>  <r_i_glide_lipo>  (174) 
-0.519494

>  <r_i_glide_hbond>  (174) 
-0.191202

>  <r_i_glide_metal>  (174) 
-0

>  <r_i_glide_rewards>  (174) 
-0.447126

>  <r_i_glide_evdw>  (174) 
-30.9333

>  <r_i_glide_ecoul>  (174) 
-4.69549

>  <r_i_glide_erotb>  (174) 
0.522909

>  <r_i_glide_esite>  (174) 
-0.00935317

>  <r_i_glide_emodel>  (174) 
-37.2113

>  <r_i_glide_energy>  (174) 
-35.6288

>  <r_i_glide_einternal>  (174) 
7.04666

>  <r_i_glide_intrahb_reward>  (174) 
-0

>  <i_i_glide_confnum>  (174) 
2

>  <i_i_glide_posenum>  (174) 
14

>  <r_i_glide_eff_state_penalty>  (174) 
0

>  <ligand_id>  (174) 
62

>  <original_smiles>  (174) 
COC(=O)C1=C(C)N(Cc2ccccc2)C2CCC1N2CC1(O)C2CC3CC(C2)CC1C3

>  <smiles>  (174) 
[H]OC1(C([H])([H])N2C3([H])C(C(=O)OC([H])([H])[H])=C(C([H])([H])[H])N(C([H])([H])c4c([H])c([H])c([H])c([H])c4[H])C2([H])C([H])([H])C3([H])[H])C2([H])C([H])([H])C3([H])C([H])([H])C([H])(C2([H])[H])C([H])([H])C1([H])C3([H])[H]

$$$$
62:0:1
     RDKit          3D

 68 73  0  0  1  0  0  0  0  0999 V2000
    6.1976   -2.4285    6.7134 C   0  0  0  0  0  0  0  0  0  0  0  0
    5.4039   -1.8463    5.6988 O   0  0  0  0  0  0  0  0  0  0  0  0
    4.0775   -2.0634    5.5937 C   0  0  0  0  0  0  0  0  0  0  0  0
    3.4130   -2.6291    6.4710 O   0  0  0  0  0  0  0  0  0  0  0  0
    3.5103   -1.5430    4.3238 C   0  0  0  0  0  0  0  0  0  0  0  0
    4.1854   -1.4873    3.1368 C   0  0  0  0  0  0  0  0  0  0  0  0
    5.5202   -2.1512    2.8888 C   0  0  0  0  0  0  0  0  0  0  0  0
    3.5867   -0.8472    2.0397 N   0  0  0  0  0  0  0  0  0  0  0  0
    4.3409   -0.1740    0.9757 C   0  0  0  0  0  0  0  0  0  0  0  0
    4.8771   -1.0714   -0.1436 C   0  0  0  0  0  0  0  0  0  0  0  0
    4.0385   -1.4576   -1.2038 C   0  0  0  0  0  0  0  0  0  0  0  0
    4.5067   -2.3510   -2.1948 C   0  0  0  0  0  0  0  0  0  0  0  0
    5.8032   -2.8862   -2.1022 C   0  0  0  0  0  0  0  0  0  0  0  0
    6.6508   -2.4994   -1.0525 C   0  0  0  0  0  0  0  0  0  0  0  0
    6.2126   -1.5276   -0.1150 C   0  0  0  0  0  0  0  0  0  0  0  0
    2.1719   -0.4424    2.1655 C   0  0  1  0  0  0  0  0  0  0  0  0
    1.2696   -1.6656    2.1886 C   0  0  0  0  0  0  0  0  0  0  0  0
    1.1486   -2.0389    3.6912 C   0  0  0  0  0  0  0  0  0  0  0  0
    2.0785   -1.0133    4.3716 C   0  0  2  0  0  0  0  0  0  0  0  0
    1.9134    0.1312    3.4838 N   0  0  0  0  0  0  0  0  0  0  0  0
    2.6693    1.3414    3.7941 C   0  0  0  0  0  0  0  0  0  0  0  0
    1.9086    2.6672    3.4457 C   0  0  1  0  0  0  0  0  0  0  0  0
    1.5139    2.5463    2.0857 O   0  0  0  0  0  0  0  0  0  0  0  0
    0.6558    2.9428    4.3425 C   0  0  2  0  0  0  0  0  0  0  0  0
   -0.0554    4.2592    3.9102 C   0  0  0  0  0  0  0  0  0  0  0  0
    0.9203    5.4474    4.0361 C   0  0  1  0  0  0  0  0  0  0  0  0
    1.3772    5.5797    5.5049 C   0  0  0  0  0  0  0  0  0  0  0  0
    2.0829    4.2810    5.9423 C   0  0  1  0  0  0  0  0  0  0  0  0
    1.0832    3.1029    5.8274 C   0  0  0  0  0  0  0  0  0  0  0  0
    3.3177    4.0544    5.0355 C   0  0  0  0  0  0  0  0  0  0  0  0
    2.8524    3.8958    3.5672 C   0  0  2  0  0  0  0  0  0  0  0  0
    2.1404    5.2001    3.1298 C   0  0  0  0  0  0  0  0  0  0  0  0
    7.2509   -2.2423    6.5010 H   0  0  0  0  0  0  0  0  0  0  0  0
    6.0731   -3.5085    6.7748 H   0  0  0  0  0  0  0  0  0  0  0  0
    5.9612   -1.9770    7.6719 H   0  0  0  0  0  0  0  0  0  0  0  0
    5.8006   -2.9086    3.6139 H   0  0  0  0  0  0  0  0  0  0  0  0
    6.3036   -1.3934    2.8461 H   0  0  0  0  0  0  0  0  0  0  0  0
    5.4436   -2.7349    1.9799 H   0  0  0  0  0  0  0  0  0  0  0  0
    3.7496    0.6251    0.5239 H   0  0  0  0  0  0  0  0  0  0  0  0
    5.1859    0.3283    1.4331 H   0  0  0  0  0  0  0  0  0  0  0  0
    3.0213   -1.0806   -1.2460 H   0  0  0  0  0  0  0  0  0  0  0  0
    3.8500   -2.6467   -3.0012 H   0  0  0  0  0  0  0  0  0  0  0  0
    6.1501   -3.6208   -2.8199 H   0  0  0  0  0  0  0  0  0  0  0  0
    7.6325   -2.9334   -0.9387 H   0  0  0  0  0  0  0  0  0  0  0  0
    6.8892   -1.2196    0.6565 H   0  0  0  0  0  0  0  0  0  0  0  0
    1.8566    0.2203    1.3640 H   0  0  0  0  0  0  0  0  0  0  0  0
    0.3082   -1.3344    1.8133 H   0  0  0  0  0  0  0  0  0  0  0  0
    1.6524   -2.4670    1.5613 H   0  0  0  0  0  0  0  0  0  0  0  0
    0.1190   -1.8865    4.0283 H   0  0  0  0  0  0  0  0  0  0  0  0
    1.4181   -3.0759    3.8963 H   0  0  0  0  0  0  0  0  0  0  0  0
    1.7774   -0.7859    5.4023 H   0  0  0  0  0  0  0  0  0  0  0  0
    2.9196    1.3102    4.8515 H   0  0  0  0  0  0  0  0  0  0  0  0
    3.6419    1.3204    3.3027 H   0  0  0  0  0  0  0  0  0  0  0  0
    0.9920    3.2952    1.7789 H   0  0  0  0  0  0  0  0  0  0  0  0
   -0.0578    2.1189    4.2559 H   0  0  0  0  0  0  0  0  0  0  0  0
   -0.4347    4.1913    2.8893 H   0  0  0  0  0  0  0  0  0  0  0  0
   -0.9326    4.4345    4.5333 H   0  0  0  0  0  0  0  0  0  0  0  0
    0.4340    6.3683    3.7207 H   0  0  0  0  0  0  0  0  0  0  0  0
    2.0484    6.4315    5.6252 H   0  0  0  0  0  0  0  0  0  0  0  0
    0.5159    5.7628    6.1488 H   0  0  0  0  0  0  0  0  0  0  0  0
    2.4182    4.3797    6.9765 H   0  0  0  0  0  0  0  0  0  0  0  0
    0.2101    3.2892    6.4549 H   0  0  0  0  0  0  0  0  0  0  0  0
    1.5219    2.1912    6.2309 H   0  0  0  0  0  0  0  0  0  0  0  0
    4.0106    4.8920    5.1158 H   0  0  0  0  0  0  0  0  0  0  0  0
    3.8843    3.1878    5.3736 H   0  0  0  0  0  0  0  0  0  0  0  0
    3.7197    3.7540    2.9241 H   0  0  0  0  0  0  0  0  0  0  0  0
    1.8333    5.1388    2.0840 H   0  0  0  0  0  0  0  0  0  0  0  0
    2.8363    6.0382    3.1848 H   0  0  0  0  0  0  0  0  0  0  0  0
  1  2  1  0
  1 33  1  0
  1 34  1  0
  1 35  1  0
  2  3  1  0
  3  4  2  0
  3  5  1  0
  5 19  1  0
  5  6  2  0
  6  7  1  0
  6  8  1  0
  7 36  1  0
  7 37  1  0
  7 38  1  0
  8  9  1  0
  8 16  1  0
  9 10  1  0
  9 39  1  0
  9 40  1  0
 10 15  1  0
 10 11  2  0
 11 12  1  0
 11 41  1  0
 12 13  2  0
 12 42  1  0
 13 14  1  0
 13 43  1  0
 14 15  2  0
 14 44  1  0
 15 45  1  0
 16 20  1  0
 16 17  1  0
 16 46  1  6
 17 18  1  0
 17 47  1  0
 17 48  1  0
 18 19  1  0
 18 49  1  0
 18 50  1  0
 19 20  1  0
 19 51  1  1
 20 21  1  0
 21 22  1  0
 21 52  1  0
 21 53  1  0
 22 31  1  0
 22 23  1  6
 22 24  1  0
 23 54  1  0
 24 29  1  0
 24 25  1  0
 24 55  1  1
 25 26  1  0
 25 56  1  0
 25 57  1  0
 26 32  1  0
 26 27  1  0
 26 58  1  6
 27 28  1  0
 27 59  1  0
 27 60  1  0
 28 29  1  0
 28 30  1  0
 28 61  1  1
 29 62  1  0
 29 63  1  0
 30 31  1  0
 30 64  1  0
 30 65  1  0
 31 32  1  0
 31 66  1  6
 32 67  1  0
 32 68  1  0
M  END
>  <i_m_ct_stereo_status>  (175) 
1

>  <s_m_source_file>  (175) 
/var/tmp/pbs.5076255.sched01/tmpscvaj2_a/3886avry94.sdf

>  <i_m_source_file_index>  (175) 
38

>  <i_lp_mmshare_version>  (175) 
48012

>  <i_f3d_flags>  (175) 
0

>  <s_epik_input>  (175) 
W2NIXTFbY0hdW2NIXVtjSF1bY0hdYzFbQ0gyXU4oW0NAQEhdMjMpQyhbQ0gzXSk9QyhDKD1PKU9bQ0gzXSlbQ0BIXShbQ0gyXVtDSDJdMilOM1tDSDJdW0NAQF0oW09IXSkoW0NAQEhdNDUpW0NASF02W0NIMl1bQ0BASF0oW0NIMl01KVtDSDJdW0NAQEhdKFtDSDJdNClbQ0gyXTY=

>  <s_epik_cmdline>  (175) 
J2VwaWtfcHl0aG9uJywgJy1waHQnLCAnMi4wJywgJy1waCcsICc3LjAnLCAnLXRuJywgJzgnLCAnLW1hJywgJzIwMCcsICctaW1hZScsICc8aW5maWxlLm1hZT4nLCAnLW9tYWUnLCAnPG91dGZpbGUubWFlPic=

>  <r_epik_Ionization_Penalty>  (175) 
0.0211511

>  <r_epik_Ionization_Penalty_Charging>  (175) 
0

>  <r_epik_Ionization_Penalty_Neutral>  (175) 
0.0211511

>  <r_epik_State_Penalty>  (175) 
0.0168986

>  <r_epik_Charging_Adjusted_Penalty>  (175) 
0.0168986

>  <i_epik_Tot_Q>  (175) 
0

>  <i_epik_Tot_abs_Q>  (175) 
0

>  <s_epik_Chemistry_Notes>  (175) 
This compound has an ester and may undergo hydrolysis at high or low pH. This compound contains an acetal/aminal-like group ( X-CH(R)-Y where X, Y are N, S, or O) that may be acid/base labile, releasing an aldehyde.

>  <s_lp_Force_Field>  (175) 
OPLS3e

>  <r_lp_Energy>  (175) 
45.247

>  <b_lp_Chiralities_Consistent>  (175) 
1

>  <s_lp_Variant>  (175) 
62:0-1

>  <s_i_glide_gridfile>  (175) 
pfpi4k_grid

>  <i_i_glide_lignum>  (175) 
38

>  <i_i_glide_rotatable_bonds>  (175) 
7

>  <r_i_docking_score>  (175) 
-2.49945

>  <r_i_glide_ligand_efficiency>  (175) 
-0.0781077

>  <r_i_glide_ligand_efficiency_sa>  (175) 
-0.247977

>  <r_i_glide_ligand_efficiency_ln>  (175) 
-0.559694

>  <r_i_glide_gscore>  (175) 
-2.49945

>  <r_i_glide_lipo>  (175) 
-0.354711

>  <r_i_glide_hbond>  (175) 
-0.16

>  <r_i_glide_metal>  (175) 
-0

>  <r_i_glide_rewards>  (175) 
-0.432366

>  <r_i_glide_evdw>  (175) 
-25.1476

>  <r_i_glide_ecoul>  (175) 
-5.16395

>  <r_i_glide_erotb>  (175) 
0.522909

>  <r_i_glide_esite>  (175) 
-0.0433054

>  <r_i_glide_emodel>  (175) 
-33.1294

>  <r_i_glide_energy>  (175) 
-30.3116

>  <r_i_glide_einternal>  (175) 
2.65334

>  <r_i_glide_intrahb_reward>  (175) 
-0

>  <i_i_glide_confnum>  (175) 
2

>  <i_i_glide_posenum>  (175) 
13

>  <r_i_glide_eff_state_penalty>  (175) 
0

>  <ligand_id>  (175) 
62

>  <original_smiles>  (175) 
COC(=O)C1=C(C)N(Cc2ccccc2)C2CCC1N2CC1(O)C2CC3CC(C2)CC1C3

>  <smiles>  (175) 
[H]OC1(C([H])([H])N2C3([H])C(C(=O)OC([H])([H])[H])=C(C([H])([H])[H])N(C([H])([H])c4c([H])c([H])c([H])c([H])c4[H])C2([H])C([H])([H])C3([H])[H])C2([H])C([H])([H])C3([H])C([H])([H])C([H])(C2([H])[H])C([H])([H])C1([H])C3([H])[H]

$$$$
62:0:2
     RDKit          3D

 68 73  0  0  1  0  0  0  0  0999 V2000
    8.9103   -5.1880    0.3816 C   0  0  0  0  0  0  0  0  0  0  0  0
    7.5423   -4.8295    0.4801 O   0  0  0  0  0  0  0  0  0  0  0  0
    7.1922   -3.5248    0.4961 C   0  0  0  0  0  0  0  0  0  0  0  0
    8.0000   -2.6055    0.3506 O   0  0  0  0  0  0  0  0  0  0  0  0
    5.7429   -3.3380    0.7417 C   0  0  0  0  0  0  0  0  0  0  0  0
    5.2208   -2.3612    1.5377 C   0  0  0  0  0  0  0  0  0  0  0  0
    5.9913   -1.2363    2.2261 C   0  0  0  0  0  0  0  0  0  0  0  0
    3.8382   -2.3458    1.7567 N   0  0  0  0  0  0  0  0  0  0  0  0
    3.2301   -1.8533    2.9907 C   0  0  0  0  0  0  0  0  0  0  0  0
    2.6070   -0.4750    2.8766 C   0  0  0  0  0  0  0  0  0  0  0  0
    1.4595   -0.2864    2.0819 C   0  0  0  0  0  0  0  0  0  0  0  0
    0.9014    0.9921    1.9371 C   0  0  0  0  0  0  0  0  0  0  0  0
    1.4773    2.0861    2.5996 C   0  0  0  0  0  0  0  0  0  0  0  0
    2.6123    1.9051    3.4065 C   0  0  0  0  0  0  0  0  0  0  0  0
    3.1708    0.6231    3.5460 C   0  0  0  0  0  0  0  0  0  0  0  0
    2.9818   -3.2314    0.9461 C   0  0  1  0  0  0  0  0  0  0  0  0
    2.9528   -2.7797   -0.5179 C   0  0  0  0  0  0  0  0  0  0  0  0
    4.1381   -3.5314   -1.1670 C   0  0  0  0  0  0  0  0  0  0  0  0
    4.7694   -4.2868    0.0195 C   0  0  2  0  0  0  0  0  0  0  0  0
    3.5860   -4.5576    0.8345 N   0  0  0  0  0  0  0  0  0  0  0  0
    3.8058   -5.2868    2.0867 C   0  0  0  0  0  0  0  0  0  0  0  0
    2.5541   -6.0327    2.6354 C   0  0  1  0  0  0  0  0  0  0  0  0
    1.5369   -5.0671    2.8192 O   0  0  0  0  0  0  0  0  0  0  0  0
    2.0280   -7.1588    1.6873 C   0  0  2  0  0  0  0  0  0  0  0  0
    0.7431   -7.8077    2.2799 C   0  0  0  0  0  0  0  0  0  0  0  0
    1.0585   -8.4196    3.6582 C   0  0  1  0  0  0  0  0  0  0  0  0
    2.1460   -9.5018    3.4974 C   0  0  0  0  0  0  0  0  0  0  0  0
    3.4254   -8.8649    2.9166 C   0  0  1  0  0  0  0  0  0  0  0  0
    3.1001   -8.2698    1.5261 C   0  0  0  0  0  0  0  0  0  0  0  0
    3.9302   -7.7682    3.8843 C   0  0  0  0  0  0  0  0  0  0  0  0
    2.8462   -6.6701    4.0185 C   0  0  2  0  0  0  0  0  0  0  0  0
    1.5570   -7.3105    4.6052 C   0  0  0  0  0  0  0  0  0  0  0  0
    9.0149   -6.2732    0.3404 H   0  0  0  0  0  0  0  0  0  0  0  0
    9.4535   -4.8175    1.2526 H   0  0  0  0  0  0  0  0  0  0  0  0
    9.3569   -4.7582   -0.5176 H   0  0  0  0  0  0  0  0  0  0  0  0
    6.9446   -1.0041    1.7541 H   0  0  0  0  0  0  0  0  0  0  0  0
    6.1929   -1.4739    3.2721 H   0  0  0  0  0  0  0  0  0  0  0  0
    5.4069   -0.3124    2.1865 H   0  0  0  0  0  0  0  0  0  0  0  0
    2.4734   -2.5445    3.3480 H   0  0  0  0  0  0  0  0  0  0  0  0
    3.9766   -1.8374    3.7794 H   0  0  0  0  0  0  0  0  0  0  0  0
    1.0250   -1.1231    1.5663 H   0  0  0  0  0  0  0  0  0  0  0  0
    0.0409    1.1328    1.2954 H   0  0  0  0  0  0  0  0  0  0  0  0
    1.0571    3.0755    2.4774 H   0  0  0  0  0  0  0  0  0  0  0  0
    3.0629    2.7490    3.9050 H   0  0  0  0  0  0  0  0  0  0  0  0
    4.0495    0.4900    4.1617 H   0  0  0  0  0  0  0  0  0  0  0  0
    1.9646   -3.2821    1.3293 H   0  0  0  0  0  0  0  0  0  0  0  0
    2.0194   -3.1001   -0.9797 H   0  0  0  0  0  0  0  0  0  0  0  0
    3.0226   -1.6961   -0.6035 H   0  0  0  0  0  0  0  0  0  0  0  0
    3.7787   -4.2526   -1.8951 H   0  0  0  0  0  0  0  0  0  0  0  0
    4.8296   -2.8487   -1.6662 H   0  0  0  0  0  0  0  0  0  0  0  0
    5.2509   -5.2118   -0.3090 H   0  0  0  0  0  0  0  0  0  0  0  0
    4.6051   -6.0004    1.8943 H   0  0  0  0  0  0  0  0  0  0  0  0
    4.2413   -4.6227    2.8416 H   0  0  0  0  0  0  0  0  0  0  0  0
    1.8778   -4.3775    3.3796 H   0  0  0  0  0  0  0  0  0  0  0  0
    1.7851   -6.7431    0.7061 H   0  0  0  0  0  0  0  0  0  0  0  0
   -0.0656   -7.0803    2.3620 H   0  0  0  0  0  0  0  0  0  0  0  0
    0.3635   -8.5918    1.6246 H   0  0  0  0  0  0  0  0  0  0  0  0
    0.1594   -8.8674    4.0730 H   0  0  0  0  0  0  0  0  0  0  0  0
    2.3610   -9.9720    4.4571 H   0  0  0  0  0  0  0  0  0  0  0  0
    1.7905  -10.2892    2.8325 H   0  0  0  0  0  0  0  0  0  0  0  0
    4.1943   -9.6309    2.8122 H   0  0  0  0  0  0  0  0  0  0  0  0
    2.7331   -9.0669    0.8743 H   0  0  0  0  0  0  0  0  0  0  0  0
    4.0023   -7.8874    1.0485 H   0  0  0  0  0  0  0  0  0  0  0  0
    4.1393   -8.1970    4.8669 H   0  0  0  0  0  0  0  0  0  0  0  0
    4.8766   -7.3566    3.5329 H   0  0  0  0  0  0  0  0  0  0  0  0
    3.2009   -5.8950    4.7011 H   0  0  0  0  0  0  0  0  0  0  0  0
    0.7742   -6.5636    4.7455 H   0  0  0  0  0  0  0  0  0  0  0  0
    1.7585   -7.7126    5.5995 H   0  0  0  0  0  0  0  0  0  0  0  0
  1  2  1  0
  1 33  1  0
  1 34  1  0
  1 35  1  0
  2  3  1  0
  3  4  2  0
  3  5  1  0
  5 19  1  0
  5  6  2  0
  6  7  1  0
  6  8  1  0
  7 36  1  0
  7 37  1  0
  7 38  1  0
  8  9  1  0
  8 16  1  0
  9 10  1  0
  9 39  1  0
  9 40  1  0
 10 15  1  0
 10 11  2  0
 11 12  1  0
 11 41  1  0
 12 13  2  0
 12 42  1  0
 13 14  1  0
 13 43  1  0
 14 15  2  0
 14 44  1  0
 15 45  1  0
 16 20  1  0
 16 17  1  0
 16 46  1  1
 17 18  1  0
 17 47  1  0
 17 48  1  0
 18 19  1  0
 18 49  1  0
 18 50  1  0
 19 20  1  0
 19 51  1  6
 20 21  1  0
 21 22  1  0
 21 52  1  0
 21 53  1  0
 22 31  1  0
 22 23  1  1
 22 24  1  0
 23 54  1  0
 24 29  1  0
 24 25  1  0
 24 55  1  6
 25 26  1  0
 25 56  1  0
 25 57  1  0
 26 32  1  0
 26 27  1  0
 26 58  1  1
 27 28  1  0
 27 59  1  0
 27 60  1  0
 28 29  1  0
 28 30  1  0
 28 61  1  6
 29 62  1  0
 29 63  1  0
 30 31  1  0
 30 64  1  0
 30 65  1  0
 31 32  1  0
 31 66  1  1
 32 67  1  0
 32 68  1  0
M  END
>  <i_m_ct_stereo_status>  (176) 
1

>  <s_m_source_file>  (176) 
/var/tmp/pbs.5076255.sched01/tmpscvaj2_a/3886avry94.sdf

>  <i_m_source_file_index>  (176) 
38

>  <i_lp_mmshare_version>  (176) 
48012

>  <i_f3d_flags>  (176) 
0

>  <s_epik_input>  (176) 
W2NIXTFbY0hdW2NIXVtjSF1bY0hdYzFbQ0gyXU4oW0NAQEhdMjMpQyhbQ0gzXSk9QyhDKD1PKU9bQ0gzXSlbQ0BIXShbQ0gyXVtDSDJdMilOM1tDSDJdW0NAQF0oW09IXSkoW0NAQEhdNDUpW0NASF02W0NIMl1bQ0BASF0oW0NIMl01KVtDSDJdW0NAQEhdKFtDSDJdNClbQ0gyXTY=

>  <s_epik_cmdline>  (176) 
J2VwaWtfcHl0aG9uJywgJy1waHQnLCAnMi4wJywgJy1waCcsICc3LjAnLCAnLXRuJywgJzgnLCAnLW1hJywgJzIwMCcsICctaW1hZScsICc8aW5maWxlLm1hZT4nLCAnLW9tYWUnLCAnPG91dGZpbGUubWFlPic=

>  <r_epik_Ionization_Penalty>  (176) 
0.0211511

>  <r_epik_Ionization_Penalty_Charging>  (176) 
0

>  <r_epik_Ionization_Penalty_Neutral>  (176) 
0.0211511

>  <r_epik_State_Penalty>  (176) 
0.0168986

>  <r_epik_Charging_Adjusted_Penalty>  (176) 
0.0168986

>  <i_epik_Tot_Q>  (176) 
0

>  <i_epik_Tot_abs_Q>  (176) 
0

>  <s_epik_Chemistry_Notes>  (176) 
This compound has an ester and may undergo hydrolysis at high or low pH. This compound contains an acetal/aminal-like group ( X-CH(R)-Y where X, Y are N, S, or O) that may be acid/base labile, releasing an aldehyde.

>  <s_lp_Force_Field>  (176) 
OPLS3e

>  <r_lp_Energy>  (176) 
45.247

>  <b_lp_Chiralities_Consistent>  (176) 
1

>  <s_lp_Variant>  (176) 
62:0-1

>  <s_i_glide_gridfile>  (176) 
pfpi4k_grid

>  <i_i_glide_lignum>  (176) 
38

>  <i_i_glide_rotatable_bonds>  (176) 
7

>  <r_i_docking_score>  (176) 
-2.07669

>  <r_i_glide_ligand_efficiency>  (176) 
-0.0648965

>  <r_i_glide_ligand_efficiency_sa>  (176) 
-0.206034

>  <r_i_glide_ligand_efficiency_ln>  (176) 
-0.465027

>  <r_i_glide_gscore>  (176) 
-2.07669

>  <r_i_glide_lipo>  (176) 
-0.286786

>  <r_i_glide_hbond>  (176) 
0

>  <r_i_glide_metal>  (176) 
-0

>  <r_i_glide_rewards>  (176) 
-0.615242

>  <r_i_glide_evdw>  (176) 
-28.4149

>  <r_i_glide_ecoul>  (176) 
-1.7495

>  <r_i_glide_erotb>  (176) 
0.522909

>  <r_i_glide_esite>  (176) 
-0.0143991

>  <r_i_glide_emodel>  (176) 
-31.983

>  <r_i_glide_energy>  (176) 
-30.1644

>  <r_i_glide_einternal>  (176) 
3.94615

>  <r_i_glide_intrahb_reward>  (176) 
-0

>  <i_i_glide_confnum>  (176) 
2

>  <i_i_glide_posenum>  (176) 
3

>  <r_i_glide_eff_state_penalty>  (176) 
0

>  <ligand_id>  (176) 
62

>  <original_smiles>  (176) 
COC(=O)C1=C(C)N(Cc2ccccc2)C2CCC1N2CC1(O)C2CC3CC(C2)CC1C3

>  <smiles>  (176) 
[H]OC1(C([H])([H])N2C3([H])C(C(=O)OC([H])([H])[H])=C(C([H])([H])[H])N(C([H])([H])c4c([H])c([H])c([H])c([H])c4[H])C2([H])C([H])([H])C3([H])[H])C2([H])C([H])([H])C3([H])C([H])([H])C([H])(C2([H])[H])C([H])([H])C1([H])C3([H])[H]

$$$$
62:1:0
     RDKit          3D

 69 74  0  0  1  0  0  0  0  0999 V2000
    7.9072   -6.2129    5.5519 C   0  0  0  0  0  0  0  0  0  0  0  0
    6.8487   -5.9014    4.6631 O   0  0  0  0  0  0  0  0  0  0  0  0
    5.9103   -4.9780    4.9991 C   0  0  0  0  0  0  0  0  0  0  0  0
    5.9790   -4.2295    5.9837 O   0  0  0  0  0  0  0  0  0  0  0  0
    4.7928   -4.9780    4.0394 C   0  0  0  0  0  0  0  0  0  0  0  0
    4.3067   -6.0705    3.3796 C   0  0  0  0  0  0  0  0  0  0  0  0
    4.8123   -7.5344    3.4588 C   0  0  0  0  0  0  0  0  0  0  0  0
    3.2089   -5.8847    2.5250 N   0  0  0  0  0  0  0  0  0  0  0  0
    2.4146   -6.9335    1.8826 C   0  0  0  0  0  0  0  0  0  0  0  0
    1.1304   -7.2775    2.6260 C   0  0  0  0  0  0  0  0  0  0  0  0
   -0.0342   -7.6276    1.9051 C   0  0  0  0  0  0  0  0  0  0  0  0
   -1.2259   -7.9086    2.5980 C   0  0  0  0  0  0  0  0  0  0  0  0
   -1.2715   -7.8222    4.0000 C   0  0  0  0  0  0  0  0  0  0  0  0
   -0.1087   -7.4791    4.7185 C   0  0  0  0  0  0  0  0  0  0  0  0
    1.0942   -7.2465    4.0324 C   0  0  0  0  0  0  0  0  0  0  0  0
    2.6541   -4.5450    2.3125 C   0  0  1  0  0  0  0  0  0  0  0  0
    1.8408   -4.0127    3.4979 C   0  0  0  0  0  0  0  0  0  0  0  0
    2.8704   -3.3535    4.4331 C   0  0  0  0  0  0  0  0  0  0  0  0
    4.2125   -3.5838    3.7469 C   0  0  2  0  0  0  0  0  0  0  0  0
    3.7881   -3.5668    2.3048 N   0  0  1  0  0  0  0  0  0  0  0  0
    4.8946   -3.6885    1.2863 C   0  0  0  0  0  0  0  0  0  0  0  0
    4.3777   -3.7801   -0.1598 C   0  0  1  0  0  0  0  0  0  0  0  0
    3.9788   -5.1286   -0.2610 O   0  0  0  0  0  0  0  0  0  0  0  0
    3.1978   -2.8148   -0.5070 C   0  0  2  0  0  0  0  0  0  0  0  0
    2.6734   -3.0603   -1.9505 C   0  0  0  0  0  0  0  0  0  0  0  0
    3.7973   -2.7814   -2.9608 C   0  0  1  0  0  0  0  0  0  0  0  0
    4.2355   -1.3169   -2.7898 C   0  0  0  0  0  0  0  0  0  0  0  0
    4.8208   -1.1157   -1.3781 C   0  0  1  0  0  0  0  0  0  0  0  0
    3.7102   -1.3671   -0.3518 C   0  0  0  0  0  0  0  0  0  0  0  0
    6.0116   -2.0645   -1.1375 C   0  0  0  0  0  0  0  0  0  0  0  0
    5.5023   -3.5191   -1.2138 C   0  0  2  0  0  0  0  0  0  0  0  0
    4.9803   -3.7253   -2.6721 C   0  0  0  0  0  0  0  0  0  0  0  0
    8.4191   -7.0816    5.1544 H   0  0  0  0  0  0  0  0  0  0  0  0
    7.5664   -6.4829    6.5611 H   0  0  0  0  0  0  0  0  0  0  0  0
    8.6429   -5.3947    5.6272 H   0  0  0  0  0  0  0  0  0  0  0  0
    5.8118   -7.6863    3.8628 H   0  0  0  0  0  0  0  0  0  0  0  0
    4.8476   -7.9667    2.4529 H   0  0  0  0  0  0  0  0  0  0  0  0
    4.1006   -8.1150    4.0600 H   0  0  0  0  0  0  0  0  0  0  0  0
    2.1807   -6.6549    0.8495 H   0  0  0  0  0  0  0  0  0  0  0  0
    2.9629   -7.8570    1.7806 H   0  0  0  0  0  0  0  0  0  0  0  0
   -0.0026   -7.7044    0.8264 H   0  0  0  0  0  0  0  0  0  0  0  0
   -2.1119   -8.2134    2.0547 H   0  0  0  0  0  0  0  0  0  0  0  0
   -2.1880   -8.0432    4.5316 H   0  0  0  0  0  0  0  0  0  0  0  0
   -0.1301   -7.3831    5.7967 H   0  0  0  0  0  0  0  0  0  0  0  0
    1.9727   -6.9765    4.5998 H   0  0  0  0  0  0  0  0  0  0  0  0
    2.0565   -4.5376    1.4108 H   0  0  0  0  0  0  0  0  0  0  0  0
    1.1064   -3.2800    3.1650 H   0  0  0  0  0  0  0  0  0  0  0  0
    1.2788   -4.7779    4.0275 H   0  0  0  0  0  0  0  0  0  0  0  0
    2.6361   -2.2856    4.5211 H   0  0  0  0  0  0  0  0  0  0  0  0
    2.8618   -3.7835    5.4399 H   0  0  0  0  0  0  0  0  0  0  0  0
    4.9209   -2.7790    3.9358 H   0  0  0  0  0  0  0  0  0  0  0  0
    5.4524   -2.7923    1.4814 H   0  0  0  0  0  0  0  0  0  0  0  0
    5.5763   -4.5058    1.5200 H   0  0  0  0  0  0  0  0  0  0  0  0
    3.6998   -5.3014   -1.1728 H   0  0  0  0  0  0  0  0  0  0  0  0
    2.3205   -2.9184    0.1299 H   0  0  0  0  0  0  0  0  0  0  0  0
    2.2701   -4.0593   -2.0535 H   0  0  0  0  0  0  0  0  0  0  0  0
    1.8350   -2.3988   -2.1640 H   0  0  0  0  0  0  0  0  0  0  0  0
    3.4232   -2.9366   -3.9665 H   0  0  0  0  0  0  0  0  0  0  0  0
    4.9484   -1.0650   -3.5624 H   0  0  0  0  0  0  0  0  0  0  0  0
    3.4010   -0.6365   -2.9514 H   0  0  0  0  0  0  0  0  0  0  0  0
    5.1544   -0.0947   -1.2673 H   0  0  0  0  0  0  0  0  0  0  0  0
    2.8979   -0.6657   -0.5034 H   0  0  0  0  0  0  0  0  0  0  0  0
    4.0487   -1.1626    0.6645 H   0  0  0  0  0  0  0  0  0  0  0  0
    6.7903   -1.8923   -1.8819 H   0  0  0  0  0  0  0  0  0  0  0  0
    6.4874   -1.8383   -0.1763 H   0  0  0  0  0  0  0  0  0  0  0  0
    6.3392   -4.2036   -1.0402 H   0  0  0  0  0  0  0  0  0  0  0  0
    4.6544   -4.7511   -2.8235 H   0  0  0  0  0  0  0  0  0  0  0  0
    5.7808   -3.5777   -3.4042 H   0  0  0  0  0  0  0  0  0  0  0  0
    3.3655   -2.6662    2.1346 H   0  0  0  0  0  0  0  0  0  0  0  0
  1  2  1  0
  1 33  1  0
  1 34  1  0
  1 35  1  0
  2  3  1  0
  3  4  2  0
  3  5  1  0
  5 19  1  0
  5  6  2  0
  6  7  1  0
  6  8  1  0
  7 36  1  0
  7 37  1  0
  7 38  1  0
  8  9  1  0
  8 16  1  0
  9 10  1  0
  9 39  1  0
  9 40  1  0
 10 15  1  0
 10 11  2  0
 11 12  1  0
 11 41  1  0
 12 13  2  0
 12 42  1  0
 13 14  1  0
 13 43  1  0
 14 15  2  0
 14 44  1  0
 15 45  1  0
 16 20  1  0
 16 17  1  0
 16 46  1  6
 17 18  1  0
 17 47  1  0
 17 48  1  0
 18 19  1  0
 18 49  1  0
 18 50  1  0
 19 20  1  0
 19 51  1  6
 20 21  1  0
 20 69  1  6
 21 22  1  0
 21 52  1  0
 21 53  1  0
 22 31  1  0
 22 23  1  6
 22 24  1  0
 23 54  1  0
 24 29  1  0
 24 25  1  0
 24 55  1  1
 25 26  1  0
 25 56  1  0
 25 57  1  0
 26 32  1  0
 26 27  1  0
 26 58  1  6
 27 28  1  0
 27 59  1  0
 27 60  1  0
 28 29  1  0
 28 30  1  0
 28 61  1  6
 29 62  1  0
 29 63  1  0
 30 31  1  0
 30 64  1  0
 30 65  1  0
 31 32  1  0
 31 66  1  1
 32 67  1  0
 32 68  1  0
M  CHG  1  20   1
M  END
>  <i_m_ct_stereo_status>  (177) 
1

>  <s_m_source_file>  (177) 
/var/tmp/pbs.5076255.sched01/tmpzygr1bk5/76dkit4mfj.sdf

>  <i_m_source_file_index>  (177) 
1

>  <i_lp_mmshare_version>  (177) 
48012

>  <i_f3d_flags>  (177) 
0

>  <s_epik_input>  (177) 
W2NIXTFbY0hdW2NIXVtjSF1bY0hdYzFbQ0gyXU4oW0NAQEhdMjMpQyhbQ0gzXSk9QyhDKD1PKU9bQ0gzXSlbQ0BIXShbQ0gyXVtDSDJdMilOM1tDSDJdW0NAQF0oW09IXSkoW0NAQEhdNDUpW0NASF02W0NIMl1bQ0BASF0oW0NIMl01KVtDSDJdW0NAQEhdKFtDSDJdNClbQ0gyXTY=

>  <s_epik_cmdline>  (177) 
J2VwaWtfcHl0aG9uJywgJy1waHQnLCAnMi4wJywgJy1waCcsICc3LjAnLCAnLXRuJywgJzgnLCAnLW1hJywgJzIwMCcsICctaW1hZScsICc8aW5maWxlLm1hZT4nLCAnLW9tYWUnLCAnPG91dGZpbGUubWFlPic=

>  <r_epik_Ionization_Penalty>  (177) 
1.98815

>  <r_epik_Ionization_Penalty_Charging>  (177) 
1.98815

>  <r_epik_Ionization_Penalty_Neutral>  (177) 
6.27441e-08

>  <r_epik_State_Penalty>  (177) 
2.11596

>  <r_epik_Charging_Adjusted_Penalty>  (177) 
4.10411

>  <i_epik_Tot_Q>  (177) 
1

>  <i_epik_Tot_abs_Q>  (177) 
1

>  <s_epik_Chemistry_Notes>  (177) 
This compound has an ester and may undergo hydrolysis at high or low pH. This compound contains an acetal/aminal-like group ( X-CH(R)-Y where X, Y are N, S, or O) that may be acid/base labile, releasing an aldehyde.

>  <s_lp_Force_Field>  (177) 
OPLS3e

>  <r_lp_Energy>  (177) 
47.4162

>  <b_lp_Chiralities_Consistent>  (177) 
1

>  <s_lp_Variant>  (177) 
62:0-2

>  <s_i_glide_gridfile>  (177) 
pfpi4k_grid

>  <i_i_glide_lignum>  (177) 
1

>  <i_i_glide_rotatable_bonds>  (177) 
7

>  <r_i_docking_score>  (177) 
-2.95895

>  <r_i_glide_ligand_efficiency>  (177) 
-0.0924672

>  <r_i_glide_ligand_efficiency_sa>  (177) 
-0.293565

>  <r_i_glide_ligand_efficiency_ln>  (177) 
-0.66259

>  <r_i_glide_gscore>  (177) 
-2.95895

>  <r_i_glide_lipo>  (177) 
-0.249255

>  <r_i_glide_hbond>  (177) 
-0.32

>  <r_i_glide_metal>  (177) 
-0

>  <r_i_glide_rewards>  (177) 
-0.427855

>  <r_i_glide_evdw>  (177) 
-31.0525

>  <r_i_glide_ecoul>  (177) 
-6.15678

>  <r_i_glide_erotb>  (177) 
0.520727

>  <r_i_glide_esite>  (177) 
-0.00642516

>  <r_i_glide_emodel>  (177) 
-41.3296

>  <r_i_glide_energy>  (177) 
-37.2093

>  <r_i_glide_einternal>  (177) 
3.64695

>  <r_i_glide_intrahb_reward>  (177) 
-0

>  <i_i_glide_confnum>  (177) 
2

>  <i_i_glide_posenum>  (177) 
3

>  <r_i_glide_eff_state_penalty>  (177) 
0

>  <ligand_id>  (177) 
62

>  <original_smiles>  (177) 
COC(=O)C1=C(C)N(Cc2ccccc2)C2CCC1N2CC1(O)C2CC3CC(C2)CC1C3

>  <smiles>  (177) 
[H]OC1(C([H])([H])[N+]2([H])C3([H])C(C(=O)OC([H])([H])[H])=C(C([H])([H])[H])N(C([H])([H])c4c([H])c([H])c([H])c([H])c4[H])C2([H])C([H])([H])C3([H])[H])C2([H])C([H])([H])C3([H])C([H])([H])C([H])(C2([H])[H])C([H])([H])C1([H])C3([H])[H]

$$$$
62:1:1
     RDKit          3D

 69 74  0  0  1  0  0  0  0  0999 V2000
    5.6863   -1.0509    8.3842 C   0  0  0  0  0  0  0  0  0  0  0  0
    5.0528   -0.7138    7.1689 O   0  0  0  0  0  0  0  0  0  0  0  0
    3.7246   -0.9465    7.0866 C   0  0  0  0  0  0  0  0  0  0  0  0
    3.0871   -1.4093    8.0316 O   0  0  0  0  0  0  0  0  0  0  0  0
    3.1182   -0.5365    5.7804 C   0  0  0  0  0  0  0  0  0  0  0  0
    1.8287   -0.8321    5.4039 C   0  0  0  0  0  0  0  0  0  0  0  0
    0.8566   -1.7932    6.1380 C   0  0  0  0  0  0  0  0  0  0  0  0
    1.3686   -0.2578    4.1784 N   0  0  0  0  0  0  0  0  0  0  0  0
   -0.0114   -0.2002    3.6828 C   0  0  0  0  0  0  0  0  0  0  0  0
   -0.8681    0.9409    4.2573 C   0  0  0  0  0  0  0  0  0  0  0  0
   -1.3865    1.9344    3.3859 C   0  0  0  0  0  0  0  0  0  0  0  0
   -2.1722    2.9935    3.9249 C   0  0  0  0  0  0  0  0  0  0  0  0
   -2.4285    3.0697    5.3269 C   0  0  0  0  0  0  0  0  0  0  0  0
   -1.9061    2.0720    6.1671 C   0  0  0  0  0  0  0  0  0  0  0  0
   -1.1481    1.0102    5.6556 C   0  0  0  0  0  0  0  0  0  0  0  0
    2.2939    0.5168    3.3160 C   0  0  1  0  0  0  0  0  0  0  0  0
    2.5431    1.9281    3.8854 C   0  0  0  0  0  0  0  0  0  0  0  0
    3.7332    1.7511    4.8509 C   0  0  0  0  0  0  0  0  0  0  0  0
    4.0283    0.2490    4.8002 C   0  0  2  0  0  0  0  0  0  0  0  0
    3.6387   -0.0854    3.4085 N   0  0  1  0  0  0  0  0  0  0  0  0
    3.8201   -1.5137    3.0044 C   0  0  0  0  0  0  0  0  0  0  0  0
    3.6069   -1.7732    1.4759 C   0  0  1  0  0  0  0  0  0  0  0  0
    2.2090   -1.6361    1.3073 O   0  0  0  0  0  0  0  0  0  0  0  0
    4.4141   -0.7996    0.5530 C   0  0  2  0  0  0  0  0  0  0  0  0
    4.0810   -1.0575   -0.9385 C   0  0  0  0  0  0  0  0  0  0  0  0
    4.4303   -2.5100   -1.3158 C   0  0  1  0  0  0  0  0  0  0  0  0
    5.9391   -2.7431   -1.0965 C   0  0  0  0  0  0  0  0  0  0  0  0
    6.2827   -2.5103    0.3873 C   0  0  1  0  0  0  0  0  0  0  0  0
    5.9387   -1.0440    0.7587 C   0  0  0  0  0  0  0  0  0  0  0  0
    5.4741   -3.5101    1.2468 C   0  0  0  0  0  0  0  0  0  0  0  0
    3.9614   -3.2350    1.0562 C   0  0  2  0  0  0  0  0  0  0  0  0
    3.6113   -3.4713   -0.4353 C   0  0  0  0  0  0  0  0  0  0  0  0
    6.7276   -0.7617    8.3263 H   0  0  0  0  0  0  0  0  0  0  0  0
    5.6076   -2.1250    8.5533 H   0  0  0  0  0  0  0  0  0  0  0  0
    5.2125   -0.5396    9.2260 H   0  0  0  0  0  0  0  0  0  0  0  0
    1.3898   -2.5815    6.6906 H   0  0  0  0  0  0  0  0  0  0  0  0
    0.2397   -2.3477    5.4062 H   0  0  0  0  0  0  0  0  0  0  0  0
    0.2671   -1.3034    6.9007 H   0  0  0  0  0  0  0  0  0  0  0  0
   -0.0175   -0.1689    2.5878 H   0  0  0  0  0  0  0  0  0  0  0  0
   -0.4838   -1.1490    3.9015 H   0  0  0  0  0  0  0  0  0  0  0  0
   -1.2005    1.8815    2.3105 H   0  0  0  0  0  0  0  0  0  0  0  0
   -2.5786    3.7452    3.2668 H   0  0  0  0  0  0  0  0  0  0  0  0
   -3.0291    3.8556    5.7685 H   0  0  0  0  0  0  0  0  0  0  0  0
   -2.0654    2.0867    7.2348 H   0  0  0  0  0  0  0  0  0  0  0  0
   -0.8034    0.3022    6.3847 H   0  0  0  0  0  0  0  0  0  0  0  0
    1.9570    0.6126    2.2725 H   0  0  0  0  0  0  0  0  0  0  0  0
    2.8234    2.6252    3.0875 H   0  0  0  0  0  0  0  0  0  0  0  0
    1.6501    2.3155    4.3824 H   0  0  0  0  0  0  0  0  0  0  0  0
    4.5965    2.3135    4.4840 H   0  0  0  0  0  0  0  0  0  0  0  0
    3.5236    2.0881    5.8681 H   0  0  0  0  0  0  0  0  0  0  0  0
    5.0954    0.0448    4.9108 H   0  0  0  0  0  0  0  0  0  0  0  0
    4.8403   -1.7229    3.3115 H   0  0  0  0  0  0  0  0  0  0  0  0
    3.2184   -2.2108    3.5977 H   0  0  0  0  0  0  0  0  0  0  0  0
    1.9792   -1.4680    0.3928 H   0  0  0  0  0  0  0  0  0  0  0  0
    4.1756    0.2477    0.7610 H   0  0  0  0  0  0  0  0  0  0  0  0
    3.0274   -0.8799   -1.1455 H   0  0  0  0  0  0  0  0  0  0  0  0
    4.6274   -0.3583   -1.5680 H   0  0  0  0  0  0  0  0  0  0  0  0
    4.1866   -2.6827   -2.3646 H   0  0  0  0  0  0  0  0  0  0  0  0
    6.2194   -3.7545   -1.3945 H   0  0  0  0  0  0  0  0  0  0  0  0
    6.5117   -2.0593   -1.7220 H   0  0  0  0  0  0  0  0  0  0  0  0
    7.3449   -2.6884    0.5488 H   0  0  0  0  0  0  0  0  0  0  0  0
    6.5088   -0.3413    0.1472 H   0  0  0  0  0  0  0  0  0  0  0  0
    6.2593   -0.8271    1.7792 H   0  0  0  0  0  0  0  0  0  0  0  0
    5.7027   -4.5375    0.9608 H   0  0  0  0  0  0  0  0  0  0  0  0
    5.7773   -3.4534    2.2929 H   0  0  0  0  0  0  0  0  0  0  0  0
    3.3885   -3.9313    1.6682 H   0  0  0  0  0  0  0  0  0  0  0  0
    2.5490   -3.3309   -0.6279 H   0  0  0  0  0  0  0  0  0  0  0  0
    3.8178   -4.5004   -0.7114 H   0  0  0  0  0  0  0  0  0  0  0  0
    4.2328    0.4640    2.8018 H   0  0  0  0  0  0  0  0  0  0  0  0
  1  2  1  0
  1 33  1  0
  1 34  1  0
  1 35  1  0
  2  3  1  0
  3  4  2  0
  3  5  1  0
  5 19  1  0
  5  6  2  0
  6  7  1  0
  6  8  1  0
  7 36  1  0
  7 37  1  0
  7 38  1  0
  8  9  1  0
  8 16  1  0
  9 10  1  0
  9 39  1  0
  9 40  1  0
 10 15  1  0
 10 11  2  0
 11 12  1  0
 11 41  1  0
 12 13  2  0
 12 42  1  0
 13 14  1  0
 13 43  1  0
 14 15  2  0
 14 44  1  0
 15 45  1  0
 16 20  1  0
 16 17  1  0
 16 46  1  6
 17 18  1  0
 17 47  1  0
 17 48  1  0
 18 19  1  0
 18 49  1  0
 18 50  1  0
 19 20  1  0
 19 51  1  6
 20 21  1  0
 20 69  1  6
 21 22  1  0
 21 52  1  0
 21 53  1  0
 22 31  1  0
 22 23  1  6
 22 24  1  0
 23 54  1  0
 24 29  1  0
 24 25  1  0
 24 55  1  1
 25 26  1  0
 25 56  1  0
 25 57  1  0
 26 32  1  0
 26 27  1  0
 26 58  1  6
 27 28  1  0
 27 59  1  0
 27 60  1  0
 28 29  1  0
 28 30  1  0
 28 61  1  6
 29 62  1  0
 29 63  1  0
 30 31  1  0
 30 64  1  0
 30 65  1  0
 31 32  1  0
 31 66  1  1
 32 67  1  0
 32 68  1  0
M  CHG  1  20   1
M  END
>  <i_m_ct_stereo_status>  (178) 
1

>  <s_m_source_file>  (178) 
/var/tmp/pbs.5076255.sched01/tmpzygr1bk5/76dkit4mfj.sdf

>  <i_m_source_file_index>  (178) 
1

>  <i_lp_mmshare_version>  (178) 
48012

>  <i_f3d_flags>  (178) 
0

>  <s_epik_input>  (178) 
W2NIXTFbY0hdW2NIXVtjSF1bY0hdYzFbQ0gyXU4oW0NAQEhdMjMpQyhbQ0gzXSk9QyhDKD1PKU9bQ0gzXSlbQ0BIXShbQ0gyXVtDSDJdMilOM1tDSDJdW0NAQF0oW09IXSkoW0NAQEhdNDUpW0NASF02W0NIMl1bQ0BASF0oW0NIMl01KVtDSDJdW0NAQEhdKFtDSDJdNClbQ0gyXTY=

>  <s_epik_cmdline>  (178) 
J2VwaWtfcHl0aG9uJywgJy1waHQnLCAnMi4wJywgJy1waCcsICc3LjAnLCAnLXRuJywgJzgnLCAnLW1hJywgJzIwMCcsICctaW1hZScsICc8aW5maWxlLm1hZT4nLCAnLW9tYWUnLCAnPG91dGZpbGUubWFlPic=

>  <r_epik_Ionization_Penalty>  (178) 
1.98815

>  <r_epik_Ionization_Penalty_Charging>  (178) 
1.98815

>  <r_epik_Ionization_Penalty_Neutral>  (178) 
6.27441e-08

>  <r_epik_State_Penalty>  (178) 
2.11596

>  <r_epik_Charging_Adjusted_Penalty>  (178) 
4.10411

>  <i_epik_Tot_Q>  (178) 
1

>  <i_epik_Tot_abs_Q>  (178) 
1

>  <s_epik_Chemistry_Notes>  (178) 
This compound has an ester and may undergo hydrolysis at high or low pH. This compound contains an acetal/aminal-like group ( X-CH(R)-Y where X, Y are N, S, or O) that may be acid/base labile, releasing an aldehyde.

>  <s_lp_Force_Field>  (178) 
OPLS3e

>  <r_lp_Energy>  (178) 
47.4162

>  <b_lp_Chiralities_Consistent>  (178) 
1

>  <s_lp_Variant>  (178) 
62:0-2

>  <s_i_glide_gridfile>  (178) 
pfpi4k_grid

>  <i_i_glide_lignum>  (178) 
1

>  <i_i_glide_rotatable_bonds>  (178) 
7

>  <r_i_docking_score>  (178) 
-2.62055

>  <r_i_glide_ligand_efficiency>  (178) 
-0.081892

>  <r_i_glide_ligand_efficiency_sa>  (178) 
-0.259991

>  <r_i_glide_ligand_efficiency_ln>  (178) 
-0.586812

>  <r_i_glide_gscore>  (178) 
-2.62055

>  <r_i_glide_lipo>  (178) 
-0.364967

>  <r_i_glide_hbond>  (178) 
-0.15132

>  <r_i_glide_metal>  (178) 
-0

>  <r_i_glide_rewards>  (178) 
-0.425494

>  <r_i_glide_evdw>  (178) 
-30.1276

>  <r_i_glide_ecoul>  (178) 
-4.57811

>  <r_i_glide_erotb>  (178) 
0.520727

>  <r_i_glide_esite>  (178) 
-0.00639181

>  <r_i_glide_emodel>  (178) 
-39.9827

>  <r_i_glide_energy>  (178) 
-34.7057

>  <r_i_glide_einternal>  (178) 
0.575013

>  <r_i_glide_intrahb_reward>  (178) 
-0

>  <i_i_glide_confnum>  (178) 
5

>  <i_i_glide_posenum>  (178) 
14

>  <r_i_glide_eff_state_penalty>  (178) 
0

>  <ligand_id>  (178) 
62

>  <original_smiles>  (178) 
COC(=O)C1=C(C)N(Cc2ccccc2)C2CCC1N2CC1(O)C2CC3CC(C2)CC1C3

>  <smiles>  (178) 
[H]OC1(C([H])([H])[N+]2([H])C3([H])C(C(=O)OC([H])([H])[H])=C(C([H])([H])[H])N(C([H])([H])c4c([H])c([H])c([H])c([H])c4[H])C2([H])C([H])([H])C3([H])[H])C2([H])C([H])([H])C3([H])C([H])([H])C([H])(C2([H])[H])C([H])([H])C1([H])C3([H])[H]

$$$$
62:1:2
     RDKit          3D

 69 74  0  0  1  0  0  0  0  0999 V2000
    3.0199   -1.4316    9.3311 C   0  0  0  0  0  0  0  0  0  0  0  0
    2.7581   -0.8926    8.0479 O   0  0  0  0  0  0  0  0  0  0  0  0
    3.6804   -0.9196    7.0697 C   0  0  0  0  0  0  0  0  0  0  0  0
    4.8629   -1.2513    7.2176 O   0  0  0  0  0  0  0  0  0  0  0  0
    3.0885   -0.5308    5.7668 C   0  0  0  0  0  0  0  0  0  0  0  0
    1.7993   -0.8198    5.3901 C   0  0  0  0  0  0  0  0  0  0  0  0
    0.8469   -1.7847    6.1327 C   0  0  0  0  0  0  0  0  0  0  0  0
    1.3501   -0.2512    4.1723 N   0  0  0  0  0  0  0  0  0  0  0  0
   -0.0291   -0.1919    3.6805 C   0  0  0  0  0  0  0  0  0  0  0  0
   -0.8823    0.9436    4.2658 C   0  0  0  0  0  0  0  0  0  0  0  0
   -1.3862    1.9480    3.4037 C   0  0  0  0  0  0  0  0  0  0  0  0
   -2.1705    3.0051    3.9523 C   0  0  0  0  0  0  0  0  0  0  0  0
   -2.4337    3.0611    5.3523 C   0  0  0  0  0  0  0  0  0  0  0  0
   -1.9240    2.0495    6.1807 C   0  0  0  0  0  0  0  0  0  0  0  0
   -1.1670    0.9825    5.6667 C   0  0  0  0  0  0  0  0  0  0  0  0
    2.2925    0.5142    3.3137 C   0  0  1  0  0  0  0  0  0  0  0  0
    2.5467    1.9251    3.8848 C   0  0  0  0  0  0  0  0  0  0  0  0
    3.7329    1.7463    4.8533 C   0  0  0  0  0  0  0  0  0  0  0  0
    4.0228    0.2409    4.8067 C   0  0  2  0  0  0  0  0  0  0  0  0
    3.6404   -0.0920    3.4121 N   0  0  1  0  0  0  0  0  0  0  0  0
    3.8198   -1.5198    3.0062 C   0  0  0  0  0  0  0  0  0  0  0  0
    3.6100   -1.7806    1.4799 C   0  0  1  0  0  0  0  0  0  0  0  0
    2.2009   -1.6362    1.2916 O   0  0  0  0  0  0  0  0  0  0  0  0
    4.4110   -0.8005    0.5596 C   0  0  2  0  0  0  0  0  0  0  0  0
    4.0842   -1.0580   -0.9301 C   0  0  0  0  0  0  0  0  0  0  0  0
    4.4419   -2.5096   -1.3080 C   0  0  1  0  0  0  0  0  0  0  0  0
    5.9525   -2.7340   -1.0829 C   0  0  0  0  0  0  0  0  0  0  0  0
    6.2878   -2.5014    0.4037 C   0  0  1  0  0  0  0  0  0  0  0  0
    5.9333   -1.0393    0.7763 C   0  0  0  0  0  0  0  0  0  0  0  0
    5.4794   -3.5057    1.2596 C   0  0  0  0  0  0  0  0  0  0  0  0
    3.9684   -3.2418    1.0579 C   0  0  2  0  0  0  0  0  0  0  0  0
    3.6237   -3.4754   -0.4318 C   0  0  0  0  0  0  0  0  0  0  0  0
    2.0898   -1.4620    9.8948 H   0  0  0  0  0  0  0  0  0  0  0  0
    3.7240   -0.8051    9.8729 H   0  0  0  0  0  0  0  0  0  0  0  0
    3.3916   -2.4575    9.2910 H   0  0  0  0  0  0  0  0  0  0  0  0
    1.4098   -2.5605    6.6708 H   0  0  0  0  0  0  0  0  0  0  0  0
    0.2243   -2.3493    5.4179 H   0  0  0  0  0  0  0  0  0  0  0  0
    0.2559   -1.2899    6.8899 H   0  0  0  0  0  0  0  0  0  0  0  0
   -0.0298   -0.1524    2.5839 H   0  0  0  0  0  0  0  0  0  0  0  0
   -0.4959   -1.1446    3.8941 H   0  0  0  0  0  0  0  0  0  0  0  0
   -1.1903    1.9140    2.3330 H   0  0  0  0  0  0  0  0  0  0  0  0
   -2.5684    3.7699    3.2951 H   0  0  0  0  0  0  0  0  0  0  0  0
   -3.0344    3.8456    5.7914 H   0  0  0  0  0  0  0  0  0  0  0  0
   -2.0962    2.0574    7.2431 H   0  0  0  0  0  0  0  0  0  0  0  0
   -0.8380    0.2519    6.3718 H   0  0  0  0  0  0  0  0  0  0  0  0
    1.9623    0.6091    2.2714 H   0  0  0  0  0  0  0  0  0  0  0  0
    2.8270    2.6233    3.0873 H   0  0  0  0  0  0  0  0  0  0  0  0
    1.6531    2.3214    4.3812 H   0  0  0  0  0  0  0  0  0  0  0  0
    4.5982    2.3037    4.4836 H   0  0  0  0  0  0  0  0  0  0  0  0
    3.5216    2.0934    5.8712 H   0  0  0  0  0  0  0  0  0  0  0  0
    5.0821    0.0152    4.9913 H   0  0  0  0  0  0  0  0  0  0  0  0
    4.8393   -1.7317    3.3137 H   0  0  0  0  0  0  0  0  0  0  0  0
    3.2072   -2.2130    3.6027 H   0  0  0  0  0  0  0  0  0  0  0  0
    1.9862   -1.4654    0.3792 H   0  0  0  0  0  0  0  0  0  0  0  0
    4.1663    0.2435    0.7737 H   0  0  0  0  0  0  0  0  0  0  0  0
    3.0303   -0.8860   -1.1395 H   0  0  0  0  0  0  0  0  0  0  0  0
    4.6288   -0.3568   -1.5578 H   0  0  0  0  0  0  0  0  0  0  0  0
    4.2035   -2.6823   -2.3569 H   0  0  0  0  0  0  0  0  0  0  0  0
    6.2393   -3.7438   -1.3820 H   0  0  0  0  0  0  0  0  0  0  0  0
    6.5237   -2.0459   -1.7052 H   0  0  0  0  0  0  0  0  0  0  0  0
    7.3511   -2.6726    0.5695 H   0  0  0  0  0  0  0  0  0  0  0  0
    6.5047   -0.3329    0.1682 H   0  0  0  0  0  0  0  0  0  0  0  0
    6.2435   -0.8249    1.8019 H   0  0  0  0  0  0  0  0  0  0  0  0
    5.7167   -4.5313    0.9750 H   0  0  0  0  0  0  0  0  0  0  0  0
    5.7774   -3.4419    2.3101 H   0  0  0  0  0  0  0  0  0  0  0  0
    3.3951   -3.9366    1.6725 H   0  0  0  0  0  0  0  0  0  0  0  0
    2.5615   -3.3374   -0.6248 H   0  0  0  0  0  0  0  0  0  0  0  0
    3.8338   -4.5022   -0.7088 H   0  0  0  0  0  0  0  0  0  0  0  0
    4.2373    0.4583    2.8114 H   0  0  0  0  0  0  0  0  0  0  0  0
  1  2  1  0
  1 33  1  0
  1 34  1  0
  1 35  1  0
  2  3  1  0
  3  4  2  0
  3  5  1  0
  5 19  1  0
  5  6  2  0
  6  7  1  0
  6  8  1  0
  7 36  1  0
  7 37  1  0
  7 38  1  0
  8  9  1  0
  8 16  1  0
  9 10  1  0
  9 39  1  0
  9 40  1  0
 10 15  1  0
 10 11  2  0
 11 12  1  0
 11 41  1  0
 12 13  2  0
 12 42  1  0
 13 14  1  0
 13 43  1  0
 14 15  2  0
 14 44  1  0
 15 45  1  0
 16 20  1  0
 16 17  1  0
 16 46  1  6
 17 18  1  0
 17 47  1  0
 17 48  1  0
 18 19  1  0
 18 49  1  0
 18 50  1  0
 19 20  1  0
 19 51  1  1
 20 21  1  0
 20 69  1  6
 21 22  1  0
 21 52  1  0
 21 53  1  0
 22 31  1  0
 22 23  1  6
 22 24  1  0
 23 54  1  0
 24 29  1  0
 24 25  1  0
 24 55  1  1
 25 26  1  0
 25 56  1  0
 25 57  1  0
 26 32  1  0
 26 27  1  0
 26 58  1  6
 27 28  1  0
 27 59  1  0
 27 60  1  0
 28 29  1  0
 28 30  1  0
 28 61  1  6
 29 62  1  0
 29 63  1  0
 30 31  1  0
 30 64  1  0
 30 65  1  0
 31 32  1  0
 31 66  1  1
 32 67  1  0
 32 68  1  0
M  CHG  1  20   1
M  END
>  <i_m_ct_stereo_status>  (179) 
1

>  <s_m_source_file>  (179) 
/var/tmp/pbs.5076255.sched01/tmpzygr1bk5/76dkit4mfj.sdf

>  <i_m_source_file_index>  (179) 
1

>  <i_lp_mmshare_version>  (179) 
48012

>  <i_f3d_flags>  (179) 
0

>  <s_epik_input>  (179) 
W2NIXTFbY0hdW2NIXVtjSF1bY0hdYzFbQ0gyXU4oW0NAQEhdMjMpQyhbQ0gzXSk9QyhDKD1PKU9bQ0gzXSlbQ0BIXShbQ0gyXVtDSDJdMilOM1tDSDJdW0NAQF0oW09IXSkoW0NAQEhdNDUpW0NASF02W0NIMl1bQ0BASF0oW0NIMl01KVtDSDJdW0NAQEhdKFtDSDJdNClbQ0gyXTY=

>  <s_epik_cmdline>  (179) 
J2VwaWtfcHl0aG9uJywgJy1waHQnLCAnMi4wJywgJy1waCcsICc3LjAnLCAnLXRuJywgJzgnLCAnLW1hJywgJzIwMCcsICctaW1hZScsICc8aW5maWxlLm1hZT4nLCAnLW9tYWUnLCAnPG91dGZpbGUubWFlPic=

>  <r_epik_Ionization_Penalty>  (179) 
1.98815

>  <r_epik_Ionization_Penalty_Charging>  (179) 
1.98815

>  <r_epik_Ionization_Penalty_Neutral>  (179) 
6.27441e-08

>  <r_epik_State_Penalty>  (179) 
2.11596

>  <r_epik_Charging_Adjusted_Penalty>  (179) 
4.10411

>  <i_epik_Tot_Q>  (179) 
1

>  <i_epik_Tot_abs_Q>  (179) 
1

>  <s_epik_Chemistry_Notes>  (179) 
This compound has an ester and may undergo hydrolysis at high or low pH. This compound contains an acetal/aminal-like group ( X-CH(R)-Y where X, Y are N, S, or O) that may be acid/base labile, releasing an aldehyde.

>  <s_lp_Force_Field>  (179) 
OPLS3e

>  <r_lp_Energy>  (179) 
47.4162

>  <b_lp_Chiralities_Consistent>  (179) 
1

>  <s_lp_Variant>  (179) 
62:0-2

>  <s_i_glide_gridfile>  (179) 
pfpi4k_grid

>  <i_i_glide_lignum>  (179) 
1

>  <i_i_glide_rotatable_bonds>  (179) 
7

>  <r_i_docking_score>  (179) 
-2.59526

>  <r_i_glide_ligand_efficiency>  (179) 
-0.0811017

>  <r_i_glide_ligand_efficiency_sa>  (179) 
-0.257482

>  <r_i_glide_ligand_efficiency_ln>  (179) 
-0.581148

>  <r_i_glide_gscore>  (179) 
-2.59526

>  <r_i_glide_lipo>  (179) 
-0.365165

>  <r_i_glide_hbond>  (179) 
-0.147371

>  <r_i_glide_metal>  (179) 
-0

>  <r_i_glide_rewards>  (179) 
-0.425494

>  <r_i_glide_evdw>  (179) 
-29.8589

>  <r_i_glide_ecoul>  (179) 
-4.52319

>  <r_i_glide_erotb>  (179) 
0.520727

>  <r_i_glide_esite>  (179) 
-0.00652734

>  <r_i_glide_emodel>  (179) 
-39.7387

>  <r_i_glide_energy>  (179) 
-34.3821

>  <r_i_glide_einternal>  (179) 
0.454903

>  <r_i_glide_intrahb_reward>  (179) 
-0

>  <i_i_glide_confnum>  (179) 
2

>  <i_i_glide_posenum>  (179) 
33

>  <r_i_glide_eff_state_penalty>  (179) 
0

>  <ligand_id>  (179) 
62

>  <original_smiles>  (179) 
COC(=O)C1=C(C)N(Cc2ccccc2)C2CCC1N2CC1(O)C2CC3CC(C2)CC1C3

>  <smiles>  (179) 
[H]OC1(C([H])([H])[N+]2([H])C3([H])C(C(=O)OC([H])([H])[H])=C(C([H])([H])[H])N(C([H])([H])c4c([H])c([H])c([H])c([H])c4[H])C2([H])C([H])([H])C3([H])[H])C2([H])C([H])([H])C3([H])C([H])([H])C([H])(C2([H])[H])C([H])([H])C1([H])C3([H])[H]

$$$$
63:1:0
     RDKit          3D

 87 93  0  0  1  0  0  0  0  0999 V2000
    4.6697   -0.2611    1.4794 C   0  0  0  0  0  0  0  0  0  0  0  0
    4.1749   -1.4467    0.8931 O   0  0  0  0  0  0  0  0  0  0  0  0
    4.6239   -1.8317   -0.3158 C   0  0  0  0  0  0  0  0  0  0  0  0
    5.4710   -1.2305   -0.9811 O   0  0  0  0  0  0  0  0  0  0  0  0
    4.0005   -3.1578   -0.8100 C   0  0  1  0  0  0  0  0  0  0  0  0
    3.3096   -2.8745   -2.1598 C   0  0  0  0  0  0  0  0  0  0  0  0
    5.0715   -4.2648   -1.0000 C   0  0  0  0  0  0  0  0  0  0  0  0
    5.4348   -5.0171    0.2931 C   0  0  1  0  0  0  0  0  0  0  0  0
    6.2620   -4.1108    1.2379 C   0  0  0  0  0  0  0  0  0  0  0  0
    4.1029   -5.5812    0.8570 C   0  0  2  0  0  0  0  0  0  0  0  0
    3.1001   -4.4467    1.0783 C   0  0  0  0  0  0  0  0  0  0  0  0
    2.3159   -4.3593    2.1557 C   0  0  0  0  0  0  0  0  0  0  0  0
    2.3358   -5.3737    3.2643 C   0  0  0  0  0  0  0  0  0  0  0  0
    2.7467   -6.7915    2.7783 C   0  0  2  0  0  0  0  0  0  0  0  0
    1.6319   -7.2668    1.7921 C   0  0  0  0  0  0  0  0  0  0  0  0
    2.8216   -7.8059    4.0076 C   0  0  2  0  0  0  0  0  0  0  0  0
    1.4609   -8.2865    4.6090 C   0  0  0  0  0  0  0  0  0  0  0  0
    0.9724   -7.6193    5.8841 C   0  0  0  0  0  0  0  0  0  0  0  0
    1.5275   -8.2161    7.2051 C   0  0  2  0  0  0  0  0  0  0  0  0
    0.4831   -9.1942    7.8582 C   0  0  0  0  0  0  0  0  0  0  0  0
    0.6427   -9.0533    9.3915 C   0  0  0  0  0  0  0  0  0  0  0  0
    1.8050   -8.1081    9.5145 C   0  0  0  0  0  0  0  0  0  0  0  0
    1.5881   -7.1597    8.3417 C   0  0  2  0  0  0  0  0  0  0  0  0
    0.3509   -6.2384    8.5112 C   0  0  0  0  0  0  0  0  0  0  0  0
    2.9836   -8.5579    9.6875 N   0  0  0  0  0  0  0  0  0  0  0  0
    3.6672   -8.8124    8.4901 C   0  0  0  0  0  0  0  0  0  0  0  0
    4.9863   -8.7756    8.3588 C   0  0  0  0  0  0  0  0  0  0  0  0
    5.4165   -8.8178    6.9226 C   0  0  0  0  0  0  0  0  0  0  0  0
    4.0960   -8.8549    6.0565 C   0  0  1  0  0  0  0  0  0  0  0  0
    4.1767  -10.2263    5.3105 C   0  0  0  0  0  0  0  0  0  0  0  0
    2.9434   -8.9678    7.1570 C   0  0  2  0  0  0  0  0  0  0  0  0
    4.0100   -7.6169    5.0475 C   0  0  2  0  0  0  0  0  0  0  0  0
    3.9754   -6.3024    5.8978 C   0  0  0  0  0  0  0  0  0  0  0  0
    5.3038   -7.5161    4.1748 C   0  0  0  0  0  0  0  0  0  0  0  0
    5.2527   -6.4892    3.0228 C   0  0  0  0  0  0  0  0  0  0  0  0
    4.1270   -6.7141    1.9869 C   0  0  2  0  0  0  0  0  0  0  0  0
    4.4545   -8.0572    1.2568 C   0  0  0  0  0  0  0  0  0  0  0  0
    2.9214   -3.5212    0.0704 O   0  0  0  0  0  0  0  0  0  0  0  0
    4.2115   -0.1104    2.4583 H   0  0  0  0  0  0  0  0  0  0  0  0
    4.4394    0.6031    0.8551 H   0  0  0  0  0  0  0  0  0  0  0  0
    5.7510   -0.3214    1.6146 H   0  0  0  0  0  0  0  0  0  0  0  0
    4.0214   -2.5763   -2.9289 H   0  0  0  0  0  0  0  0  0  0  0  0
    2.5820   -2.0709   -2.0569 H   0  0  0  0  0  0  0  0  0  0  0  0
    2.7696   -3.7482   -2.5281 H   0  0  0  0  0  0  0  0  0  0  0  0
    4.6985   -4.9978   -1.7146 H   0  0  0  0  0  0  0  0  0  0  0  0
    5.9671   -3.8558   -1.4689 H   0  0  0  0  0  0  0  0  0  0  0  0
    6.0760   -5.8538    0.0107 H   0  0  0  0  0  0  0  0  0  0  0  0
    5.6207   -3.4761    1.8498 H   0  0  0  0  0  0  0  0  0  0  0  0
    6.9291   -3.4634    0.6665 H   0  0  0  0  0  0  0  0  0  0  0  0
    6.9089   -4.6698    1.9107 H   0  0  0  0  0  0  0  0  0  0  0  0
    3.6548   -6.0843    0.0000 H   0  0  0  0  0  0  0  0  0  0  0  0
    1.6347   -3.5270    2.2595 H   0  0  0  0  0  0  0  0  0  0  0  0
    3.0245   -4.9569    3.9869 H   0  0  0  0  0  0  0  0  0  0  0  0
    1.3534   -5.3897    3.7311 H   0  0  0  0  0  0  0  0  0  0  0  0
    1.6476   -8.3477    1.6432 H   0  0  0  0  0  0  0  0  0  0  0  0
    1.7137   -6.8132    0.8066 H   0  0  0  0  0  0  0  0  0  0  0  0
    0.6369   -6.9968    2.1444 H   0  0  0  0  0  0  0  0  0  0  0  0
    3.0954   -8.7138    3.4833 H   0  0  0  0  0  0  0  0  0  0  0  0
    0.6574   -8.1922    3.8889 H   0  0  0  0  0  0  0  0  0  0  0  0
    1.4799   -9.3591    4.7862 H   0  0  0  0  0  0  0  0  0  0  0  0
    1.1065   -6.5459    5.8163 H   0  0  0  0  0  0  0  0  0  0  0  0
   -0.1125   -7.7140    5.8918 H   0  0  0  0  0  0  0  0  0  0  0  0
   -0.5450   -8.9526    7.5988 H   0  0  0  0  0  0  0  0  0  0  0  0
    0.6138  -10.2268    7.5389 H   0  0  0  0  0  0  0  0  0  0  0  0
   -0.2455   -8.6240    9.8613 H   0  0  0  0  0  0  0  0  0  0  0  0
    0.8590  -10.0066    9.8779 H   0  0  0  0  0  0  0  0  0  0  0  0
    0.3835   -5.7115    9.4661 H   0  0  0  0  0  0  0  0  0  0  0  0
   -0.5898   -6.7861    8.4669 H   0  0  0  0  0  0  0  0  0  0  0  0
    0.3195   -5.4869    7.7206 H   0  0  0  0  0  0  0  0  0  0  0  0
    5.6854   -8.6331    9.1660 H   0  0  0  0  0  0  0  0  0  0  0  0
    2.4606   -6.5110    8.2413 H   0  0  0  0  0  0  0  0  0  0  0  0
    6.0615   -9.6832    6.7718 H   0  0  0  0  0  0  0  0  0  0  0  0
    6.0416   -7.9431    6.7657 H   0  0  0  0  0  0  0  0  0  0  0  0
    3.2753  -10.4878    4.7635 H   0  0  0  0  0  0  0  0  0  0  0  0
    4.3277  -11.0437    6.0185 H   0  0  0  0  0  0  0  0  0  0  0  0
    5.0098  -10.2959    4.6126 H   0  0  0  0  0  0  0  0  0  0  0  0
    2.6993  -10.0276    7.1780 H   0  0  0  0  0  0  0  0  0  0  0  0
    4.3483   -6.4398    6.9095 H   0  0  0  0  0  0  0  0  0  0  0  0
    2.9948   -5.8653    6.0053 H   0  0  0  0  0  0  0  0  0  0  0  0
    4.6015   -5.5131    5.4893 H   0  0  0  0  0  0  0  0  0  0  0  0
    6.1666   -7.2503    4.7802 H   0  0  0  0  0  0  0  0  0  0  0  0
    5.5600   -8.4775    3.7436 H   0  0  0  0  0  0  0  0  0  0  0  0
    5.1924   -5.4775    3.4149 H   0  0  0  0  0  0  0  0  0  0  0  0
    6.2158   -6.5668    2.5231 H   0  0  0  0  0  0  0  0  0  0  0  0
    4.4814   -8.9278    1.9112 H   0  0  0  0  0  0  0  0  0  0  0  0
    5.4334   -8.0143    0.7788 H   0  0  0  0  0  0  0  0  0  0  0  0
    3.7374   -8.3001    0.4816 H   0  0  0  0  0  0  0  0  0  0  0  0
  1  2  1  0
  1 39  1  0
  1 40  1  0
  1 41  1  0
  2  3  1  0
  3  4  2  0
  3  5  1  0
  5 38  1  0
  5  6  1  6
  5  7  1  0
  6 42  1  0
  6 43  1  0
  6 44  1  0
  7  8  1  0
  7 45  1  0
  7 46  1  0
  8  9  1  0
  8 10  1  0
  8 47  1  6
  9 48  1  0
  9 49  1  0
  9 50  1  0
 10 36  1  0
 10 11  1  0
 10 51  1  6
 11 12  2  0
 11 38  1  0
 12 13  1  0
 12 52  1  0
 13 14  1  0
 13 53  1  0
 13 54  1  0
 14 36  1  0
 14 15  1  6
 14 16  1  0
 15 55  1  0
 15 56  1  0
 15 57  1  0
 16 32  1  0
 16 17  1  0
 16 58  1  6
 17 18  1  0
 17 59  1  0
 17 60  1  0
 19 18  1  6
 18 61  1  0
 18 62  1  0
 19 31  1  0
 19 20  1  0
 19 23  1  0
 20 21  1  0
 20 63  1  0
 20 64  1  0
 21 65  1  0
 21 66  1  0
 21 22  1  0
 22 23  1  0
 22 25  2  0
 23 24  1  0
 23 71  1  6
 24 67  1  0
 24 68  1  0
 24 69  1  0
 25 26  1  0
 26 31  1  0
 26 27  2  0
 27 28  1  0
 27 70  1  0
 28 29  1  0
 28 72  1  0
 28 73  1  0
 29 30  1  6
 29 31  1  0
 29 32  1  0
 30 74  1  0
 30 75  1  0
 30 76  1  0
 31 77  1  1
 32 33  1  1
 32 34  1  0
 33 78  1  0
 33 79  1  0
 33 80  1  0
 34 35  1  0
 34 81  1  0
 34 82  1  0
 35 36  1  0
 35 83  1  0
 35 84  1  0
 36 37  1  6
 37 85  1  0
 37 86  1  0
 37 87  1  0
M  END
>  <i_m_ct_stereo_status>  (180) 
1

>  <s_m_source_file>  (180) 
/var/tmp/pbs.5076255.sched01/tmpzygr1bk5/76dkit4mfj.sdf

>  <i_m_source_file_index>  (180) 
3

>  <i_lp_mmshare_version>  (180) 
48012

>  <i_f3d_flags>  (180) 
1

>  <s_epik_input>  (180) 
W0NIM11PQyg9TylbQ0BAXShbQ0gzXSkoW0NIMl1bQ0BIXTFbQ0gzXSlPQyg9W0NIXVtDSDJdMilbQ0BASF0xW0NAQF0oW0NIM10pKFtDSDJdW0NIMl0zKVtDQEBdMihbQ0gzXSlbQ0BIXShbQ0gyXVtDSDJdNClbQ0BAXTMoW0NIM10pW0NAQF01KFtDSDNdKVtDSDJdW0NIMl1DKFtDQEhdNVtDQEBdNDY3KT1OQyhbQ0gyXVtDSDJdNik9QzdbQ0gzXQ==

>  <s_epik_cmdline>  (180) 
J2VwaWtfcHl0aG9uJywgJy1waHQnLCAnMi4wJywgJy1waCcsICc3LjAnLCAnLXRuJywgJzgnLCAnLW1hJywgJzIwMCcsICctaW1hZScsICc8aW5maWxlLm1hZT4nLCAnLW9tYWUnLCAnPG91dGZpbGUubWFlPic=

>  <r_lp_tautomer_probability>  (180) 
0.499993

>  <r_epik_Ionization_Penalty>  (180) 
0

>  <r_epik_Ionization_Penalty_Charging>  (180) 
0

>  <r_epik_Ionization_Penalty_Neutral>  (180) 
0

>  <r_epik_State_Penalty>  (180) 
0.41068

>  <r_epik_Charging_Adjusted_Penalty>  (180) 
0.41068

>  <i_epik_Tot_Q>  (180) 
0

>  <i_epik_Tot_abs_Q>  (180) 
0

>  <s_epik_Chemistry_Notes>  (180) 
This compound has an ester and may undergo hydrolysis at high or low pH. This compound has an imine and may undergo hydrolysis.

>  <s_lp_Force_Field>  (180) 
OPLS3e

>  <r_lp_Energy>  (180) 
159.456

>  <b_lp_Chiralities_Consistent>  (180) 
1

>  <s_lp_Variant>  (180) 
63:0-2

>  <s_i_glide_gridfile>  (180) 
pfpi4k_grid

>  <i_i_glide_lignum>  (180) 
3

>  <i_i_glide_rotatable_bonds>  (180) 
2

>  <r_i_docking_score>  (180) 
-2.12652

>  <r_i_glide_ligand_efficiency>  (180) 
-0.055961

>  <r_i_glide_ligand_efficiency_sa>  (180) 
-0.188139

>  <r_i_glide_ligand_efficiency_ln>  (180) 
-0.45854

>  <r_i_glide_gscore>  (180) 
-2.12652

>  <r_i_glide_lipo>  (180) 
-0.408421

>  <r_i_glide_hbond>  (180) 
0

>  <r_i_glide_metal>  (180) 
-0

>  <r_i_glide_rewards>  (180) 
0

>  <r_i_glide_evdw>  (180) 
-32.7774

>  <r_i_glide_ecoul>  (180) 
-0.848805

>  <r_i_glide_erotb>  (180) 
0.0760577

>  <r_i_glide_esite>  (180) 
-0.0279649

>  <r_i_glide_emodel>  (180) 
-36.8197

>  <r_i_glide_energy>  (180) 
-33.6262

>  <r_i_glide_einternal>  (180) 
2.30805

>  <r_i_glide_intrahb_reward>  (180) 
-0

>  <i_i_glide_confnum>  (180) 
4

>  <i_i_glide_posenum>  (180) 
34

>  <r_i_glide_eff_state_penalty>  (180) 
0

>  <ligand_id>  (180) 
63

>  <original_smiles>  (180) 
COC(=O)C1(C)CC(C)C2C(=CCC3(C)C4CCC56CCC(=C5C)N=C5CCC(C)(C56)C4(C)CCC23C)O1

>  <smiles>  (180) 
[H]C1=C2N=C3C([H])([H])C([H])([H])C4(C([H])([H])C([H])([H])C5([H])C6(C([H])([H])[H])C([H])([H])C([H])=C7OC(C(=O)OC([H])([H])[H])(C([H])([H])[H])C([H])([H])C([H])(C([H])([H])[H])C7([H])C6(C([H])([H])[H])C([H])([H])C([H])([H])C5(C([H])([H])[H])C(C([H])([H])[H])(C1([H])[H])C24[H])C3([H])C([H])([H])[H]

$$$$
63:2:0
     RDKit          3D

 87 93  0  0  1  0  0  0  0  0999 V2000
    5.5169   -0.2588    0.8677 C   0  0  0  0  0  0  0  0  0  0  0  0
    4.8320   -1.3973    0.3930 O   0  0  0  0  0  0  0  0  0  0  0  0
    4.8571   -1.7100   -0.9104 C   0  0  0  0  0  0  0  0  0  0  0  0
    5.4313   -1.0587   -1.7809 O   0  0  0  0  0  0  0  0  0  0  0  0
    4.1325   -3.0299   -1.2338 C   0  0  1  0  0  0  0  0  0  0  0  0
    3.4609   -2.8673   -2.6182 C   0  0  0  0  0  0  0  0  0  0  0  0
    5.1096   -4.2403   -1.2755 C   0  0  0  0  0  0  0  0  0  0  0  0
    5.4112   -4.8796    0.0925 C   0  0  1  0  0  0  0  0  0  0  0  0
    6.3463   -3.9798    0.9422 C   0  0  0  0  0  0  0  0  0  0  0  0
    4.0288   -5.2393    0.7063 C   0  0  2  0  0  0  0  0  0  0  0  0
    3.1545   -3.9885    0.7960 C   0  0  0  0  0  0  0  0  0  0  0  0
    2.3934   -3.6981    1.8555 C   0  0  0  0  0  0  0  0  0  0  0  0
    2.2797   -4.5943    3.0599 C   0  0  0  0  0  0  0  0  0  0  0  0
    2.5586   -6.0926    2.7340 C   0  0  2  0  0  0  0  0  0  0  0  0
    1.4233   -6.5790    1.7744 C   0  0  0  0  0  0  0  0  0  0  0  0
    2.4935   -6.9714    4.0731 C   0  0  2  0  0  0  0  0  0  0  0  0
    1.1012   -6.8479    4.7736 C   0  0  0  0  0  0  0  0  0  0  0  0
    0.6288   -7.9942    5.6720 C   0  0  0  0  0  0  0  0  0  0  0  0
    1.1870   -8.0767    7.1043 C   0  0  2  0  0  0  0  0  0  0  0  0
    0.4451   -9.2472    7.8458 C   0  0  0  0  0  0  0  0  0  0  0  0
    0.5176   -8.9370    9.3627 C   0  0  0  0  0  0  0  0  0  0  0  0
    1.2865   -7.6445    9.4030 C   0  0  0  0  0  0  0  0  0  0  0  0
    0.7581   -6.9838    8.1398 C   0  0  1  0  0  0  0  0  0  0  0  0
    1.1698   -5.5076    8.0322 C   0  0  0  0  0  0  0  0  0  0  0  0
    2.5429   -7.6326    9.6209 N   0  0  0  0  0  0  0  0  0  0  0  0
    3.3237   -7.8930    8.4866 C   0  0  0  0  0  0  0  0  0  0  0  0
    4.6372   -7.7683    8.3831 C   0  0  0  0  0  0  0  0  0  0  0  0
    5.1115   -8.0863    6.9819 C   0  0  0  0  0  0  0  0  0  0  0  0
    3.8279   -8.1594    6.0626 C   0  0  1  0  0  0  0  0  0  0  0  0
    3.8900   -9.5107    5.2765 C   0  0  0  0  0  0  0  0  0  0  0  0
    2.7276   -8.3687    7.1825 C   0  0  2  0  0  0  0  0  0  0  0  0
    3.7328   -6.8874    5.0721 C   0  0  2  0  0  0  0  0  0  0  0  0
    3.7431   -5.5468    5.8704 C   0  0  0  0  0  0  0  0  0  0  0  0
    5.0501   -6.8315    4.2194 C   0  0  0  0  0  0  0  0  0  0  0  0
    5.0540   -5.9168    2.9918 C   0  0  0  0  0  0  0  0  0  0  0  0
    3.9463   -6.2153    1.9688 C   0  0  2  0  0  0  0  0  0  0  0  0
    4.1725   -7.6665    1.4466 C   0  0  0  0  0  0  0  0  0  0  0  0
    3.0453   -3.1687   -0.3083 O   0  0  0  0  0  0  0  0  0  0  0  0
    5.5093   -0.2431    1.9594 H   0  0  0  0  0  0  0  0  0  0  0  0
    5.0393    0.6431    0.4950 H   0  0  0  0  0  0  0  0  0  0  0  0
    6.5565   -0.2737    0.5371 H   0  0  0  0  0  0  0  0  0  0  0  0
    4.1904   -2.7400   -3.4211 H   0  0  0  0  0  0  0  0  0  0  0  0
    2.8066   -1.9922   -2.6249 H   0  0  0  0  0  0  0  0  0  0  0  0
    2.8428   -3.7284   -2.8706 H   0  0  0  0  0  0  0  0  0  0  0  0
    4.6689   -5.0104   -1.9025 H   0  0  0  0  0  0  0  0  0  0  0  0
    6.0332   -3.9608   -1.7855 H   0  0  0  0  0  0  0  0  0  0  0  0
    5.9522   -5.8094   -0.1018 H   0  0  0  0  0  0  0  0  0  0  0  0
    5.7738   -3.2879    1.5627 H   0  0  0  0  0  0  0  0  0  0  0  0
    7.0070   -3.3980    0.2970 H   0  0  0  0  0  0  0  0  0  0  0  0
    7.0154   -4.5372    1.5992 H   0  0  0  0  0  0  0  0  0  0  0  0
    3.5324   -5.7958   -0.0864 H   0  0  0  0  0  0  0  0  0  0  0  0
    1.7958   -2.7980    1.8492 H   0  0  0  0  0  0  0  0  0  0  0  0
    2.9608   -4.1808    3.7930 H   0  0  0  0  0  0  0  0  0  0  0  0
    1.2759   -4.4596    3.4586 H   0  0  0  0  0  0  0  0  0  0  0  0
    1.3299   -7.6667    1.7688 H   0  0  0  0  0  0  0  0  0  0  0  0
    1.5734   -6.2739    0.7419 H   0  0  0  0  0  0  0  0  0  0  0  0
    0.4520   -6.1704    2.0482 H   0  0  0  0  0  0  0  0  0  0  0  0
    2.4913   -7.9869    3.6908 H   0  0  0  0  0  0  0  0  0  0  0  0
    0.9673   -5.8891    5.2540 H   0  0  0  0  0  0  0  0  0  0  0  0
    0.3304   -6.8363    4.0166 H   0  0  0  0  0  0  0  0  0  0  0  0
   -0.4520   -7.9064    5.7426 H   0  0  0  0  0  0  0  0  0  0  0  0
    0.7891   -8.9440    5.1636 H   0  0  0  0  0  0  0  0  0  0  0  0
   -0.6017   -9.2965    7.5529 H   0  0  0  0  0  0  0  0  0  0  0  0
    0.8445  -10.2336    7.6132 H   0  0  0  0  0  0  0  0  0  0  0  0
   -0.4795   -8.7883    9.7883 H   0  0  0  0  0  0  0  0  0  0  0  0
    1.0262   -9.7213    9.9285 H   0  0  0  0  0  0  0  0  0  0  0  0
    0.7651   -4.9590    8.8824 H   0  0  0  0  0  0  0  0  0  0  0  0
    0.7469   -5.0362    7.1490 H   0  0  0  0  0  0  0  0  0  0  0  0
    2.2459   -5.3556    8.0574 H   0  0  0  0  0  0  0  0  0  0  0  0
    5.2981   -7.4712    9.1776 H   0  0  0  0  0  0  0  0  0  0  0  0
   -0.3327   -6.9566    8.1795 H   0  0  0  0  0  0  0  0  0  0  0  0
    5.6314   -9.0432    7.0347 H   0  0  0  0  0  0  0  0  0  0  0  0
    5.8602   -7.3486    6.7043 H   0  0  0  0  0  0  0  0  0  0  0  0
    2.9466   -9.7547    4.7911 H   0  0  0  0  0  0  0  0  0  0  0  0
    4.0952  -10.3500    5.9432 H   0  0  0  0  0  0  0  0  0  0  0  0
    4.6696   -9.5769    4.5237 H   0  0  0  0  0  0  0  0  0  0  0  0
    2.7746   -9.4409    7.3675 H   0  0  0  0  0  0  0  0  0  0  0  0
    4.1301   -5.6498    6.8786 H   0  0  0  0  0  0  0  0  0  0  0  0
    2.7690   -5.0812    5.9415 H   0  0  0  0  0  0  0  0  0  0  0  0
    4.3788   -4.7891    5.4150 H   0  0  0  0  0  0  0  0  0  0  0  0
    5.8845   -6.4863    4.8245 H   0  0  0  0  0  0  0  0  0  0  0  0
    5.3636   -7.8075    3.8694 H   0  0  0  0  0  0  0  0  0  0  0  0
    5.0381   -4.8711    3.2881 H   0  0  0  0  0  0  0  0  0  0  0  0
    6.0195   -6.0924    2.5287 H   0  0  0  0  0  0  0  0  0  0  0  0
    4.0486   -8.4241    2.2192 H   0  0  0  0  0  0  0  0  0  0  0  0
    5.1793   -7.7909    1.0449 H   0  0  0  0  0  0  0  0  0  0  0  0
    3.4765   -7.9365    0.6547 H   0  0  0  0  0  0  0  0  0  0  0  0
  1  2  1  0
  1 39  1  0
  1 40  1  0
  1 41  1  0
  2  3  1  0
  3  4  2  0
  3  5  1  0
  5 38  1  0
  5  6  1  6
  5  7  1  0
  6 42  1  0
  6 43  1  0
  6 44  1  0
  7  8  1  0
  7 45  1  0
  7 46  1  0
  8  9  1  0
  8 10  1  0
  8 47  1  6
  9 48  1  0
  9 49  1  0
  9 50  1  0
 10 36  1  0
 10 11  1  0
 10 51  1  6
 11 12  2  0
 11 38  1  0
 12 13  1  0
 12 52  1  0
 13 14  1  0
 13 53  1  0
 13 54  1  0
 14 36  1  0
 14 15  1  6
 14 16  1  0
 15 55  1  0
 15 56  1  0
 15 57  1  0
 16 32  1  0
 16 17  1  0
 16 58  1  6
 17 18  1  0
 17 59  1  0
 17 60  1  0
 19 18  1  6
 18 61  1  0
 18 62  1  0
 19 31  1  0
 19 20  1  0
 19 23  1  0
 20 21  1  0
 20 63  1  0
 20 64  1  0
 21 65  1  0
 21 66  1  0
 21 22  1  0
 22 23  1  0
 22 25  2  0
 23 24  1  0
 23 71  1  1
 24 67  1  0
 24 68  1  0
 24 69  1  0
 25 26  1  0
 26 31  1  0
 26 27  2  0
 27 28  1  0
 27 70  1  0
 28 29  1  0
 28 72  1  0
 28 73  1  0
 29 30  1  6
 29 31  1  0
 29 32  1  0
 30 74  1  0
 30 75  1  0
 30 76  1  0
 31 77  1  1
 32 33  1  1
 32 34  1  0
 33 78  1  0
 33 79  1  0
 33 80  1  0
 34 35  1  0
 34 81  1  0
 34 82  1  0
 35 36  1  0
 35 83  1  0
 35 84  1  0
 36 37  1  6
 37 85  1  0
 37 86  1  0
 37 87  1  0
M  END
>  <i_m_ct_stereo_status>  (181) 
1

>  <s_m_source_file>  (181) 
/var/tmp/pbs.5076255.sched01/tmpzygr1bk5/76dkit4mfj.sdf

>  <i_m_source_file_index>  (181) 
4

>  <i_lp_mmshare_version>  (181) 
48012

>  <i_f3d_flags>  (181) 
1

>  <s_epik_input>  (181) 
W0NIM11PQyg9TylbQ0BAXShbQ0gzXSkoW0NIMl1bQ0BIXTFbQ0gzXSlPQyg9W0NIXVtDSDJdMilbQ0BASF0xW0NAQF0oW0NIM10pKFtDSDJdW0NIMl0zKVtDQEBdMihbQ0gzXSlbQ0BIXShbQ0gyXVtDSDJdNClbQ0BAXTMoW0NIM10pW0NAQF01KFtDSDNdKVtDSDJdW0NIMl1DKFtDQEhdNVtDQEBdNDY3KT1OQyhbQ0gyXVtDSDJdNik9QzdbQ0gzXQ==

>  <s_epik_cmdline>  (181) 
J2VwaWtfcHl0aG9uJywgJy1waHQnLCAnMi4wJywgJy1waCcsICc3LjAnLCAnLXRuJywgJzgnLCAnLW1hJywgJzIwMCcsICctaW1hZScsICc8aW5maWxlLm1hZT4nLCAnLW9tYWUnLCAnPG91dGZpbGUubWFlPic=

>  <r_lp_tautomer_probability>  (181) 
0.499993

>  <r_epik_Ionization_Penalty>  (181) 
0

>  <r_epik_Ionization_Penalty_Charging>  (181) 
0

>  <r_epik_Ionization_Penalty_Neutral>  (181) 
0

>  <r_epik_State_Penalty>  (181) 
0.41068

>  <r_epik_Charging_Adjusted_Penalty>  (181) 
0.41068

>  <i_epik_Tot_Q>  (181) 
0

>  <i_epik_Tot_abs_Q>  (181) 
0

>  <s_epik_Chemistry_Notes>  (181) 
This compound has an ester and may undergo hydrolysis at high or low pH. This compound has an imine and may undergo hydrolysis.

>  <s_lp_Force_Field>  (181) 
OPLS3e

>  <r_lp_Energy>  (181) 
158.827

>  <b_lp_Chiralities_Consistent>  (181) 
1

>  <s_lp_Variant>  (181) 
63:0-3

>  <s_i_glide_gridfile>  (181) 
pfpi4k_grid

>  <i_i_glide_lignum>  (181) 
4

>  <i_i_glide_rotatable_bonds>  (181) 
2

>  <r_i_docking_score>  (181) 
-2.00548

>  <r_i_glide_ligand_efficiency>  (181) 
-0.0527757

>  <r_i_glide_ligand_efficiency_sa>  (181) 
-0.177431

>  <r_i_glide_ligand_efficiency_ln>  (181) 
-0.43244

>  <r_i_glide_gscore>  (181) 
-2.00548

>  <r_i_glide_lipo>  (181) 
-0.366044

>  <r_i_glide_hbond>  (181) 
-0.0109732

>  <r_i_glide_metal>  (181) 
-0

>  <r_i_glide_rewards>  (181) 
0

>  <r_i_glide_evdw>  (181) 
-30.9587

>  <r_i_glide_ecoul>  (181) 
-0.764012

>  <r_i_glide_erotb>  (181) 
0.0760577

>  <r_i_glide_esite>  (181) 
-0.0419801

>  <r_i_glide_emodel>  (181) 
-34.4321

>  <r_i_glide_energy>  (181) 
-31.7227

>  <r_i_glide_einternal>  (181) 
1.92722

>  <r_i_glide_intrahb_reward>  (181) 
-0

>  <i_i_glide_confnum>  (181) 
1

>  <i_i_glide_posenum>  (181) 
7

>  <r_i_glide_eff_state_penalty>  (181) 
0

>  <ligand_id>  (181) 
63

>  <original_smiles>  (181) 
COC(=O)C1(C)CC(C)C2C(=CCC3(C)C4CCC56CCC(=C5C)N=C5CCC(C)(C56)C4(C)CCC23C)O1

>  <smiles>  (181) 
[H]C1=C2N=C3C([H])([H])C([H])([H])C4(C([H])([H])C([H])([H])C5([H])C6(C([H])([H])[H])C([H])([H])C([H])=C7OC(C(=O)OC([H])([H])[H])(C([H])([H])[H])C([H])([H])C([H])(C([H])([H])[H])C7([H])C6(C([H])([H])[H])C([H])([H])C([H])([H])C5(C([H])([H])[H])C(C([H])([H])[H])(C1([H])[H])C24[H])C3([H])C([H])([H])[H]

$$$$
64:0:0
     RDKit          3D

 47 52  0  0  1  0  0  0  0  0999 V2000
    3.7659    0.0121   -3.3701 C   0  0  0  0  0  0  0  0  0  0  0  0
    4.6402   -0.7330   -2.5356 O   0  0  0  0  0  0  0  0  0  0  0  0
    4.2880   -2.0902   -2.2714 C   0  0  1  0  0  0  0  0  0  0  0  0
    3.7473   -2.8462   -3.4820 C   0  0  0  0  0  0  0  0  0  0  0  0
    4.8275   -3.6260   -3.6011 C   0  0  0  0  0  0  0  0  0  0  0  0
    5.5675   -2.9534   -2.4627 C   0  0  2  0  0  0  0  0  0  0  0  0
    5.9140   -3.8543   -1.4191 O   0  0  0  0  0  0  0  0  0  0  0  0
    5.5894   -3.3801   -0.1875 C   0  0  0  0  0  0  0  0  0  0  0  0
    6.4161   -3.5098    0.8626 C   0  0  0  0  0  0  0  0  0  0  0  0
    7.1674   -4.7909    1.1002 C   0  0  0  0  0  0  0  0  0  0  0  0
    6.1519   -5.9585    1.2616 C   0  0  0  0  0  0  0  0  0  0  0  0
    5.0035   -5.7420    2.2169 N   0  0  1  0  0  0  0  0  0  0  0  0
    5.4441   -5.4700    3.6104 C   0  0  0  0  0  0  0  0  0  0  0  0
    3.7604   -4.9882    1.7869 C   0  0  2  0  0  0  0  0  0  0  0  0
    3.5502   -4.7489    0.2386 C   0  0  0  0  0  0  0  0  0  0  0  0
    4.0836   -3.3130   -0.0113 C   0  0  1  0  0  0  0  0  0  0  0  0
    3.7128   -2.7379    1.2672 C   0  0  0  0  0  0  0  0  0  0  0  0
    3.6203   -3.5724    2.3573 C   0  0  0  0  0  0  0  0  0  0  0  0
    3.3034   -2.9476    3.5800 C   0  0  0  0  0  0  0  0  0  0  0  0
    3.1102   -1.5299    3.5707 C   0  0  0  0  0  0  0  0  0  0  0  0
    3.1459   -0.7700    2.3588 C   0  0  0  0  0  0  0  0  0  0  0  0
    2.8846    0.5674    2.3817 O   0  0  0  0  0  0  0  0  0  0  0  0
    3.4335   -1.4176    1.1367 C   0  0  0  0  0  0  0  0  0  0  0  0
    3.4337   -1.0367   -0.1821 O   0  0  0  0  0  0  0  0  0  0  0  0
    3.4583   -2.2625   -0.9804 C   0  0  1  0  0  0  0  0  0  0  0  0
    4.0852    1.0533   -3.3725 H   0  0  0  0  0  0  0  0  0  0  0  0
    2.7299   -0.0345   -3.0328 H   0  0  0  0  0  0  0  0  0  0  0  0
    3.8156   -0.3303   -4.4038 H   0  0  0  0  0  0  0  0  0  0  0  0
    2.8170   -2.7747   -4.0400 H   0  0  0  0  0  0  0  0  0  0  0  0
    5.0999   -4.4115   -4.2985 H   0  0  0  0  0  0  0  0  0  0  0  0
    6.4329   -2.3515   -2.7208 H   0  0  0  0  0  0  0  0  0  0  0  0
    6.0937   -3.1247    1.8172 H   0  0  0  0  0  0  0  0  0  0  0  0
    7.8568   -4.9960    0.2812 H   0  0  0  0  0  0  0  0  0  0  0  0
    7.7744   -4.6675    2.0010 H   0  0  0  0  0  0  0  0  0  0  0  0
    5.7858   -6.2724    0.2862 H   0  0  0  0  0  0  0  0  0  0  0  0
    6.7111   -6.8182    1.6290 H   0  0  0  0  0  0  0  0  0  0  0  0
    5.8595   -4.4652    3.7143 H   0  0  0  0  0  0  0  0  0  0  0  0
    6.2071   -6.1849    3.9230 H   0  0  0  0  0  0  0  0  0  0  0  0
    4.6039   -5.5649    4.3033 H   0  0  0  0  0  0  0  0  0  0  0  0
    2.9206   -5.5681    2.1651 H   0  0  0  0  0  0  0  0  0  0  0  0
    3.9193   -5.5235   -0.4334 H   0  0  0  0  0  0  0  0  0  0  0  0
    2.4764   -4.7181    0.0649 H   0  0  0  0  0  0  0  0  0  0  0  0
    3.1962   -3.5130    4.4959 H   0  0  0  0  0  0  0  0  0  0  0  0
    2.8934   -1.0216    4.4987 H   0  0  0  0  0  0  0  0  0  0  0  0
    2.8539    0.9457    1.5154 H   0  0  0  0  0  0  0  0  0  0  0  0
    2.4235   -2.5264   -1.2086 H   0  0  0  0  0  0  0  0  0  0  0  0
    4.6440   -6.6868    2.2805 H   0  0  0  0  0  0  0  0  0  0  0  0
  1  2  1  0
  1 26  1  0
  1 27  1  0
  1 28  1  0
  3  2  1  6
  3  6  1  0
  3 25  1  0
  3  4  1  0
  4  5  2  0
  4 29  1  0
  5  6  1  0
  5 30  1  0
  6  7  1  0
  6 31  1  6
  7  8  1  0
  8 16  1  0
  8  9  2  3
  9 10  1  0
  9 32  1  0
 10 11  1  0
 10 33  1  0
 10 34  1  0
 11 12  1  0
 11 35  1  0
 11 36  1  0
 12 13  1  0
 12 14  1  0
 12 47  1  1
 13 37  1  0
 13 38  1  0
 13 39  1  0
 14 18  1  0
 14 15  1  0
 14 40  1  1
 16 15  1  6
 15 41  1  0
 15 42  1  0
 16 25  1  0
 16 17  1  0
 17 23  1  0
 17 18  2  0
 18 19  1  0
 19 20  2  0
 19 43  1  0
 20 21  1  0
 20 44  1  0
 21 22  1  0
 21 23  2  0
 22 45  1  0
 23 24  1  0
 24 25  1  0
 25 46  1  6
M  CHG  1  12   1
M  END
>  <i_m_ct_stereo_status>  (182) 
1

>  <s_m_source_file>  (182) 
/var/tmp/pbs.5076255.sched01/tmpzygr1bk5/76dkit4mfj.sdf

>  <i_m_source_file_index>  (182) 
5

>  <i_lp_mmshare_version>  (182) 
48012

>  <i_f3d_flags>  (182) 
0

>  <s_epik_input>  (182) 
W0NIXTE9W0NIXVtDQEhdKE8yKVtDQF0xKE9bQ0gzXSlbQ0BASF0zT2MoYyhbT0hdKVtjSF1bY0hdNCljNWM0W0NAQEhdKFtDSDJdNilOKFtDSDNdKVtDSDJdW0NIMl0vW0NIXT1DXDJbQ0BdMzU2

>  <s_epik_cmdline>  (182) 
J2VwaWtfcHl0aG9uJywgJy1waHQnLCAnMi4wJywgJy1waCcsICc3LjAnLCAnLXRuJywgJzgnLCAnLW1hJywgJzIwMCcsICctaW1hZScsICc8aW5maWxlLm1hZT4nLCAnLW9tYWUnLCAnPG91dGZpbGUubWFlPic=

>  <r_lp_tautomer_probability>  (182) 
1

>  <r_epik_Ionization_Penalty>  (182) 
0.191677

>  <r_epik_Ionization_Penalty_Charging>  (182) 
0.140676

>  <r_epik_Ionization_Penalty_Neutral>  (182) 
0.0510005

>  <r_epik_State_Penalty>  (182) 
0.229708

>  <r_epik_Charging_Adjusted_Penalty>  (182) 
0.370385

>  <i_epik_Tot_Q>  (182) 
1

>  <i_epik_Tot_abs_Q>  (182) 
1

>  <s_lp_Force_Field>  (182) 
OPLS3e

>  <r_lp_Energy>  (182) 
100.967

>  <b_lp_Chiralities_Consistent>  (182) 
1

>  <s_lp_Variant>  (182) 
64:0-1

>  <s_i_glide_gridfile>  (182) 
pfpi4k_grid

>  <i_i_glide_lignum>  (182) 
5

>  <i_i_glide_rotatable_bonds>  (182) 
2

>  <r_i_docking_score>  (182) 
-3.50416

>  <r_i_glide_ligand_efficiency>  (182) 
-0.140166

>  <r_i_glide_ligand_efficiency_sa>  (182) 
-0.409849

>  <r_i_glide_ligand_efficiency_ln>  (182) 
-0.83059

>  <r_i_glide_gscore>  (182) 
-3.50416

>  <r_i_glide_lipo>  (182) 
-0.966929

>  <r_i_glide_hbond>  (182) 
0

>  <r_i_glide_metal>  (182) 
-0

>  <r_i_glide_rewards>  (182) 
-1.08823

>  <r_i_glide_evdw>  (182) 
-25.2702

>  <r_i_glide_ecoul>  (182) 
-1.2366

>  <r_i_glide_erotb>  (182) 
0

>  <r_i_glide_esite>  (182) 
0

>  <r_i_glide_emodel>  (182) 
-34.3039

>  <r_i_glide_energy>  (182) 
-26.5068

>  <r_i_glide_einternal>  (182) 
1.23009

>  <r_i_glide_intrahb_reward>  (182) 
-0

>  <i_i_glide_confnum>  (182) 
1

>  <i_i_glide_posenum>  (182) 
13

>  <r_i_glide_eff_state_penalty>  (182) 
0

>  <ligand_id>  (182) 
64

>  <original_smiles>  (182) 
COC12C=CC1OC1=CCCN(C)C3CC14c1c3ccc(O)c1OC42

>  <smiles>  (182) 
[H]Oc1c([H])c([H])c2c3c1OC1([H])C4(OC([H])([H])[H])C([H])=C([H])C4([H])OC4=C([H])C([H])([H])C([H])([H])[N+]([H])(C([H])([H])[H])C2([H])C([H])([H])C431

$$$$
64:0:1
     RDKit          3D

 47 52  0  0  1  0  0  0  0  0999 V2000
    3.2815   -2.7788    1.8811 C   0  0  0  0  0  0  0  0  0  0  0  0
    2.6830   -4.0689    2.0081 O   0  0  0  0  0  0  0  0  0  0  0  0
    3.4727   -5.2230    1.6937 C   0  0  1  0  0  0  0  0  0  0  0  0
    4.4866   -4.9995    0.5761 C   0  0  0  0  0  0  0  0  0  0  0  0
    5.5526   -5.1830    1.3698 C   0  0  0  0  0  0  0  0  0  0  0  0
    4.7184   -5.4089    2.6161 C   0  0  2  0  0  0  0  0  0  0  0  0
    4.9248   -6.7024    3.1870 O   0  0  0  0  0  0  0  0  0  0  0  0
    3.7456   -7.3209    3.4769 C   0  0  0  0  0  0  0  0  0  0  0  0
    3.5508   -7.9856    4.6258 C   0  0  0  0  0  0  0  0  0  0  0  0
    4.6368   -8.8553    5.1933 C   0  0  0  0  0  0  0  0  0  0  0  0
    5.0032   -9.9538    4.1541 C   0  0  0  0  0  0  0  0  0  0  0  0
    3.8591  -10.7283    3.5454 N   0  0  1  0  0  0  0  0  0  0  0  0
    3.0435  -11.4609    4.5528 C   0  0  0  0  0  0  0  0  0  0  0  0
    3.0745  -10.1644    2.3797 C   0  0  2  0  0  0  0  0  0  0  0  0
    3.6936   -8.9394    1.5955 C   0  0  0  0  0  0  0  0  0  0  0  0
    2.9968   -7.6992    2.2125 C   0  0  1  0  0  0  0  0  0  0  0  0
    1.7077   -8.3046    2.4851 C   0  0  0  0  0  0  0  0  0  0  0  0
    1.6651   -9.6623    2.7102 C   0  0  0  0  0  0  0  0  0  0  0  0
    0.3976  -10.1922    3.0124 C   0  0  0  0  0  0  0  0  0  0  0  0
   -0.7067   -9.2841    3.0570 C   0  0  0  0  0  0  0  0  0  0  0  0
   -0.5663   -7.8994    2.7367 C   0  0  0  0  0  0  0  0  0  0  0  0
   -1.6491   -7.0680    2.7696 O   0  0  0  0  0  0  0  0  0  0  0  0
    0.7053   -7.3925    2.3858 C   0  0  0  0  0  0  0  0  0  0  0  0
    1.1650   -6.1915    1.9042 O   0  0  0  0  0  0  0  0  0  0  0  0
    2.5371   -6.4261    1.4387 C   0  0  1  0  0  0  0  0  0  0  0  0
    2.5834   -2.0114    2.2138 H   0  0  0  0  0  0  0  0  0  0  0  0
    3.5166   -2.5648    0.8388 H   0  0  0  0  0  0  0  0  0  0  0  0
    4.1925   -2.6671    2.4708 H   0  0  0  0  0  0  0  0  0  0  0  0
    4.3741   -4.7366   -0.4714 H   0  0  0  0  0  0  0  0  0  0  0  0
    6.6239   -5.1237    1.2008 H   0  0  0  0  0  0  0  0  0  0  0  0
    4.7751   -4.6433    3.3856 H   0  0  0  0  0  0  0  0  0  0  0  0
    2.6012   -8.4738    4.7865 H   0  0  0  0  0  0  0  0  0  0  0  0
    5.5121   -8.2579    5.4453 H   0  0  0  0  0  0  0  0  0  0  0  0
    4.2676   -9.2937    6.1253 H   0  0  0  0  0  0  0  0  0  0  0  0
    5.6426   -9.5368    3.3773 H   0  0  0  0  0  0  0  0  0  0  0  0
    5.6373  -10.6747    4.6657 H   0  0  0  0  0  0  0  0  0  0  0  0
    2.4155  -10.7845    5.1365 H   0  0  0  0  0  0  0  0  0  0  0  0
    3.6819  -12.0059    5.2487 H   0  0  0  0  0  0  0  0  0  0  0  0
    2.3966  -12.1926    4.0617 H   0  0  0  0  0  0  0  0  0  0  0  0
    2.9801  -10.9920    1.6867 H   0  0  0  0  0  0  0  0  0  0  0  0
    4.7807   -8.8976    1.5232 H   0  0  0  0  0  0  0  0  0  0  0  0
    3.3534   -9.0326    0.5662 H   0  0  0  0  0  0  0  0  0  0  0  0
    0.2531  -11.2474    3.2000 H   0  0  0  0  0  0  0  0  0  0  0  0
   -1.6799   -9.6763    3.3178 H   0  0  0  0  0  0  0  0  0  0  0  0
   -2.4385   -7.5399    2.9969 H   0  0  0  0  0  0  0  0  0  0  0  0
    2.4439   -6.6330    0.3734 H   0  0  0  0  0  0  0  0  0  0  0  0
    4.3603  -11.4755    3.0762 H   0  0  0  0  0  0  0  0  0  0  0  0
  1  2  1  0
  1 26  1  0
  1 27  1  0
  1 28  1  0
  3  2  1  1
  3  6  1  0
  3 25  1  0
  3  4  1  0
  4  5  2  0
  4 29  1  0
  5  6  1  0
  5 30  1  0
  6  7  1  0
  6 31  1  1
  7  8  1  0
  8 16  1  0
  8  9  2  3
  9 10  1  0
  9 32  1  0
 10 11  1  0
 10 33  1  0
 10 34  1  0
 11 12  1  0
 11 35  1  0
 11 36  1  0
 12 13  1  0
 12 14  1  0
 12 47  1  6
 13 37  1  0
 13 38  1  0
 13 39  1  0
 14 18  1  0
 14 15  1  0
 14 40  1  6
 16 15  1  6
 15 41  1  0
 15 42  1  0
 16 25  1  0
 16 17  1  0
 17 23  1  0
 17 18  2  0
 18 19  1  0
 19 20  2  0
 19 43  1  0
 20 21  1  0
 20 44  1  0
 21 22  1  0
 21 23  2  0
 22 45  1  0
 23 24  1  0
 24 25  1  0
 25 46  1  6
M  CHG  1  12   1
M  END
>  <i_m_ct_stereo_status>  (183) 
1

>  <s_m_source_file>  (183) 
/var/tmp/pbs.5076255.sched01/tmpzygr1bk5/76dkit4mfj.sdf

>  <i_m_source_file_index>  (183) 
5

>  <i_lp_mmshare_version>  (183) 
48012

>  <i_f3d_flags>  (183) 
0

>  <s_epik_input>  (183) 
W0NIXTE9W0NIXVtDQEhdKE8yKVtDQF0xKE9bQ0gzXSlbQ0BASF0zT2MoYyhbT0hdKVtjSF1bY0hdNCljNWM0W0NAQEhdKFtDSDJdNilOKFtDSDNdKVtDSDJdW0NIMl0vW0NIXT1DXDJbQ0BdMzU2

>  <s_epik_cmdline>  (183) 
J2VwaWtfcHl0aG9uJywgJy1waHQnLCAnMi4wJywgJy1waCcsICc3LjAnLCAnLXRuJywgJzgnLCAnLW1hJywgJzIwMCcsICctaW1hZScsICc8aW5maWxlLm1hZT4nLCAnLW9tYWUnLCAnPG91dGZpbGUubWFlPic=

>  <r_lp_tautomer_probability>  (183) 
1

>  <r_epik_Ionization_Penalty>  (183) 
0.191677

>  <r_epik_Ionization_Penalty_Charging>  (183) 
0.140676

>  <r_epik_Ionization_Penalty_Neutral>  (183) 
0.0510005

>  <r_epik_State_Penalty>  (183) 
0.229708

>  <r_epik_Charging_Adjusted_Penalty>  (183) 
0.370385

>  <i_epik_Tot_Q>  (183) 
1

>  <i_epik_Tot_abs_Q>  (183) 
1

>  <s_lp_Force_Field>  (183) 
OPLS3e

>  <r_lp_Energy>  (183) 
100.967

>  <b_lp_Chiralities_Consistent>  (183) 
1

>  <s_lp_Variant>  (183) 
64:0-1

>  <s_i_glide_gridfile>  (183) 
pfpi4k_grid

>  <i_i_glide_lignum>  (183) 
5

>  <i_i_glide_rotatable_bonds>  (183) 
2

>  <r_i_docking_score>  (183) 
-3.26321

>  <r_i_glide_ligand_efficiency>  (183) 
-0.130528

>  <r_i_glide_ligand_efficiency_sa>  (183) 
-0.381667

>  <r_i_glide_ligand_efficiency_ln>  (183) 
-0.773478

>  <r_i_glide_gscore>  (183) 
-3.26321

>  <r_i_glide_lipo>  (183) 
-0.217795

>  <r_i_glide_hbond>  (183) 
-0.045822

>  <r_i_glide_metal>  (183) 
-0

>  <r_i_glide_rewards>  (183) 
-1.08823

>  <r_i_glide_evdw>  (183) 
-19.7234

>  <r_i_glide_ecoul>  (183) 
-6.0021

>  <r_i_glide_erotb>  (183) 
0

>  <r_i_glide_esite>  (183) 
-0.0248739

>  <r_i_glide_emodel>  (183) 
-32.3203

>  <r_i_glide_energy>  (183) 
-25.7255

>  <r_i_glide_einternal>  (183) 
2.73513

>  <r_i_glide_intrahb_reward>  (183) 
-0

>  <i_i_glide_confnum>  (183) 
2

>  <i_i_glide_posenum>  (183) 
20

>  <r_i_glide_eff_state_penalty>  (183) 
0

>  <ligand_id>  (183) 
64

>  <original_smiles>  (183) 
COC12C=CC1OC1=CCCN(C)C3CC14c1c3ccc(O)c1OC42

>  <smiles>  (183) 
[H]Oc1c([H])c([H])c2c3c1OC1([H])C4(OC([H])([H])[H])C([H])=C([H])C4([H])OC4=C([H])C([H])([H])C([H])([H])[N+]([H])(C([H])([H])[H])C2([H])C([H])([H])C431

$$$$
64:0:2
     RDKit          3D

 47 52  0  0  1  0  0  0  0  0999 V2000
    3.3760   -0.1504   -3.9841 C   0  0  0  0  0  0  0  0  0  0  0  0
    3.9169   -0.6629   -2.7661 O   0  0  0  0  0  0  0  0  0  0  0  0
    3.7980   -2.0681   -2.4791 C   0  0  1  0  0  0  0  0  0  0  0  0
    3.0083   -2.8837   -3.5021 C   0  0  0  0  0  0  0  0  0  0  0  0
    4.0697   -3.5722   -3.9192 C   0  0  0  0  0  0  0  0  0  0  0  0
    5.0291   -2.8719   -2.9997 C   0  0  2  0  0  0  0  0  0  0  0  0
    5.7000   -3.7431   -2.0932 O   0  0  0  0  0  0  0  0  0  0  0  0
    5.6823   -3.2510   -0.8229 C   0  0  0  0  0  0  0  0  0  0  0  0
    6.7542   -3.2716   -0.0111 C   0  0  0  0  0  0  0  0  0  0  0  0
    7.6631   -4.4653    0.0766 C   0  0  0  0  0  0  0  0  0  0  0  0
    6.7998   -5.7294    0.4277 C   0  0  0  0  0  0  0  0  0  0  0  0
    5.8779   -5.6697    1.6057 N   0  0  1  0  0  0  0  0  0  0  0  0
    6.6130   -5.3718    2.8330 C   0  0  0  0  0  0  0  0  0  0  0  0
    4.5348   -4.9750    1.5136 C   0  0  2  0  0  0  0  0  0  0  0  0
    3.9310   -4.7570    0.0759 C   0  0  0  0  0  0  0  0  0  0  0  0
    4.2665   -3.2820   -0.2697 C   0  0  1  0  0  0  0  0  0  0  0  0
    4.1934   -2.7319    1.0720 C   0  0  0  0  0  0  0  0  0  0  0  0
    4.4446   -3.5695    2.1323 C   0  0  0  0  0  0  0  0  0  0  0  0
    4.3973   -2.9717    3.4078 C   0  0  0  0  0  0  0  0  0  0  0  0
    4.0917   -1.5719    3.4719 C   0  0  0  0  0  0  0  0  0  0  0  0
    3.7586   -0.8136    2.3070 C   0  0  0  0  0  0  0  0  0  0  0  0
    3.4028    0.5015    2.4122 O   0  0  0  0  0  0  0  0  0  0  0  0
    3.7844   -1.4320    1.0357 C   0  0  0  0  0  0  0  0  0  0  0  0
    3.4186   -1.0632   -0.2357 O   0  0  0  0  0  0  0  0  0  0  0  0
    3.3325   -2.2920   -1.0257 C   0  0  1  0  0  0  0  0  0  0  0  0
    3.5099    0.9321   -4.0265 H   0  0  0  0  0  0  0  0  0  0  0  0
    2.3059   -0.3352   -4.0648 H   0  0  0  0  0  0  0  0  0  0  0  0
    3.8728   -0.5775   -4.8549 H   0  0  0  0  0  0  0  0  0  0  0  0
    1.9631   -2.8727   -3.8152 H   0  0  0  0  0  0  0  0  0  0  0  0
    4.2255   -4.3216   -4.6881 H   0  0  0  0  0  0  0  0  0  0  0  0
    5.7585   -2.2744   -3.5208 H   0  0  0  0  0  0  0  0  0  0  0  0
    6.6364   -2.8954    0.9928 H   0  0  0  0  0  0  0  0  0  0  0  0
    8.2638   -4.5546   -0.8314 H   0  0  0  0  0  0  0  0  0  0  0  0
    8.4319   -4.2800    0.8283 H   0  0  0  0  0  0  0  0  0  0  0  0
    6.1659   -6.0397   -0.3834 H   0  0  0  0  0  0  0  0  0  0  0  0
    7.4938   -6.5538    0.5846 H   0  0  0  0  0  0  0  0  0  0  0  0
    6.8571   -4.3356    2.6662 H   0  0  0  0  0  0  0  0  0  0  0  0
    7.5395   -5.9461    2.9280 H   0  0  0  0  0  0  0  0  0  0  0  0
    6.0107   -5.4921    3.7385 H   0  0  0  0  0  0  0  0  0  0  0  0
    3.8560   -5.6017    2.0818 H   0  0  0  0  0  0  0  0  0  0  0  0
    4.1685   -5.4969   -0.6926 H   0  0  0  0  0  0  0  0  0  0  0  0
    2.8497   -4.8066    0.1834 H   0  0  0  0  0  0  0  0  0  0  0  0
    4.5688   -3.5444    4.3092 H   0  0  0  0  0  0  0  0  0  0  0  0
    4.0813   -1.0914    4.4410 H   0  0  0  0  0  0  0  0  0  0  0  0
    3.4589    0.8505    3.2902 H   0  0  0  0  0  0  0  0  0  0  0  0
    2.2964   -2.6509   -0.9878 H   0  0  0  0  0  0  0  0  0  0  0  0
    5.6189   -6.6336    1.7137 H   0  0  0  0  0  0  0  0  0  0  0  0
  1  2  1  0
  1 26  1  0
  1 27  1  0
  1 28  1  0
  3  2  1  6
  3  6  1  0
  3 25  1  0
  3  4  1  0
  4  5  2  0
  4 29  1  0
  5  6  1  0
  5 30  1  0
  6  7  1  0
  6 31  1  6
  7  8  1  0
  8 16  1  0
  8  9  2  3
  9 10  1  0
  9 32  1  0
 10 11  1  0
 10 33  1  0
 10 34  1  0
 11 12  1  0
 11 35  1  0
 11 36  1  0
 12 13  1  0
 12 14  1  0
 12 47  1  1
 13 37  1  0
 13 38  1  0
 13 39  1  0
 14 18  1  0
 14 15  1  0
 14 40  1  1
 16 15  1  1
 15 41  1  0
 15 42  1  0
 16 25  1  0
 16 17  1  0
 17 23  1  0
 17 18  2  0
 18 19  1  0
 19 20  2  0
 19 43  1  0
 20 21  1  0
 20 44  1  0
 21 22  1  0
 21 23  2  0
 22 45  1  0
 23 24  1  0
 24 25  1  0
 25 46  1  6
M  CHG  1  12   1
M  END
>  <i_m_ct_stereo_status>  (184) 
1

>  <s_m_source_file>  (184) 
/var/tmp/pbs.5076255.sched01/tmpzygr1bk5/76dkit4mfj.sdf

>  <i_m_source_file_index>  (184) 
5

>  <i_lp_mmshare_version>  (184) 
48012

>  <i_f3d_flags>  (184) 
0

>  <s_epik_input>  (184) 
W0NIXTE9W0NIXVtDQEhdKE8yKVtDQF0xKE9bQ0gzXSlbQ0BASF0zT2MoYyhbT0hdKVtjSF1bY0hdNCljNWM0W0NAQEhdKFtDSDJdNilOKFtDSDNdKVtDSDJdW0NIMl0vW0NIXT1DXDJbQ0BdMzU2

>  <s_epik_cmdline>  (184) 
J2VwaWtfcHl0aG9uJywgJy1waHQnLCAnMi4wJywgJy1waCcsICc3LjAnLCAnLXRuJywgJzgnLCAnLW1hJywgJzIwMCcsICctaW1hZScsICc8aW5maWxlLm1hZT4nLCAnLW9tYWUnLCAnPG91dGZpbGUubWFlPic=

>  <r_lp_tautomer_probability>  (184) 
1

>  <r_epik_Ionization_Penalty>  (184) 
0.191677

>  <r_epik_Ionization_Penalty_Charging>  (184) 
0.140676

>  <r_epik_Ionization_Penalty_Neutral>  (184) 
0.0510005

>  <r_epik_State_Penalty>  (184) 
0.229708

>  <r_epik_Charging_Adjusted_Penalty>  (184) 
0.370385

>  <i_epik_Tot_Q>  (184) 
1

>  <i_epik_Tot_abs_Q>  (184) 
1

>  <s_lp_Force_Field>  (184) 
OPLS3e

>  <r_lp_Energy>  (184) 
100.967

>  <b_lp_Chiralities_Consistent>  (184) 
1

>  <s_lp_Variant>  (184) 
64:0-1

>  <s_i_glide_gridfile>  (184) 
pfpi4k_grid

>  <i_i_glide_lignum>  (184) 
5

>  <i_i_glide_rotatable_bonds>  (184) 
2

>  <r_i_docking_score>  (184) 
-3.23718

>  <r_i_glide_ligand_efficiency>  (184) 
-0.129487

>  <r_i_glide_ligand_efficiency_sa>  (184) 
-0.378623

>  <r_i_glide_ligand_efficiency_ln>  (184) 
-0.767309

>  <r_i_glide_gscore>  (184) 
-3.23718

>  <r_i_glide_lipo>  (184) 
-1.05454

>  <r_i_glide_hbond>  (184) 
0

>  <r_i_glide_metal>  (184) 
-0

>  <r_i_glide_rewards>  (184) 
-1.08823

>  <r_i_glide_evdw>  (184) 
-21.6145

>  <r_i_glide_ecoul>  (184) 
-0.0912161

>  <r_i_glide_erotb>  (184) 
0

>  <r_i_glide_esite>  (184) 
0

>  <r_i_glide_emodel>  (184) 
-27.4375

>  <r_i_glide_energy>  (184) 
-21.7057

>  <r_i_glide_einternal>  (184) 
3.25323

>  <r_i_glide_intrahb_reward>  (184) 
-0

>  <i_i_glide_confnum>  (184) 
1

>  <i_i_glide_posenum>  (184) 
25

>  <r_i_glide_eff_state_penalty>  (184) 
0

>  <ligand_id>  (184) 
64

>  <original_smiles>  (184) 
COC12C=CC1OC1=CCCN(C)C3CC14c1c3ccc(O)c1OC42

>  <smiles>  (184) 
[H]Oc1c([H])c([H])c2c3c1OC1([H])C4(OC([H])([H])[H])C([H])=C([H])C4([H])OC4=C([H])C([H])([H])C([H])([H])[N+]([H])(C([H])([H])[H])C2([H])C([H])([H])C431

$$$$
64:1:0
     RDKit          3D

 47 52  0  0  1  0  0  0  0  0999 V2000
    2.8513   -4.2130    0.3224 C   0  0  0  0  0  0  0  0  0  0  0  0
    3.3337   -4.5591    1.6153 O   0  0  0  0  0  0  0  0  0  0  0  0
    4.0257   -5.8025    1.7324 C   0  0  1  0  0  0  0  0  0  0  0  0
    5.2735   -5.8485    0.8580 C   0  0  0  0  0  0  0  0  0  0  0  0
    6.1044   -5.6193    1.8806 C   0  0  0  0  0  0  0  0  0  0  0  0
    5.0035   -5.7218    2.9173 C   0  0  2  0  0  0  0  0  0  0  0  0
    5.1855   -6.8864    3.7023 O   0  0  0  0  0  0  0  0  0  0  0  0
    4.0908   -7.6795    3.9159 C   0  0  0  0  0  0  0  0  0  0  0  0
    3.8709   -8.0490    5.1919 C   0  0  0  0  0  0  0  0  0  0  0  0
    2.7751   -8.9459    5.7411 C   0  0  0  0  0  0  0  0  0  0  0  0
    3.0452  -10.4658    5.6179 C   0  0  0  0  0  0  0  0  0  0  0  0
    3.7013  -10.9531    4.3593 N   0  0  1  0  0  0  0  0  0  0  0  0
    3.9678  -12.4113    4.4725 C   0  0  0  0  0  0  0  0  0  0  0  0
    3.0988  -10.6049    3.0292 C   0  0  2  0  0  0  0  0  0  0  0  0
    3.9698   -9.5474    2.2522 C   0  0  0  0  0  0  0  0  0  0  0  0
    3.3767   -8.1724    2.6416 C   0  0  1  0  0  0  0  0  0  0  0  0
    1.9860   -8.6117    2.8190 C   0  0  0  0  0  0  0  0  0  0  0  0
    1.7441   -9.9351    3.1017 C   0  0  0  0  0  0  0  0  0  0  0  0
    0.4029  -10.3129    3.2702 C   0  0  0  0  0  0  0  0  0  0  0  0
   -0.5978   -9.3076    3.1042 C   0  0  0  0  0  0  0  0  0  0  0  0
   -0.2671   -7.9793    2.6942 C   0  0  0  0  0  0  0  0  0  0  0  0
   -1.2540   -7.0607    2.4824 O   0  0  0  0  0  0  0  0  0  0  0  0
    1.0907   -7.6367    2.4989 C   0  0  0  0  0  0  0  0  0  0  0  0
    1.7218   -6.5648    1.9389 O   0  0  0  0  0  0  0  0  0  0  0  0
    3.0832   -7.0040    1.6315 C   0  0  1  0  0  0  0  0  0  0  0  0
    2.2448   -3.3109    0.4041 H   0  0  0  0  0  0  0  0  0  0  0  0
    2.2238   -4.9923   -0.1083 H   0  0  0  0  0  0  0  0  0  0  0  0
    3.6640   -3.9977   -0.3708 H   0  0  0  0  0  0  0  0  0  0  0  0
    5.4226   -5.9409   -0.2147 H   0  0  0  0  0  0  0  0  0  0  0  0
    7.1776   -5.4629    1.9556 H   0  0  0  0  0  0  0  0  0  0  0  0
    4.8279   -4.8455    3.5377 H   0  0  0  0  0  0  0  0  0  0  0  0
    4.5371   -7.6485    5.9453 H   0  0  0  0  0  0  0  0  0  0  0  0
    2.6542   -8.6998    6.7965 H   0  0  0  0  0  0  0  0  0  0  0  0
    1.8105   -8.6645    5.3221 H   0  0  0  0  0  0  0  0  0  0  0  0
    3.7053  -10.7305    6.4431 H   0  0  0  0  0  0  0  0  0  0  0  0
    2.1177  -11.0093    5.7970 H   0  0  0  0  0  0  0  0  0  0  0  0
    3.0331  -12.9798    4.4831 H   0  0  0  0  0  0  0  0  0  0  0  0
    4.5001  -12.6441    5.3996 H   0  0  0  0  0  0  0  0  0  0  0  0
    4.5816  -12.7679    3.6396 H   0  0  0  0  0  0  0  0  0  0  0  0
    2.9998  -11.4979    2.4172 H   0  0  0  0  0  0  0  0  0  0  0  0
    5.0473   -9.6426    2.3931 H   0  0  0  0  0  0  0  0  0  0  0  0
    3.7880   -9.6971    1.1880 H   0  0  0  0  0  0  0  0  0  0  0  0
    0.1428  -11.3330    3.5137 H   0  0  0  0  0  0  0  0  0  0  0  0
   -1.6308   -9.5851    3.2599 H   0  0  0  0  0  0  0  0  0  0  0  0
   -2.1040   -7.4605    2.5955 H   0  0  0  0  0  0  0  0  0  0  0  0
    3.0526   -7.3792    0.6110 H   0  0  0  0  0  0  0  0  0  0  0  0
    4.6144  -10.5184    4.3466 H   0  0  0  0  0  0  0  0  0  0  0  0
  1  2  1  0
  1 26  1  0
  1 27  1  0
  1 28  1  0
  3  2  1  6
  3  6  1  0
  3 25  1  0
  3  4  1  0
  4  5  2  0
  4 29  1  0
  5  6  1  0
  5 30  1  0
  6  7  1  0
  6 31  1  1
  7  8  1  0
  8 16  1  0
  8  9  2  3
  9 10  1  0
  9 32  1  0
 10 11  1  0
 10 33  1  0
 10 34  1  0
 11 12  1  0
 11 35  1  0
 11 36  1  0
 12 13  1  0
 12 14  1  0
 12 47  1  6
 13 37  1  0
 13 38  1  0
 13 39  1  0
 14 18  1  0
 14 15  1  0
 14 40  1  6
 16 15  1  6
 15 41  1  0
 15 42  1  0
 16 25  1  0
 16 17  1  0
 17 23  1  0
 17 18  2  0
 18 19  1  0
 19 20  2  0
 19 43  1  0
 20 21  1  0
 20 44  1  0
 21 22  1  0
 21 23  2  0
 22 45  1  0
 23 24  1  0
 24 25  1  0
 25 46  1  6
M  CHG  1  12   1
M  END
>  <i_m_ct_stereo_status>  (185) 
1

>  <s_m_source_file>  (185) 
/var/tmp/pbs.5076255.sched01/tmpzygr1bk5/76dkit4mfj.sdf

>  <i_m_source_file_index>  (185) 
6

>  <i_lp_mmshare_version>  (185) 
48012

>  <i_f3d_flags>  (185) 
0

>  <s_epik_input>  (185) 
W0NIXTE9W0NIXVtDQEhdKE8yKVtDQF0xKE9bQ0gzXSlbQ0BASF0zT2MoYyhbT0hdKVtjSF1bY0hdNCljNWM0W0NAQEhdKFtDSDJdNilOKFtDSDNdKVtDSDJdW0NIMl0vW0NIXT1DXDJbQ0BdMzU2

>  <s_epik_cmdline>  (185) 
J2VwaWtfcHl0aG9uJywgJy1waHQnLCAnMi4wJywgJy1waCcsICc3LjAnLCAnLXRuJywgJzgnLCAnLW1hJywgJzIwMCcsICctaW1hZScsICc8aW5maWxlLm1hZT4nLCAnLW9tYWUnLCAnPG91dGZpbGUubWFlPic=

>  <r_lp_tautomer_probability>  (185) 
1

>  <r_epik_Ionization_Penalty>  (185) 
0.191677

>  <r_epik_Ionization_Penalty_Charging>  (185) 
0.140676

>  <r_epik_Ionization_Penalty_Neutral>  (185) 
0.0510005

>  <r_epik_State_Penalty>  (185) 
0.229708

>  <r_epik_Charging_Adjusted_Penalty>  (185) 
0.370385

>  <i_epik_Tot_Q>  (185) 
1

>  <i_epik_Tot_abs_Q>  (185) 
1

>  <s_lp_Force_Field>  (185) 
OPLS3e

>  <r_lp_Energy>  (185) 
74.2403

>  <b_lp_Chiralities_Consistent>  (185) 
1

>  <s_lp_Variant>  (185) 
64:0-2

>  <s_i_glide_gridfile>  (185) 
pfpi4k_grid

>  <i_i_glide_lignum>  (185) 
6

>  <i_i_glide_rotatable_bonds>  (185) 
2

>  <r_i_docking_score>  (185) 
-3.32655

>  <r_i_glide_ligand_efficiency>  (185) 
-0.133062

>  <r_i_glide_ligand_efficiency_sa>  (185) 
-0.389075

>  <r_i_glide_ligand_efficiency_ln>  (185) 
-0.788492

>  <r_i_glide_gscore>  (185) 
-3.32655

>  <r_i_glide_lipo>  (185) 
-0.278992

>  <r_i_glide_hbond>  (185) 
0

>  <r_i_glide_metal>  (185) 
-0

>  <r_i_glide_rewards>  (185) 
-1.08823

>  <r_i_glide_evdw>  (185) 
-20.4225

>  <r_i_glide_ecoul>  (185) 
-6.17508

>  <r_i_glide_erotb>  (185) 
0

>  <r_i_glide_esite>  (185) 
-0.0119389

>  <r_i_glide_emodel>  (185) 
-34.5383

>  <r_i_glide_energy>  (185) 
-26.5976

>  <r_i_glide_einternal>  (185) 
0.0310378

>  <r_i_glide_intrahb_reward>  (185) 
-0

>  <i_i_glide_confnum>  (185) 
1

>  <i_i_glide_posenum>  (185) 
1

>  <r_i_glide_eff_state_penalty>  (185) 
0

>  <ligand_id>  (185) 
64

>  <original_smiles>  (185) 
COC12C=CC1OC1=CCCN(C)C3CC14c1c3ccc(O)c1OC42

>  <smiles>  (185) 
[H]Oc1c([H])c([H])c2c3c1OC1([H])C4(OC([H])([H])[H])C([H])=C([H])C4([H])OC4=C([H])C([H])([H])C([H])([H])[N+]([H])(C([H])([H])[H])C2([H])C([H])([H])C431

$$$$
64:1:1
     RDKit          3D

 47 52  0  0  1  0  0  0  0  0999 V2000
    3.0637   -2.7220    1.4371 C   0  0  0  0  0  0  0  0  0  0  0  0
    2.5103   -4.0205    1.6701 O   0  0  0  0  0  0  0  0  0  0  0  0
    3.3793   -5.1623    1.6537 C   0  0  1  0  0  0  0  0  0  0  0  0
    4.5153   -5.0230    0.6470 C   0  0  0  0  0  0  0  0  0  0  0  0
    5.4379   -4.8072    1.5933 C   0  0  0  0  0  0  0  0  0  0  0  0
    4.4801   -5.1225    2.7274 C   0  0  2  0  0  0  0  0  0  0  0  0
    4.8496   -6.3423    3.3393 O   0  0  0  0  0  0  0  0  0  0  0  0
    3.8602   -7.2628    3.5600 C   0  0  0  0  0  0  0  0  0  0  0  0
    3.8259   -7.7986    4.7931 C   0  0  0  0  0  0  0  0  0  0  0  0
    2.8914   -8.8652    5.3339 C   0  0  0  0  0  0  0  0  0  0  0  0
    3.2914  -10.3205    4.9883 C   0  0  0  0  0  0  0  0  0  0  0  0
    3.8391  -10.5817    3.6152 N   0  0  1  0  0  0  0  0  0  0  0  0
    4.2527  -12.0052    3.5029 C   0  0  0  0  0  0  0  0  0  0  0  0
    3.0534  -10.1429    2.4165 C   0  0  2  0  0  0  0  0  0  0  0  0
    3.7202   -8.9182    1.6909 C   0  0  0  0  0  0  0  0  0  0  0  0
    3.0485   -7.6732    2.3147 C   0  0  1  0  0  0  0  0  0  0  0  0
    1.7365   -8.2804    2.5778 C   0  0  0  0  0  0  0  0  0  0  0  0
    1.6553   -9.6473    2.7139 C   0  0  0  0  0  0  0  0  0  0  0  0
    0.3838  -10.1891    2.9665 C   0  0  0  0  0  0  0  0  0  0  0  0
   -0.7190   -9.2845    3.0362 C   0  0  0  0  0  0  0  0  0  0  0  0
   -0.5620   -7.8896    2.7745 C   0  0  0  0  0  0  0  0  0  0  0  0
   -1.6413   -7.0552    2.8061 O   0  0  0  0  0  0  0  0  0  0  0  0
    0.7221   -7.3780    2.4778 C   0  0  0  0  0  0  0  0  0  0  0  0
    1.1781   -6.1807    2.0050 O   0  0  0  0  0  0  0  0  0  0  0  0
    2.5311   -6.4272    1.5064 C   0  0  1  0  0  0  0  0  0  0  0  0
    2.3014   -1.9525    1.5608 H   0  0  0  0  0  0  0  0  0  0  0  0
    3.4333   -2.6394    0.4145 H   0  0  0  0  0  0  0  0  0  0  0  0
    3.8803   -2.4824    2.1203 H   0  0  0  0  0  0  0  0  0  0  0  0
    4.5305   -4.9695   -0.4388 H   0  0  0  0  0  0  0  0  0  0  0  0
    6.4872   -4.5249    1.5632 H   0  0  0  0  0  0  0  0  0  0  0  0
    4.3024   -4.3507    3.4705 H   0  0  0  0  0  0  0  0  0  0  0  0
    4.5394   -7.4190    5.5124 H   0  0  0  0  0  0  0  0  0  0  0  0
    2.8784   -8.7578    6.4179 H   0  0  0  0  0  0  0  0  0  0  0  0
    1.8618   -8.6409    5.0584 H   0  0  0  0  0  0  0  0  0  0  0  0
    4.0699  -10.6018    5.6964 H   0  0  0  0  0  0  0  0  0  0  0  0
    2.4468  -10.9778    5.1981 H   0  0  0  0  0  0  0  0  0  0  0  0
    3.3819  -12.6671    3.5277 H   0  0  0  0  0  0  0  0  0  0  0  0
    4.9082  -12.2877    4.3319 H   0  0  0  0  0  0  0  0  0  0  0  0
    4.7982  -12.1917    2.5727 H   0  0  0  0  0  0  0  0  0  0  0  0
    2.9859  -10.9539    1.7045 H   0  0  0  0  0  0  0  0  0  0  0  0
    4.8103   -8.9131    1.7014 H   0  0  0  0  0  0  0  0  0  0  0  0
    3.4249   -8.9700    0.6438 H   0  0  0  0  0  0  0  0  0  0  0  0
    0.2388  -11.2520    3.0994 H   0  0  0  0  0  0  0  0  0  0  0  0
   -1.6966   -9.6845    3.2637 H   0  0  0  0  0  0  0  0  0  0  0  0
   -2.4343   -7.5354    2.9952 H   0  0  0  0  0  0  0  0  0  0  0  0
    2.3954   -6.6642    0.4547 H   0  0  0  0  0  0  0  0  0  0  0  0
    4.6995  -10.0520    3.5580 H   0  0  0  0  0  0  0  0  0  0  0  0
  1  2  1  0
  1 26  1  0
  1 27  1  0
  1 28  1  0
  3  2  1  1
  3  6  1  0
  3 25  1  0
  3  4  1  0
  4  5  2  0
  4 29  1  0
  5  6  1  0
  5 30  1  0
  6  7  1  0
  6 31  1  1
  7  8  1  0
  8 16  1  0
  8  9  2  3
  9 10  1  0
  9 32  1  0
 10 11  1  0
 10 33  1  0
 10 34  1  0
 11 12  1  0
 11 35  1  0
 11 36  1  0
 12 13  1  0
 12 14  1  0
 12 47  1  1
 13 37  1  0
 13 38  1  0
 13 39  1  0
 14 18  1  0
 14 15  1  0
 14 40  1  6
 16 15  1  6
 15 41  1  0
 15 42  1  0
 16 25  1  0
 16 17  1  0
 17 23  1  0
 17 18  2  0
 18 19  1  0
 19 20  2  0
 19 43  1  0
 20 21  1  0
 20 44  1  0
 21 22  1  0
 21 23  2  0
 22 45  1  0
 23 24  1  0
 24 25  1  0
 25 46  1  6
M  CHG  1  12   1
M  END
>  <i_m_ct_stereo_status>  (186) 
1

>  <s_m_source_file>  (186) 
/var/tmp/pbs.5076255.sched01/tmpzygr1bk5/76dkit4mfj.sdf

>  <i_m_source_file_index>  (186) 
6

>  <i_lp_mmshare_version>  (186) 
48012

>  <i_f3d_flags>  (186) 
0

>  <s_epik_input>  (186) 
W0NIXTE9W0NIXVtDQEhdKE8yKVtDQF0xKE9bQ0gzXSlbQ0BASF0zT2MoYyhbT0hdKVtjSF1bY0hdNCljNWM0W0NAQEhdKFtDSDJdNilOKFtDSDNdKVtDSDJdW0NIMl0vW0NIXT1DXDJbQ0BdMzU2

>  <s_epik_cmdline>  (186) 
J2VwaWtfcHl0aG9uJywgJy1waHQnLCAnMi4wJywgJy1waCcsICc3LjAnLCAnLXRuJywgJzgnLCAnLW1hJywgJzIwMCcsICctaW1hZScsICc8aW5maWxlLm1hZT4nLCAnLW9tYWUnLCAnPG91dGZpbGUubWFlPic=

>  <r_lp_tautomer_probability>  (186) 
1

>  <r_epik_Ionization_Penalty>  (186) 
0.191677

>  <r_epik_Ionization_Penalty_Charging>  (186) 
0.140676

>  <r_epik_Ionization_Penalty_Neutral>  (186) 
0.0510005

>  <r_epik_State_Penalty>  (186) 
0.229708

>  <r_epik_Charging_Adjusted_Penalty>  (186) 
0.370385

>  <i_epik_Tot_Q>  (186) 
1

>  <i_epik_Tot_abs_Q>  (186) 
1

>  <s_lp_Force_Field>  (186) 
OPLS3e

>  <r_lp_Energy>  (186) 
74.2403

>  <b_lp_Chiralities_Consistent>  (186) 
1

>  <s_lp_Variant>  (186) 
64:0-2

>  <s_i_glide_gridfile>  (186) 
pfpi4k_grid

>  <i_i_glide_lignum>  (186) 
6

>  <i_i_glide_rotatable_bonds>  (186) 
2

>  <r_i_docking_score>  (186) 
-3.21967

>  <r_i_glide_ligand_efficiency>  (186) 
-0.128787

>  <r_i_glide_ligand_efficiency_sa>  (186) 
-0.376575

>  <r_i_glide_ligand_efficiency_ln>  (186) 
-0.763159

>  <r_i_glide_gscore>  (186) 
-3.21967

>  <r_i_glide_lipo>  (186) 
-0.212099

>  <r_i_glide_hbond>  (186) 
-0.0266246

>  <r_i_glide_metal>  (186) 
-0

>  <r_i_glide_rewards>  (186) 
-1.08823

>  <r_i_glide_evdw>  (186) 
-20.0714

>  <r_i_glide_ecoul>  (186) 
-5.78553

>  <r_i_glide_erotb>  (186) 
0

>  <r_i_glide_esite>  (186) 
-0.0213194

>  <r_i_glide_emodel>  (186) 
-31.6538

>  <r_i_glide_energy>  (186) 
-25.8569

>  <r_i_glide_einternal>  (186) 
3.34615

>  <r_i_glide_intrahb_reward>  (186) 
-0

>  <i_i_glide_confnum>  (186) 
1

>  <i_i_glide_posenum>  (186) 
36

>  <r_i_glide_eff_state_penalty>  (186) 
0

>  <ligand_id>  (186) 
64

>  <original_smiles>  (186) 
COC12C=CC1OC1=CCCN(C)C3CC14c1c3ccc(O)c1OC42

>  <smiles>  (186) 
[H]Oc1c([H])c([H])c2c3c1OC1([H])C4(OC([H])([H])[H])C([H])=C([H])C4([H])OC4=C([H])C([H])([H])C([H])([H])[N+]([H])(C([H])([H])[H])C2([H])C([H])([H])C431

$$$$
64:1:2
     RDKit          3D

 47 52  0  0  1  0  0  0  0  0999 V2000
    2.1190   -3.7874   -0.9262 C   0  0  0  0  0  0  0  0  0  0  0  0
    2.8230   -3.7493    0.3104 O   0  0  0  0  0  0  0  0  0  0  0  0
    3.8537   -4.7241    0.4787 C   0  0  1  0  0  0  0  0  0  0  0  0
    4.9716   -4.5494   -0.5404 C   0  0  0  0  0  0  0  0  0  0  0  0
    5.7926   -3.9579    0.3268 C   0  0  0  0  0  0  0  0  0  0  0  0
    4.8752   -4.2053    1.5059 C   0  0  2  0  0  0  0  0  0  0  0  0
    5.4632   -5.1547    2.3826 O   0  0  0  0  0  0  0  0  0  0  0  0
    4.6650   -6.1779    2.8259 C   0  0  0  0  0  0  0  0  0  0  0  0
    4.6842   -6.4029    4.1509 C   0  0  0  0  0  0  0  0  0  0  0  0
    3.9486   -7.4736    4.9344 C   0  0  0  0  0  0  0  0  0  0  0  0
    4.6318   -8.8597    4.9457 C   0  0  0  0  0  0  0  0  0  0  0  0
    5.2804   -9.3270    3.6730 N   0  0  1  0  0  0  0  0  0  0  0  0
    5.9657  -10.6278    3.9117 C   0  0  0  0  0  0  0  0  0  0  0  0
    4.4750   -9.3568    2.4055 C   0  0  2  0  0  0  0  0  0  0  0  0
    4.9301   -8.2231    1.4128 C   0  0  0  0  0  0  0  0  0  0  0  0
    4.0060   -7.0261    1.7256 C   0  0  1  0  0  0  0  0  0  0  0  0
    2.8206   -7.8011    2.1318 C   0  0  0  0  0  0  0  0  0  0  0  0
    2.9948   -9.0848    2.5871 C   0  0  0  0  0  0  0  0  0  0  0  0
    1.8415   -9.7981    2.9718 C   0  0  0  0  0  0  0  0  0  0  0  0
    0.5858   -9.1303    2.8355 C   0  0  0  0  0  0  0  0  0  0  0  0
    0.4825   -7.8316    2.2496 C   0  0  0  0  0  0  0  0  0  0  0  0
   -0.7385   -7.2418    2.0837 O   0  0  0  0  0  0  0  0  0  0  0  0
    1.6585   -7.1629    1.8263 C   0  0  0  0  0  0  0  0  0  0  0  0
    1.9008   -6.0541    1.0696 O   0  0  0  0  0  0  0  0  0  0  0  0
    3.2984   -6.1407    0.6434 C   0  0  1  0  0  0  0  0  0  0  0  0
    1.3140   -3.0629   -0.8805 H   0  0  0  0  0  0  0  0  0  0  0  0
    1.6626   -4.7582   -1.1202 H   0  0  0  0  0  0  0  0  0  0  0  0
    2.7393   -3.5053   -1.7757 H   0  0  0  0  0  0  0  0  0  0  0  0
    5.0310   -4.7543   -1.6071 H   0  0  0  0  0  0  0  0  0  0  0  0
    6.7782   -3.5069    0.2366 H   0  0  0  0  0  0  0  0  0  0  0  0
    4.5080   -3.3258    2.0399 H   0  0  0  0  0  0  0  0  0  0  0  0
    5.2712   -5.7309    4.7607 H   0  0  0  0  0  0  0  0  0  0  0  0
    3.8633   -7.1237    5.9627 H   0  0  0  0  0  0  0  0  0  0  0  0
    2.9094   -7.5322    4.6194 H   0  0  0  0  0  0  0  0  0  0  0  0
    5.4170   -8.8110    5.6969 H   0  0  0  0  0  0  0  0  0  0  0  0
    3.9257   -9.6043    5.3099 H   0  0  0  0  0  0  0  0  0  0  0  0
    5.2438  -11.4263    4.0998 H   0  0  0  0  0  0  0  0  0  0  0  0
    6.6250  -10.5697    4.7800 H   0  0  0  0  0  0  0  0  0  0  0  0
    6.5788  -10.9160    3.0553 H   0  0  0  0  0  0  0  0  0  0  0  0
    4.5853  -10.3174    1.9058 H   0  0  0  0  0  0  0  0  0  0  0  0
    5.9996   -7.9984    1.4173 H   0  0  0  0  0  0  0  0  0  0  0  0
    4.6955   -8.5652    0.4081 H   0  0  0  0  0  0  0  0  0  0  0  0
    1.9033  -10.8125    3.3454 H   0  0  0  0  0  0  0  0  0  0  0  0
   -0.3089   -9.6546    3.1489 H   0  0  0  0  0  0  0  0  0  0  0  0
   -1.4356   -7.8630    2.2549 H   0  0  0  0  0  0  0  0  0  0  0  0
    3.3229   -6.6442   -0.3202 H   0  0  0  0  0  0  0  0  0  0  0  0
    6.0238   -8.6656    3.4927 H   0  0  0  0  0  0  0  0  0  0  0  0
  1  2  1  0
  1 26  1  0
  1 27  1  0
  1 28  1  0
  3  2  1  6
  3  6  1  0
  3 25  1  0
  3  4  1  0
  4  5  2  0
  4 29  1  0
  5  6  1  0
  5 30  1  0
  6  7  1  0
  6 31  1  1
  7  8  1  0
  8 16  1  0
  8  9  2  3
  9 10  1  0
  9 32  1  0
 10 11  1  0
 10 33  1  0
 10 34  1  0
 11 12  1  0
 11 35  1  0
 11 36  1  0
 12 13  1  0
 12 14  1  0
 12 47  1  6
 13 37  1  0
 13 38  1  0
 13 39  1  0
 14 18  1  0
 14 15  1  0
 14 40  1  6
 16 15  1  6
 15 41  1  0
 15 42  1  0
 16 25  1  0
 16 17  1  0
 17 23  1  0
 17 18  2  0
 18 19  1  0
 19 20  2  0
 19 43  1  0
 20 21  1  0
 20 44  1  0
 21 22  1  0
 21 23  2  0
 22 45  1  0
 23 24  1  0
 24 25  1  0
 25 46  1  6
M  CHG  1  12   1
M  END
>  <i_m_ct_stereo_status>  (187) 
1

>  <s_m_source_file>  (187) 
/var/tmp/pbs.5076255.sched01/tmpzygr1bk5/76dkit4mfj.sdf

>  <i_m_source_file_index>  (187) 
6

>  <i_lp_mmshare_version>  (187) 
48012

>  <i_f3d_flags>  (187) 
0

>  <s_epik_input>  (187) 
W0NIXTE9W0NIXVtDQEhdKE8yKVtDQF0xKE9bQ0gzXSlbQ0BASF0zT2MoYyhbT0hdKVtjSF1bY0hdNCljNWM0W0NAQEhdKFtDSDJdNilOKFtDSDNdKVtDSDJdW0NIMl0vW0NIXT1DXDJbQ0BdMzU2

>  <s_epik_cmdline>  (187) 
J2VwaWtfcHl0aG9uJywgJy1waHQnLCAnMi4wJywgJy1waCcsICc3LjAnLCAnLXRuJywgJzgnLCAnLW1hJywgJzIwMCcsICctaW1hZScsICc8aW5maWxlLm1hZT4nLCAnLW9tYWUnLCAnPG91dGZpbGUubWFlPic=

>  <r_lp_tautomer_probability>  (187) 
1

>  <r_epik_Ionization_Penalty>  (187) 
0.191677

>  <r_epik_Ionization_Penalty_Charging>  (187) 
0.140676

>  <r_epik_Ionization_Penalty_Neutral>  (187) 
0.0510005

>  <r_epik_State_Penalty>  (187) 
0.229708

>  <r_epik_Charging_Adjusted_Penalty>  (187) 
0.370385

>  <i_epik_Tot_Q>  (187) 
1

>  <i_epik_Tot_abs_Q>  (187) 
1

>  <s_lp_Force_Field>  (187) 
OPLS3e

>  <r_lp_Energy>  (187) 
74.2403

>  <b_lp_Chiralities_Consistent>  (187) 
1

>  <s_lp_Variant>  (187) 
64:0-2

>  <s_i_glide_gridfile>  (187) 
pfpi4k_grid

>  <i_i_glide_lignum>  (187) 
6

>  <i_i_glide_rotatable_bonds>  (187) 
2

>  <r_i_docking_score>  (187) 
-3.08317

>  <r_i_glide_ligand_efficiency>  (187) 
-0.123327

>  <r_i_glide_ligand_efficiency_sa>  (187) 
-0.36061

>  <r_i_glide_ligand_efficiency_ln>  (187) 
-0.730804

>  <r_i_glide_gscore>  (187) 
-3.08317

>  <r_i_glide_lipo>  (187) 
-0.280188

>  <r_i_glide_hbond>  (187) 
0

>  <r_i_glide_metal>  (187) 
-0

>  <r_i_glide_rewards>  (187) 
-1.08823

>  <r_i_glide_evdw>  (187) 
-20.0994

>  <r_i_glide_ecoul>  (187) 
-4.72452

>  <r_i_glide_erotb>  (187) 
0

>  <r_i_glide_esite>  (187) 
-0.00110788

>  <r_i_glide_emodel>  (187) 
-31.9904

>  <r_i_glide_energy>  (187) 
-24.8239

>  <r_i_glide_einternal>  (187) 
0.0579238

>  <r_i_glide_intrahb_reward>  (187) 
-0

>  <i_i_glide_confnum>  (187) 
1

>  <i_i_glide_posenum>  (187) 
9

>  <r_i_glide_eff_state_penalty>  (187) 
0

>  <ligand_id>  (187) 
64

>  <original_smiles>  (187) 
COC12C=CC1OC1=CCCN(C)C3CC14c1c3ccc(O)c1OC42

>  <smiles>  (187) 
[H]Oc1c([H])c([H])c2c3c1OC1([H])C4(OC([H])([H])[H])C([H])=C([H])C4([H])OC4=C([H])C([H])([H])C([H])([H])[N+]([H])(C([H])([H])[H])C2([H])C([H])([H])C431

$$$$
64:2:0
     RDKit          3D

 46 51  0  0  1  0  0  0  0  0999 V2000
    0.8586   -2.9114    3.7888 C   0  0  0  0  0  0  0  0  0  0  0  0
    2.1923   -3.3861    3.6860 O   0  0  0  0  0  0  0  0  0  0  0  0
    3.1816   -2.4357    3.2972 C   0  0  1  0  0  0  0  0  0  0  0  0
    3.2705   -1.2484    4.2536 C   0  0  0  0  0  0  0  0  0  0  0  0
    4.4596   -1.6160    4.7525 C   0  0  0  0  0  0  0  0  0  0  0  0
    4.5416   -2.8651    3.9063 C   0  0  2  0  0  0  0  0  0  0  0  0
    5.6666   -2.8433    3.0330 O   0  0  0  0  0  0  0  0  0  0  0  0
    5.3553   -3.2422    1.7705 C   0  0  0  0  0  0  0  0  0  0  0  0
    6.1439   -4.0752    1.0617 C   0  0  0  0  0  0  0  0  0  0  0  0
    7.6361   -3.9173    1.0645 C   0  0  0  0  0  0  0  0  0  0  0  0
    7.9873   -2.5080    0.5075 C   0  0  0  0  0  0  0  0  0  0  0  0
    7.2874   -2.1066   -0.7177 N   0  0  0  0  0  0  0  0  0  0  0  0
    7.6555   -2.8850   -1.8770 C   0  0  0  0  0  0  0  0  0  0  0  0
    5.9401   -1.4817   -0.7523 C   0  0  2  0  0  0  0  0  0  0  0  0
    5.3625   -1.0218    0.6360 C   0  0  0  0  0  0  0  0  0  0  0  0
    4.4773   -2.2048    1.0866 C   0  0  1  0  0  0  0  0  0  0  0  0
    4.0289   -2.6230   -0.2361 C   0  0  0  0  0  0  0  0  0  0  0  0
    4.8276   -2.3382   -1.3229 C   0  0  0  0  0  0  0  0  0  0  0  0
    4.3036   -2.6540   -2.5933 C   0  0  0  0  0  0  0  0  0  0  0  0
    3.0100   -3.2493   -2.6373 C   0  0  0  0  0  0  0  0  0  0  0  0
    2.2398   -3.4705   -1.4443 C   0  0  0  0  0  0  0  0  0  0  0  0
    1.0188   -4.0734   -1.5235 O   0  0  0  0  0  0  0  0  0  0  0  0
    2.7578   -3.0860   -0.1864 C   0  0  0  0  0  0  0  0  0  0  0  0
    2.2245   -2.9646    1.0672 O   0  0  0  0  0  0  0  0  0  0  0  0
    3.0989   -2.0599    1.8023 C   0  0  1  0  0  0  0  0  0  0  0  0
    0.2107   -3.7715    3.9422 H   0  0  0  0  0  0  0  0  0  0  0  0
    0.5272   -2.3947    2.8906 H   0  0  0  0  0  0  0  0  0  0  0  0
    0.7318   -2.2499    4.6428 H   0  0  0  0  0  0  0  0  0  0  0  0
    2.6063   -0.4123    4.4515 H   0  0  0  0  0  0  0  0  0  0  0  0
    5.0969   -1.1888    5.5169 H   0  0  0  0  0  0  0  0  0  0  0  0
    4.4629   -3.8064    4.4495 H   0  0  0  0  0  0  0  0  0  0  0  0
    5.8337   -4.3249    0.0597 H   0  0  0  0  0  0  0  0  0  0  0  0
    8.0466   -4.0565    2.0618 H   0  0  0  0  0  0  0  0  0  0  0  0
    8.0777   -4.6985    0.4492 H   0  0  0  0  0  0  0  0  0  0  0  0
    7.8187   -1.7338    1.2557 H   0  0  0  0  0  0  0  0  0  0  0  0
    9.0590   -2.4778    0.2891 H   0  0  0  0  0  0  0  0  0  0  0  0
    7.3288   -2.3424   -2.7459 H   0  0  0  0  0  0  0  0  0  0  0  0
    7.1493   -3.8466   -1.8847 H   0  0  0  0  0  0  0  0  0  0  0  0
    8.7320   -3.0457   -1.9417 H   0  0  0  0  0  0  0  0  0  0  0  0
    5.9832   -0.6217   -1.4051 H   0  0  0  0  0  0  0  0  0  0  0  0
    6.0730   -0.6499    1.3707 H   0  0  0  0  0  0  0  0  0  0  0  0
    4.6980   -0.1879    0.4355 H   0  0  0  0  0  0  0  0  0  0  0  0
    4.8463   -2.4390   -3.5020 H   0  0  0  0  0  0  0  0  0  0  0  0
    2.5955   -3.5569   -3.5800 H   0  0  0  0  0  0  0  0  0  0  0  0
    0.7481   -4.2400   -2.4104 H   0  0  0  0  0  0  0  0  0  0  0  0
    2.7075   -1.0481    1.6577 H   0  0  0  0  0  0  0  0  0  0  0  0
  1  2  1  0
  1 26  1  0
  1 27  1  0
  1 28  1  0
  3  2  1  1
  3  6  1  0
  3 25  1  0
  3  4  1  0
  4  5  2  0
  4 29  1  0
  5  6  1  0
  5 30  1  0
  6  7  1  0
  6 31  1  1
  7  8  1  0
  8 16  1  0
  8  9  2  3
  9 10  1  0
  9 32  1  0
 10 11  1  0
 10 33  1  0
 10 34  1  0
 11 12  1  0
 11 35  1  0
 11 36  1  0
 12 13  1  0
 12 14  1  0
 13 37  1  0
 13 38  1  0
 13 39  1  0
 14 18  1  0
 14 15  1  0
 14 40  1  6
 16 15  1  6
 15 41  1  0
 15 42  1  0
 16 25  1  0
 16 17  1  0
 17 23  1  0
 17 18  2  0
 18 19  1  0
 19 20  2  0
 19 43  1  0
 20 21  1  0
 20 44  1  0
 21 22  1  0
 21 23  2  0
 22 45  1  0
 23 24  1  0
 24 25  1  0
 25 46  1  1
M  END
>  <i_m_ct_stereo_status>  (188) 
1

>  <s_m_source_file>  (188) 
/var/tmp/pbs.5076255.sched01/tmpzygr1bk5/76dkit4mfj.sdf

>  <i_m_source_file_index>  (188) 
7

>  <i_lp_mmshare_version>  (188) 
48012

>  <i_f3d_flags>  (188) 
0

>  <s_epik_input>  (188) 
W0NIXTE9W0NIXVtDQEhdKE8yKVtDQF0xKE9bQ0gzXSlbQ0BASF0zT2MoYyhbT0hdKVtjSF1bY0hdNCljNWM0W0NAQEhdKFtDSDJdNilOKFtDSDNdKVtDSDJdW0NIMl0vW0NIXT1DXDJbQ0BdMzU2

>  <s_epik_cmdline>  (188) 
J2VwaWtfcHl0aG9uJywgJy1waHQnLCAnMi4wJywgJy1waCcsICc3LjAnLCAnLXRuJywgJzgnLCAnLW1hJywgJzIwMCcsICctaW1hZScsICc8aW5maWxlLm1hZT4nLCAnLW9tYWUnLCAnPG91dGZpbGUubWFlPic=

>  <r_lp_tautomer_probability>  (188) 
1

>  <r_epik_Ionization_Penalty>  (188) 
0.926414

>  <r_epik_Ionization_Penalty_Charging>  (188) 
0

>  <r_epik_Ionization_Penalty_Neutral>  (188) 
0.926414

>  <r_epik_State_Penalty>  (188) 
0.737626

>  <r_epik_Charging_Adjusted_Penalty>  (188) 
0.737626

>  <i_epik_Tot_Q>  (188) 
0

>  <i_epik_Tot_abs_Q>  (188) 
0

>  <s_lp_Force_Field>  (188) 
OPLS3e

>  <r_lp_Energy>  (188) 
106.406

>  <b_lp_Chiralities_Consistent>  (188) 
1

>  <s_lp_Variant>  (188) 
64:0-3

>  <s_i_glide_gridfile>  (188) 
pfpi4k_grid

>  <i_i_glide_lignum>  (188) 
7

>  <i_i_glide_rotatable_bonds>  (188) 
2

>  <r_i_docking_score>  (188) 
-3.94921

>  <r_i_glide_ligand_efficiency>  (188) 
-0.157968

>  <r_i_glide_ligand_efficiency_sa>  (188) 
-0.461902

>  <r_i_glide_ligand_efficiency_ln>  (188) 
-0.93608

>  <r_i_glide_gscore>  (188) 
-3.94921

>  <r_i_glide_lipo>  (188) 
-0.778129

>  <r_i_glide_hbond>  (188) 
-0.16

>  <r_i_glide_metal>  (188) 
-0

>  <r_i_glide_rewards>  (188) 
-1.0951

>  <r_i_glide_evdw>  (188) 
-14.2249

>  <r_i_glide_ecoul>  (188) 
-8.03155

>  <r_i_glide_erotb>  (188) 
0

>  <r_i_glide_esite>  (188) 
0

>  <r_i_glide_emodel>  (188) 
-28.3581

>  <r_i_glide_energy>  (188) 
-22.2564

>  <r_i_glide_einternal>  (188) 
0.0274069

>  <r_i_glide_intrahb_reward>  (188) 
-0

>  <i_i_glide_confnum>  (188) 
1

>  <i_i_glide_posenum>  (188) 
16

>  <r_i_glide_eff_state_penalty>  (188) 
0

>  <ligand_id>  (188) 
64

>  <original_smiles>  (188) 
COC12C=CC1OC1=CCCN(C)C3CC14c1c3ccc(O)c1OC42

>  <smiles>  (188) 
[H]Oc1c([H])c([H])c2c3c1OC1([H])C4(OC([H])([H])[H])C([H])=C([H])C4([H])OC4=C([H])C([H])([H])C([H])([H])N(C([H])([H])[H])C2([H])C([H])([H])C431

$$$$
64:2:1
     RDKit          3D

 46 51  0  0  1  0  0  0  0  0999 V2000
    3.5905   -0.1017   -3.5120 C   0  0  0  0  0  0  0  0  0  0  0  0
    4.5939   -0.9097   -2.9100 O   0  0  0  0  0  0  0  0  0  0  0  0
    4.2002   -2.2225   -2.5135 C   0  0  1  0  0  0  0  0  0  0  0  0
    3.5625   -3.0286   -3.6418 C   0  0  0  0  0  0  0  0  0  0  0  0
    4.6101   -3.8532   -3.7796 C   0  0  0  0  0  0  0  0  0  0  0  0
    5.4154   -3.1758   -2.6921 C   0  0  2  0  0  0  0  0  0  0  0  0
    5.7186   -4.0398   -1.6018 O   0  0  0  0  0  0  0  0  0  0  0  0
    5.5081   -3.4568   -0.3906 C   0  0  0  0  0  0  0  0  0  0  0  0
    6.3721   -3.6058    0.6258 C   0  0  0  0  0  0  0  0  0  0  0  0
    6.9946   -4.9434    0.9222 C   0  0  0  0  0  0  0  0  0  0  0  0
    5.8711   -5.9609    1.2588 C   0  0  0  0  0  0  0  0  0  0  0  0
    4.8186   -5.5201    2.2045 N   0  0  0  0  0  0  0  0  0  0  0  0
    5.2917   -5.2860    3.5629 C   0  0  0  0  0  0  0  0  0  0  0  0
    3.6276   -4.7297    1.8006 C   0  0  2  0  0  0  0  0  0  0  0  0
    3.3817   -4.6023    0.2478 C   0  0  0  0  0  0  0  0  0  0  0  0
    4.0234   -3.2487   -0.1441 C   0  0  1  0  0  0  0  0  0  0  0  0
    3.7437   -2.5391    1.0929 C   0  0  0  0  0  0  0  0  0  0  0  0
    3.5983   -3.2700    2.2464 C   0  0  0  0  0  0  0  0  0  0  0  0
    3.2412   -2.5424    3.3994 C   0  0  0  0  0  0  0  0  0  0  0  0
    3.0799   -1.1273    3.2737 C   0  0  0  0  0  0  0  0  0  0  0  0
    3.1864   -0.4671    2.0092 C   0  0  0  0  0  0  0  0  0  0  0  0
    2.9290    0.8700    1.8980 O   0  0  0  0  0  0  0  0  0  0  0  0
    3.5009   -1.2257    0.8574 C   0  0  0  0  0  0  0  0  0  0  0  0
    3.4986   -0.9671   -0.4863 O   0  0  0  0  0  0  0  0  0  0  0  0
    3.4220   -2.2510   -1.1783 C   0  0  1  0  0  0  0  0  0  0  0  0
    3.9682    0.9150   -3.6175 H   0  0  0  0  0  0  0  0  0  0  0  0
    2.6779   -0.0628   -2.9183 H   0  0  0  0  0  0  0  0  0  0  0  0
    3.3369   -0.4574   -4.5103 H   0  0  0  0  0  0  0  0  0  0  0  0
    2.5988   -2.9542   -4.1416 H   0  0  0  0  0  0  0  0  0  0  0  0
    4.8187   -4.6872   -4.4415 H   0  0  0  0  0  0  0  0  0  0  0  0
    6.3130   -2.6730   -3.0401 H   0  0  0  0  0  0  0  0  0  0  0  0
    6.1220   -3.1397    1.5684 H   0  0  0  0  0  0  0  0  0  0  0  0
    7.5814   -5.3017    0.0797 H   0  0  0  0  0  0  0  0  0  0  0  0
    7.6813   -4.8320    1.7602 H   0  0  0  0  0  0  0  0  0  0  0  0
    5.4149   -6.3243    0.3396 H   0  0  0  0  0  0  0  0  0  0  0  0
    6.3419   -6.8435    1.6933 H   0  0  0  0  0  0  0  0  0  0  0  0
    4.4548   -5.2457    4.2608 H   0  0  0  0  0  0  0  0  0  0  0  0
    5.8320   -4.3408    3.6287 H   0  0  0  0  0  0  0  0  0  0  0  0
    5.9613   -6.0844    3.8828 H   0  0  0  0  0  0  0  0  0  0  0  0
    2.7724   -5.2247    2.2544 H   0  0  0  0  0  0  0  0  0  0  0  0
    3.6643   -5.4576   -0.3613 H   0  0  0  0  0  0  0  0  0  0  0  0
    2.3088   -4.4972    0.1035 H   0  0  0  0  0  0  0  0  0  0  0  0
    3.0550   -3.0406    4.3376 H   0  0  0  0  0  0  0  0  0  0  0  0
    2.8112   -0.5577    4.1480 H   0  0  0  0  0  0  0  0  0  0  0  0
    2.7208    1.2918    2.7176 H   0  0  0  0  0  0  0  0  0  0  0  0
    2.3679   -2.4808   -1.3445 H   0  0  0  0  0  0  0  0  0  0  0  0
  1  2  1  0
  1 26  1  0
  1 27  1  0
  1 28  1  0
  3  2  1  6
  3  6  1  0
  3 25  1  0
  3  4  1  0
  4  5  2  0
  4 29  1  0
  5  6  1  0
  5 30  1  0
  6  7  1  0
  6 31  1  6
  7  8  1  0
  8 16  1  0
  8  9  2  3
  9 10  1  0
  9 32  1  0
 10 11  1  0
 10 33  1  0
 10 34  1  0
 11 12  1  0
 11 35  1  0
 11 36  1  0
 12 13  1  0
 12 14  1  0
 13 37  1  0
 13 38  1  0
 13 39  1  0
 14 18  1  0
 14 15  1  0
 14 40  1  1
 16 15  1  1
 15 41  1  0
 15 42  1  0
 16 25  1  0
 16 17  1  0
 17 23  1  0
 17 18  2  0
 18 19  1  0
 19 20  2  0
 19 43  1  0
 20 21  1  0
 20 44  1  0
 21 22  1  0
 21 23  2  0
 22 45  1  0
 23 24  1  0
 24 25  1  0
 25 46  1  6
M  END
>  <i_m_ct_stereo_status>  (189) 
1

>  <s_m_source_file>  (189) 
/var/tmp/pbs.5076255.sched01/tmpzygr1bk5/76dkit4mfj.sdf

>  <i_m_source_file_index>  (189) 
7

>  <i_lp_mmshare_version>  (189) 
48012

>  <i_f3d_flags>  (189) 
0

>  <s_epik_input>  (189) 
W0NIXTE9W0NIXVtDQEhdKE8yKVtDQF0xKE9bQ0gzXSlbQ0BASF0zT2MoYyhbT0hdKVtjSF1bY0hdNCljNWM0W0NAQEhdKFtDSDJdNilOKFtDSDNdKVtDSDJdW0NIMl0vW0NIXT1DXDJbQ0BdMzU2

>  <s_epik_cmdline>  (189) 
J2VwaWtfcHl0aG9uJywgJy1waHQnLCAnMi4wJywgJy1waCcsICc3LjAnLCAnLXRuJywgJzgnLCAnLW1hJywgJzIwMCcsICctaW1hZScsICc8aW5maWxlLm1hZT4nLCAnLW9tYWUnLCAnPG91dGZpbGUubWFlPic=

>  <r_lp_tautomer_probability>  (189) 
1

>  <r_epik_Ionization_Penalty>  (189) 
0.926414

>  <r_epik_Ionization_Penalty_Charging>  (189) 
0

>  <r_epik_Ionization_Penalty_Neutral>  (189) 
0.926414

>  <r_epik_State_Penalty>  (189) 
0.737626

>  <r_epik_Charging_Adjusted_Penalty>  (189) 
0.737626

>  <i_epik_Tot_Q>  (189) 
0

>  <i_epik_Tot_abs_Q>  (189) 
0

>  <s_lp_Force_Field>  (189) 
OPLS3e

>  <r_lp_Energy>  (189) 
106.406

>  <b_lp_Chiralities_Consistent>  (189) 
1

>  <s_lp_Variant>  (189) 
64:0-3

>  <s_i_glide_gridfile>  (189) 
pfpi4k_grid

>  <i_i_glide_lignum>  (189) 
7

>  <i_i_glide_rotatable_bonds>  (189) 
2

>  <r_i_docking_score>  (189) 
-3.47457

>  <r_i_glide_ligand_efficiency>  (189) 
-0.138983

>  <r_i_glide_ligand_efficiency_sa>  (189) 
-0.406388

>  <r_i_glide_ligand_efficiency_ln>  (189) 
-0.823578

>  <r_i_glide_gscore>  (189) 
-3.47457

>  <r_i_glide_lipo>  (189) 
-1.00361

>  <r_i_glide_hbond>  (189) 
0

>  <r_i_glide_metal>  (189) 
-0

>  <r_i_glide_rewards>  (189) 
-1.0951

>  <r_i_glide_evdw>  (189) 
-25.4697

>  <r_i_glide_ecoul>  (189) 
-0.682488

>  <r_i_glide_erotb>  (189) 
0

>  <r_i_glide_esite>  (189) 
0

>  <r_i_glide_emodel>  (189) 
-31.4655

>  <r_i_glide_energy>  (189) 
-26.1522

>  <r_i_glide_einternal>  (189) 
0.240652

>  <r_i_glide_intrahb_reward>  (189) 
-0

>  <i_i_glide_confnum>  (189) 
2

>  <i_i_glide_posenum>  (189) 
1

>  <r_i_glide_eff_state_penalty>  (189) 
0

>  <ligand_id>  (189) 
64

>  <original_smiles>  (189) 
COC12C=CC1OC1=CCCN(C)C3CC14c1c3ccc(O)c1OC42

>  <smiles>  (189) 
[H]Oc1c([H])c([H])c2c3c1OC1([H])C4(OC([H])([H])[H])C([H])=C([H])C4([H])OC4=C([H])C([H])([H])C([H])([H])N(C([H])([H])[H])C2([H])C([H])([H])C431

$$$$
64:2:2
     RDKit          3D

 46 51  0  0  1  0  0  0  0  0999 V2000
    3.8596    0.0811   -3.3449 C   0  0  0  0  0  0  0  0  0  0  0  0
    4.6577   -0.6536   -2.4249 O   0  0  0  0  0  0  0  0  0  0  0  0
    4.2664   -1.9949   -2.1341 C   0  0  1  0  0  0  0  0  0  0  0  0
    3.5925   -2.7223   -3.2971 C   0  0  0  0  0  0  0  0  0  0  0  0
    4.6412   -3.5165   -3.5367 C   0  0  0  0  0  0  0  0  0  0  0  0
    5.4797   -2.9181   -2.4258 C   0  0  2  0  0  0  0  0  0  0  0  0
    5.8282   -3.8685   -1.4297 O   0  0  0  0  0  0  0  0  0  0  0  0
    5.6598   -3.3891   -0.1676 C   0  0  0  0  0  0  0  0  0  0  0  0
    6.5570   -3.6194    0.8035 C   0  0  0  0  0  0  0  0  0  0  0  0
    7.1903   -4.9748    0.9701 C   0  0  0  0  0  0  0  0  0  0  0  0
    6.0804   -6.0205    1.2621 C   0  0  0  0  0  0  0  0  0  0  0  0
    5.0609   -5.6584    2.2732 N   0  0  0  0  0  0  0  0  0  0  0  0
    5.5779   -5.5404    3.6321 C   0  0  0  0  0  0  0  0  0  0  0  0
    3.8577   -4.8429    1.9708 C   0  0  2  0  0  0  0  0  0  0  0  0
    3.5574   -4.5880    0.4427 C   0  0  0  0  0  0  0  0  0  0  0  0
    4.1849   -3.2015    0.1441 C   0  0  1  0  0  0  0  0  0  0  0  0
    3.9485   -2.5966    1.4428 C   0  0  0  0  0  0  0  0  0  0  0  0
    3.8438   -3.4238    2.5359 C   0  0  0  0  0  0  0  0  0  0  0  0
    3.5269   -2.7982    3.7572 C   0  0  0  0  0  0  0  0  0  0  0  0
    3.3575   -1.3787    3.7549 C   0  0  0  0  0  0  0  0  0  0  0  0
    3.4107   -0.6186    2.5466 C   0  0  0  0  0  0  0  0  0  0  0  0
    3.1352    0.7159    2.5644 O   0  0  0  0  0  0  0  0  0  0  0  0
    3.6880   -1.2690    1.3225 C   0  0  0  0  0  0  0  0  0  0  0  0
    3.6253   -0.8861    0.0091 O   0  0  0  0  0  0  0  0  0  0  0  0
    3.5460   -2.1199   -0.7779 C   0  0  1  0  0  0  0  0  0  0  0  0
    4.2062    1.1124   -3.3693 H   0  0  0  0  0  0  0  0  0  0  0  0
    2.8010    0.0738   -3.0859 H   0  0  0  0  0  0  0  0  0  0  0  0
    3.9745   -0.3075   -4.3560 H   0  0  0  0  0  0  0  0  0  0  0  0
    2.6134   -2.6158   -3.7603 H   0  0  0  0  0  0  0  0  0  0  0  0
    4.8314   -4.2951   -4.2712 H   0  0  0  0  0  0  0  0  0  0  0  0
    6.3564   -2.3474   -2.7137 H   0  0  0  0  0  0  0  0  0  0  0  0
    6.3386   -3.2319    1.7875 H   0  0  0  0  0  0  0  0  0  0  0  0
    7.7485   -5.2602    0.0814 H   0  0  0  0  0  0  0  0  0  0  0  0
    7.9072   -4.9281    1.7892 H   0  0  0  0  0  0  0  0  0  0  0  0
    5.5919   -6.3075    0.3330 H   0  0  0  0  0  0  0  0  0  0  0  0
    6.5668   -6.9330    1.6084 H   0  0  0  0  0  0  0  0  0  0  0  0
    4.7653   -5.5607    4.3597 H   0  0  0  0  0  0  0  0  0  0  0  0
    6.1247   -4.6054    3.7612 H   0  0  0  0  0  0  0  0  0  0  0  0
    6.2577   -6.3610    3.8634 H   0  0  0  0  0  0  0  0  0  0  0  0
    3.0200   -5.3747    2.4154 H   0  0  0  0  0  0  0  0  0  0  0  0
    3.8135   -5.3880   -0.2507 H   0  0  0  0  0  0  0  0  0  0  0  0
    2.4797   -4.4764    0.3510 H   0  0  0  0  0  0  0  0  0  0  0  0
    3.3699   -3.3709    4.6585 H   0  0  0  0  0  0  0  0  0  0  0  0
    3.1146   -0.8737    4.6757 H   0  0  0  0  0  0  0  0  0  0  0  0
    3.2164    1.1071    1.7079 H   0  0  0  0  0  0  0  0  0  0  0  0
    2.4915   -2.3505   -0.9233 H   0  0  0  0  0  0  0  0  0  0  0  0
  1  2  1  0
  1 26  1  0
  1 27  1  0
  1 28  1  0
  3  2  1  6
  3  6  1  0
  3 25  1  0
  3  4  1  0
  4  5  2  0
  4 29  1  0
  5  6  1  0
  5 30  1  0
  6  7  1  0
  6 31  1  6
  7  8  1  0
  8 16  1  0
  8  9  2  3
  9 10  1  0
  9 32  1  0
 10 11  1  0
 10 33  1  0
 10 34  1  0
 11 12  1  0
 11 35  1  0
 11 36  1  0
 12 13  1  0
 12 14  1  0
 13 37  1  0
 13 38  1  0
 13 39  1  0
 14 18  1  0
 14 15  1  0
 14 40  1  1
 16 15  1  1
 15 41  1  0
 15 42  1  0
 16 25  1  0
 16 17  1  0
 17 23  1  0
 17 18  2  0
 18 19  1  0
 19 20  2  0
 19 43  1  0
 20 21  1  0
 20 44  1  0
 21 22  1  0
 21 23  2  0
 22 45  1  0
 23 24  1  0
 24 25  1  0
 25 46  1  6
M  END
>  <i_m_ct_stereo_status>  (190) 
1

>  <s_m_source_file>  (190) 
/var/tmp/pbs.5076255.sched01/tmpzygr1bk5/76dkit4mfj.sdf

>  <i_m_source_file_index>  (190) 
7

>  <i_lp_mmshare_version>  (190) 
48012

>  <i_f3d_flags>  (190) 
0

>  <s_epik_input>  (190) 
W0NIXTE9W0NIXVtDQEhdKE8yKVtDQF0xKE9bQ0gzXSlbQ0BASF0zT2MoYyhbT0hdKVtjSF1bY0hdNCljNWM0W0NAQEhdKFtDSDJdNilOKFtDSDNdKVtDSDJdW0NIMl0vW0NIXT1DXDJbQ0BdMzU2

>  <s_epik_cmdline>  (190) 
J2VwaWtfcHl0aG9uJywgJy1waHQnLCAnMi4wJywgJy1waCcsICc3LjAnLCAnLXRuJywgJzgnLCAnLW1hJywgJzIwMCcsICctaW1hZScsICc8aW5maWxlLm1hZT4nLCAnLW9tYWUnLCAnPG91dGZpbGUubWFlPic=

>  <r_lp_tautomer_probability>  (190) 
1

>  <r_epik_Ionization_Penalty>  (190) 
0.926414

>  <r_epik_Ionization_Penalty_Charging>  (190) 
0

>  <r_epik_Ionization_Penalty_Neutral>  (190) 
0.926414

>  <r_epik_State_Penalty>  (190) 
0.737626

>  <r_epik_Charging_Adjusted_Penalty>  (190) 
0.737626

>  <i_epik_Tot_Q>  (190) 
0

>  <i_epik_Tot_abs_Q>  (190) 
0

>  <s_lp_Force_Field>  (190) 
OPLS3e

>  <r_lp_Energy>  (190) 
106.406

>  <b_lp_Chiralities_Consistent>  (190) 
1

>  <s_lp_Variant>  (190) 
64:0-3

>  <s_i_glide_gridfile>  (190) 
pfpi4k_grid

>  <i_i_glide_lignum>  (190) 
7

>  <i_i_glide_rotatable_bonds>  (190) 
2

>  <r_i_docking_score>  (190) 
-3.32025

>  <r_i_glide_ligand_efficiency>  (190) 
-0.13281

>  <r_i_glide_ligand_efficiency_sa>  (190) 
-0.388339

>  <r_i_glide_ligand_efficiency_ln>  (190) 
-0.786998

>  <r_i_glide_gscore>  (190) 
-3.32025

>  <r_i_glide_lipo>  (190) 
-0.897644

>  <r_i_glide_hbond>  (190) 
0

>  <r_i_glide_metal>  (190) 
-0

>  <r_i_glide_rewards>  (190) 
-1.0951

>  <r_i_glide_evdw>  (190) 
-25.9128

>  <r_i_glide_ecoul>  (190) 
-0.212429

>  <r_i_glide_erotb>  (190) 
0

>  <r_i_glide_esite>  (190) 
0

>  <r_i_glide_emodel>  (190) 
-30.1138

>  <r_i_glide_energy>  (190) 
-26.1252

>  <r_i_glide_einternal>  (190) 
2.03982

>  <r_i_glide_intrahb_reward>  (190) 
-0

>  <i_i_glide_confnum>  (190) 
1

>  <i_i_glide_posenum>  (190) 
10

>  <r_i_glide_eff_state_penalty>  (190) 
0

>  <ligand_id>  (190) 
64

>  <original_smiles>  (190) 
COC12C=CC1OC1=CCCN(C)C3CC14c1c3ccc(O)c1OC42

>  <smiles>  (190) 
[H]Oc1c([H])c([H])c2c3c1OC1([H])C4(OC([H])([H])[H])C([H])=C([H])C4([H])OC4=C([H])C([H])([H])C([H])([H])N(C([H])([H])[H])C2([H])C([H])([H])C431

$$$$
64:4:0
     RDKit          3D

 46 51  0  0  1  0  0  0  0  0999 V2000
    4.4332   -4.7840    2.6090 C   0  0  0  0  0  0  0  0  0  0  0  0
    5.2835   -5.6472    1.8406 O   0  0  0  0  0  0  0  0  0  0  0  0
    5.3058   -7.0145    2.2598 C   0  0  1  0  0  0  0  0  0  0  0  0
    6.6012   -7.7250    1.8585 C   0  0  0  0  0  0  0  0  0  0  0  0
    7.0286   -7.8878    3.1205 C   0  0  0  0  0  0  0  0  0  0  0  0
    5.8675   -7.1378    3.7175 C   0  0  2  0  0  0  0  0  0  0  0  0
    5.0910   -7.9215    4.6298 O   0  0  0  0  0  0  0  0  0  0  0  0
    3.7579   -7.8427    4.3575 C   0  0  0  0  0  0  0  0  0  0  0  0
    2.8337   -7.7003    5.3260 C   0  0  0  0  0  0  0  0  0  0  0  0
    2.9650   -8.4534    6.6132 C   0  0  0  0  0  0  0  0  0  0  0  0
    3.0027   -9.9768    6.2992 C   0  0  0  0  0  0  0  0  0  0  0  0
    1.9327  -10.5204    5.3932 N   0  0  1  0  0  0  0  0  0  0  0  0
    0.5614  -10.2772    5.9047 C   0  0  0  0  0  0  0  0  0  0  0  0
    2.0545  -10.4377    3.8904 C   0  0  2  0  0  0  0  0  0  0  0  0
    3.4719  -10.0712    3.2933 C   0  0  0  0  0  0  0  0  0  0  0  0
    3.4138   -8.5418    3.0471 C   0  0  1  0  0  0  0  0  0  0  0  0
    1.9954   -8.4371    2.7221 C   0  0  0  0  0  0  0  0  0  0  0  0
    1.1403   -9.3847    3.2456 C   0  0  0  0  0  0  0  0  0  0  0  0
   -0.2256   -9.2157    2.9303 C   0  0  0  0  0  0  0  0  0  0  0  0
   -0.5736   -8.0968    2.1098 C   0  0  0  0  0  0  0  0  0  0  0  0
    0.4123   -7.2509    1.5196 C   0  0  0  0  0  0  0  0  0  0  0  0
    0.0360   -6.2952    0.6178 O   0  0  0  0  0  0  0  0  0  0  0  0
    1.7717   -7.4553    1.8104 C   0  0  0  0  0  0  0  0  0  0  0  0
    2.9548   -6.9680    1.3050 O   0  0  0  0  0  0  0  0  0  0  0  0
    4.0384   -7.8110    1.8258 C   0  0  1  0  0  0  0  0  0  0  0  0
    4.5265   -3.7566    2.2603 H   0  0  0  0  0  0  0  0  0  0  0  0
    4.6637   -4.7750    3.6715 H   0  0  0  0  0  0  0  0  0  0  0  0
    3.3785   -5.0423    2.5632 H   0  0  0  0  0  0  0  0  0  0  0  0
    7.0444   -8.0123    0.9101 H   0  0  0  0  0  0  0  0  0  0  0  0
    7.9231   -8.2991    3.5698 H   0  0  0  0  0  0  0  0  0  0  0  0
    6.1840   -6.1912    4.1605 H   0  0  0  0  0  0  0  0  0  0  0  0
    1.7915   -7.6653    5.0491 H   0  0  0  0  0  0  0  0  0  0  0  0
    3.8660   -8.1475    7.1485 H   0  0  0  0  0  0  0  0  0  0  0  0
    2.1163   -8.1970    7.2505 H   0  0  0  0  0  0  0  0  0  0  0  0
    3.9873  -10.2712    5.9462 H   0  0  0  0  0  0  0  0  0  0  0  0
    2.9030  -10.4999    7.2488 H   0  0  0  0  0  0  0  0  0  0  0  0
    0.2466   -9.2399    5.8254 H   0  0  0  0  0  0  0  0  0  0  0  0
    0.4547  -10.5523    6.9462 H   0  0  0  0  0  0  0  0  0  0  0  0
   -0.1536  -10.9009    5.3635 H   0  0  0  0  0  0  0  0  0  0  0  0
    1.7493  -11.4099    3.5004 H   0  0  0  0  0  0  0  0  0  0  0  0
    4.3490  -10.4350    3.8324 H   0  0  0  0  0  0  0  0  0  0  0  0
    3.5311  -10.5359    2.3091 H   0  0  0  0  0  0  0  0  0  0  0  0
   -0.9884   -9.9217    3.2736 H   0  0  0  0  0  0  0  0  0  0  0  0
   -1.6121   -7.9387    1.8647 H   0  0  0  0  0  0  0  0  0  0  0  0
    4.2408   -8.4976    0.9956 H   0  0  0  0  0  0  0  0  0  0  0  0
    2.0382  -11.5090    5.5608 H   0  0  0  0  0  0  0  0  0  0  0  0
  1  2  1  0
  1 26  1  0
  1 27  1  0
  1 28  1  0
  3  2  1  6
  3  6  1  0
  3 25  1  0
  3  4  1  0
  4  5  2  0
  4 29  1  0
  5  6  1  0
  5 30  1  0
  6  7  1  0
  6 31  1  1
  7  8  1  0
  8 16  1  0
  8  9  2  3
  9 10  1  0
  9 32  1  0
 10 11  1  0
 10 33  1  0
 10 34  1  0
 11 12  1  0
 11 35  1  0
 11 36  1  0
 12 13  1  0
 12 14  1  0
 12 46  1  6
 13 37  1  0
 13 38  1  0
 13 39  1  0
 14 18  1  0
 14 15  1  0
 14 40  1  6
 16 15  1  1
 15 41  1  0
 15 42  1  0
 16 25  1  0
 16 17  1  0
 17 23  1  0
 17 18  2  0
 18 19  1  0
 19 20  2  0
 19 43  1  0
 20 21  1  0
 20 44  1  0
 21 22  1  0
 21 23  2  0
 23 24  1  0
 24 25  1  0
 25 45  1  6
M  CHG  2  12   1  22  -1
M  END
>  <i_m_ct_stereo_status>  (191) 
1

>  <s_m_source_file>  (191) 
/var/tmp/pbs.5076255.sched01/tmpzygr1bk5/76dkit4mfj.sdf

>  <i_m_source_file_index>  (191) 
9

>  <i_lp_mmshare_version>  (191) 
48012

>  <i_f3d_flags>  (191) 
0

>  <s_epik_input>  (191) 
W0NIXTE9W0NIXVtDQEhdKE8yKVtDQF0xKE9bQ0gzXSlbQ0BASF0zT2MoYyhbT0hdKVtjSF1bY0hdNCljNWM0W0NAQEhdKFtDSDJdNilOKFtDSDNdKVtDSDJdW0NIMl0vW0NIXT1DXDJbQ0BdMzU2

>  <s_epik_cmdline>  (191) 
J2VwaWtfcHl0aG9uJywgJy1waHQnLCAnMi4wJywgJy1waCcsICc3LjAnLCAnLXRuJywgJzgnLCAnLW1hJywgJzIwMCcsICctaW1hZScsICc8aW5maWxlLm1hZT4nLCAnLW9tYWUnLCAnPG91dGZpbGUubWFlPic=

>  <r_epik_Ionization_Penalty>  (191) 
1.59563

>  <r_epik_Ionization_Penalty_Charging>  (191) 
1.59563

>  <r_epik_Ionization_Penalty_Neutral>  (191) 
2.18387e-14

>  <r_epik_State_Penalty>  (191) 
2.07744

>  <r_epik_Charging_Adjusted_Penalty>  (191) 
3.67308

>  <i_epik_Tot_Q>  (191) 
0

>  <i_epik_Tot_abs_Q>  (191) 
2

>  <s_lp_Force_Field>  (191) 
OPLS3e

>  <r_lp_Energy>  (191) 
97.9862

>  <b_lp_Chiralities_Consistent>  (191) 
1

>  <s_lp_Variant>  (191) 
64:0-5

>  <s_i_glide_gridfile>  (191) 
pfpi4k_grid

>  <i_i_glide_lignum>  (191) 
9

>  <i_i_glide_rotatable_bonds>  (191) 
1

>  <r_i_docking_score>  (191) 
-3.91038

>  <r_i_glide_ligand_efficiency>  (191) 
-0.156415

>  <r_i_glide_ligand_efficiency_sa>  (191) 
-0.457361

>  <r_i_glide_ligand_efficiency_ln>  (191) 
-0.926878

>  <r_i_glide_gscore>  (191) 
-3.91038

>  <r_i_glide_lipo>  (191) 
-0.133001

>  <r_i_glide_hbond>  (191) 
-0.219751

>  <r_i_glide_metal>  (191) 
-0

>  <r_i_glide_rewards>  (191) 
-1.72987

>  <r_i_glide_evdw>  (191) 
-16.1016

>  <r_i_glide_ecoul>  (191) 
-6.33872

>  <r_i_glide_erotb>  (191) 
0

>  <r_i_glide_esite>  (191) 
-0.0718732

>  <r_i_glide_emodel>  (191) 
-30.7738

>  <r_i_glide_energy>  (191) 
-22.4403

>  <r_i_glide_einternal>  (191) 
6.95127

>  <r_i_glide_intrahb_reward>  (191) 
-0

>  <i_i_glide_confnum>  (191) 
2

>  <i_i_glide_posenum>  (191) 
36

>  <r_i_glide_eff_state_penalty>  (191) 
0

>  <ligand_id>  (191) 
64

>  <original_smiles>  (191) 
COC12C=CC1OC1=CCCN(C)C3CC14c1c3ccc(O)c1OC42

>  <smiles>  (191) 
[H]C1=C2OC3([H])C([H])=C([H])C3(OC([H])([H])[H])C3([H])Oc4c([O-])c([H])c([H])c5c4C23C([H])([H])C5([H])[N+]([H])(C([H])([H])[H])C([H])([H])C1([H])[H]

$$$$
64:4:1
     RDKit          3D

 46 51  0  0  1  0  0  0  0  0999 V2000
    3.6066   -3.8732    0.8626 C   0  0  0  0  0  0  0  0  0  0  0  0
    4.0546   -4.5631    2.0251 O   0  0  0  0  0  0  0  0  0  0  0  0
    4.5396   -5.8935    1.8381 C   0  0  1  0  0  0  0  0  0  0  0  0
    5.7543   -5.9552    0.9146 C   0  0  0  0  0  0  0  0  0  0  0  0
    6.6060   -6.3013    1.8878 C   0  0  0  0  0  0  0  0  0  0  0  0
    5.5560   -6.2258    2.9744 C   0  0  2  0  0  0  0  0  0  0  0  0
    5.3914   -7.4715    3.6559 O   0  0  0  0  0  0  0  0  0  0  0  0
    4.0774   -7.8202    3.7674 C   0  0  0  0  0  0  0  0  0  0  0  0
    3.5559   -8.3263    4.8990 C   0  0  0  0  0  0  0  0  0  0  0  0
    4.3132   -9.3392    5.7031 C   0  0  0  0  0  0  0  0  0  0  0  0
    4.6087  -10.5780    4.8100 C   0  0  0  0  0  0  0  0  0  0  0  0
    3.4549  -11.1636    4.0478 N   0  0  1  0  0  0  0  0  0  0  0  0
    2.3432  -11.6162    4.9169 C   0  0  0  0  0  0  0  0  0  0  0  0
    3.0172  -10.5828    2.7289 C   0  0  2  0  0  0  0  0  0  0  0  0
    3.9990   -9.5710    2.0069 C   0  0  0  0  0  0  0  0  0  0  0  0
    3.4815   -8.1630    2.4116 C   0  0  1  0  0  0  0  0  0  0  0  0
    2.0685   -8.5010    2.4974 C   0  0  0  0  0  0  0  0  0  0  0  0
    1.7122   -9.7889    2.7853 C   0  0  0  0  0  0  0  0  0  0  0  0
    0.3284  -10.0508    2.8945 C   0  0  0  0  0  0  0  0  0  0  0  0
   -0.5526   -8.9401    2.6976 C   0  0  0  0  0  0  0  0  0  0  0  0
   -0.0758   -7.6569    2.3182 C   0  0  0  0  0  0  0  0  0  0  0  0
   -0.9809   -6.6979    2.0781 O   0  0  0  0  0  0  0  0  0  0  0  0
    1.3102   -7.4120    2.1664 C   0  0  0  0  0  0  0  0  0  0  0  0
    2.0767   -6.3765    1.7106 O   0  0  0  0  0  0  0  0  0  0  0  0
    3.4233   -6.9082    1.4933 C   0  0  1  0  0  0  0  0  0  0  0  0
    3.1118   -2.9521    1.1725 H   0  0  0  0  0  0  0  0  0  0  0  0
    2.8902   -4.4438    0.2732 H   0  0  0  0  0  0  0  0  0  0  0  0
    4.4433   -3.5959    0.2230 H   0  0  0  0  0  0  0  0  0  0  0  0
    5.8848   -5.7852   -0.1523 H   0  0  0  0  0  0  0  0  0  0  0  0
    7.6753   -6.5043    1.9155 H   0  0  0  0  0  0  0  0  0  0  0  0
    5.6513   -5.3927    3.6721 H   0  0  0  0  0  0  0  0  0  0  0  0
    2.5086   -8.5939    4.9118 H   0  0  0  0  0  0  0  0  0  0  0  0
    5.2446   -8.9074    6.0809 H   0  0  0  0  0  0  0  0  0  0  0  0
    3.7091   -9.6072    6.5738 H   0  0  0  0  0  0  0  0  0  0  0  0
    5.4435  -10.3722    4.1459 H   0  0  0  0  0  0  0  0  0  0  0  0
    4.9795  -11.3577    5.4692 H   0  0  0  0  0  0  0  0  0  0  0  0
    1.7874  -10.7862    5.3583 H   0  0  0  0  0  0  0  0  0  0  0  0
    2.7314  -12.2246    5.7286 H   0  0  0  0  0  0  0  0  0  0  0  0
    1.6363  -12.2394    4.3687 H   0  0  0  0  0  0  0  0  0  0  0  0
    2.8492  -11.4385    2.0892 H   0  0  0  0  0  0  0  0  0  0  0  0
    5.0723   -9.7523    2.1240 H   0  0  0  0  0  0  0  0  0  0  0  0
    3.8139   -9.6738    0.9368 H   0  0  0  0  0  0  0  0  0  0  0  0
   -0.0644  -11.0329    3.1102 H   0  0  0  0  0  0  0  0  0  0  0  0
   -1.6189   -9.0911    2.8015 H   0  0  0  0  0  0  0  0  0  0  0  0
    3.4674   -7.1991    0.4465 H   0  0  0  0  0  0  0  0  0  0  0  0
    3.8474  -12.0364    3.7364 H   0  0  0  0  0  0  0  0  0  0  0  0
  1  2  1  0
  1 26  1  0
  1 27  1  0
  1 28  1  0
  3  2  1  1
  3  6  1  0
  3 25  1  0
  3  4  1  0
  4  5  2  0
  4 29  1  0
  5  6  1  0
  5 30  1  0
  6  7  1  0
  6 31  1  1
  7  8  1  0
  8 16  1  0
  8  9  2  3
  9 10  1  0
  9 32  1  0
 10 11  1  0
 10 33  1  0
 10 34  1  0
 11 12  1  0
 11 35  1  0
 11 36  1  0
 12 13  1  0
 12 14  1  0
 12 46  1  6
 13 37  1  0
 13 38  1  0
 13 39  1  0
 14 18  1  0
 14 15  1  0
 14 40  1  6
 16 15  1  6
 15 41  1  0
 15 42  1  0
 16 25  1  0
 16 17  1  0
 17 23  1  0
 17 18  2  0
 18 19  1  0
 19 20  2  0
 19 43  1  0
 20 21  1  0
 20 44  1  0
 21 22  1  0
 21 23  2  0
 23 24  1  0
 24 25  1  0
 25 45  1  6
M  CHG  2  12   1  22  -1
M  END
>  <i_m_ct_stereo_status>  (192) 
1

>  <s_m_source_file>  (192) 
/var/tmp/pbs.5076255.sched01/tmpzygr1bk5/76dkit4mfj.sdf

>  <i_m_source_file_index>  (192) 
9

>  <i_lp_mmshare_version>  (192) 
48012

>  <i_f3d_flags>  (192) 
0

>  <s_epik_input>  (192) 
W0NIXTE9W0NIXVtDQEhdKE8yKVtDQF0xKE9bQ0gzXSlbQ0BASF0zT2MoYyhbT0hdKVtjSF1bY0hdNCljNWM0W0NAQEhdKFtDSDJdNilOKFtDSDNdKVtDSDJdW0NIMl0vW0NIXT1DXDJbQ0BdMzU2

>  <s_epik_cmdline>  (192) 
J2VwaWtfcHl0aG9uJywgJy1waHQnLCAnMi4wJywgJy1waCcsICc3LjAnLCAnLXRuJywgJzgnLCAnLW1hJywgJzIwMCcsICctaW1hZScsICc8aW5maWxlLm1hZT4nLCAnLW9tYWUnLCAnPG91dGZpbGUubWFlPic=

>  <r_epik_Ionization_Penalty>  (192) 
1.59563

>  <r_epik_Ionization_Penalty_Charging>  (192) 
1.59563

>  <r_epik_Ionization_Penalty_Neutral>  (192) 
2.18387e-14

>  <r_epik_State_Penalty>  (192) 
2.07744

>  <r_epik_Charging_Adjusted_Penalty>  (192) 
3.67308

>  <i_epik_Tot_Q>  (192) 
0

>  <i_epik_Tot_abs_Q>  (192) 
2

>  <s_lp_Force_Field>  (192) 
OPLS3e

>  <r_lp_Energy>  (192) 
97.9862

>  <b_lp_Chiralities_Consistent>  (192) 
1

>  <s_lp_Variant>  (192) 
64:0-5

>  <s_i_glide_gridfile>  (192) 
pfpi4k_grid

>  <i_i_glide_lignum>  (192) 
9

>  <i_i_glide_rotatable_bonds>  (192) 
1

>  <r_i_docking_score>  (192) 
-3.45593

>  <r_i_glide_ligand_efficiency>  (192) 
-0.138237

>  <r_i_glide_ligand_efficiency_sa>  (192) 
-0.404208

>  <r_i_glide_ligand_efficiency_ln>  (192) 
-0.819158

>  <r_i_glide_gscore>  (192) 
-3.45593

>  <r_i_glide_lipo>  (192) 
-0.336914

>  <r_i_glide_hbond>  (192) 
-0.2

>  <r_i_glide_metal>  (192) 
-0

>  <r_i_glide_rewards>  (192) 
-1.0951

>  <r_i_glide_evdw>  (192) 
-18.5937

>  <r_i_glide_ecoul>  (192) 
-5.82834

>  <r_i_glide_erotb>  (192) 
0

>  <r_i_glide_esite>  (192) 
-0.0199731

>  <r_i_glide_emodel>  (192) 
-34.9531

>  <r_i_glide_energy>  (192) 
-24.4221

>  <r_i_glide_einternal>  (192) 
0.000647186

>  <r_i_glide_intrahb_reward>  (192) 
-0

>  <i_i_glide_confnum>  (192) 
2

>  <i_i_glide_posenum>  (192) 
4

>  <r_i_glide_eff_state_penalty>  (192) 
0

>  <ligand_id>  (192) 
64

>  <original_smiles>  (192) 
COC12C=CC1OC1=CCCN(C)C3CC14c1c3ccc(O)c1OC42

>  <smiles>  (192) 
[H]C1=C2OC3([H])C([H])=C([H])C3(OC([H])([H])[H])C3([H])Oc4c([O-])c([H])c([H])c5c4C23C([H])([H])C5([H])[N+]([H])(C([H])([H])[H])C([H])([H])C1([H])[H]

$$$$
64:4:2
     RDKit          3D

 46 51  0  0  1  0  0  0  0  0999 V2000
    2.7388   -2.6613    0.4150 C   0  0  0  0  0  0  0  0  0  0  0  0
    3.5129   -3.2769    1.4377 O   0  0  0  0  0  0  0  0  0  0  0  0
    4.2948   -4.4100    1.0561 C   0  0  1  0  0  0  0  0  0  0  0  0
    5.3124   -4.1050   -0.0402 C   0  0  0  0  0  0  0  0  0  0  0  0
    6.3698   -4.2320    0.7603 C   0  0  0  0  0  0  0  0  0  0  0  0
    5.5394   -4.4871    1.9975 C   0  0  2  0  0  0  0  0  0  0  0  0
    5.8329   -5.7516    2.5989 O   0  0  0  0  0  0  0  0  0  0  0  0
    4.6996   -6.4538    2.8883 C   0  0  0  0  0  0  0  0  0  0  0  0
    4.5398   -7.1148    4.0437 C   0  0  0  0  0  0  0  0  0  0  0  0
    5.6648   -7.9032    4.6419 C   0  0  0  0  0  0  0  0  0  0  0  0
    6.1210   -8.9854    3.6200 C   0  0  0  0  0  0  0  0  0  0  0  0
    5.0465   -9.8460    3.0030 N   0  0  1  0  0  0  0  0  0  0  0  0
    4.2650  -10.6169    4.0064 C   0  0  0  0  0  0  0  0  0  0  0  0
    4.2372   -9.3586    1.8166 C   0  0  2  0  0  0  0  0  0  0  0  0
    4.7795   -8.0987    1.0272 C   0  0  0  0  0  0  0  0  0  0  0  0
    3.9896   -6.9006    1.6189 C   0  0  1  0  0  0  0  0  0  0  0  0
    2.7407   -7.5964    1.9017 C   0  0  0  0  0  0  0  0  0  0  0  0
    2.7971   -8.9557    2.1395 C   0  0  0  0  0  0  0  0  0  0  0  0
    1.5704   -9.5739    2.4571 C   0  0  0  0  0  0  0  0  0  0  0  0
    0.4077   -8.7450    2.4808 C   0  0  0  0  0  0  0  0  0  0  0  0
    0.4452   -7.3651    2.1228 C   0  0  0  0  0  0  0  0  0  0  0  0
   -0.7142   -6.6584    2.0751 O   0  0  0  0  0  0  0  0  0  0  0  0
    1.6798   -6.7629    1.7856 C   0  0  0  0  0  0  0  0  0  0  0  0
    2.0633   -5.5404    1.2907 O   0  0  0  0  0  0  0  0  0  0  0  0
    3.4430   -5.6843    0.8166 C   0  0  1  0  0  0  0  0  0  0  0  0
    2.0789   -1.9280    0.8810 H   0  0  0  0  0  0  0  0  0  0  0  0
    2.1186   -3.3676   -0.1359 H   0  0  0  0  0  0  0  0  0  0  0  0
    3.3710   -2.1291   -0.2951 H   0  0  0  0  0  0  0  0  0  0  0  0
    5.2043   -3.8691   -1.0982 H   0  0  0  0  0  0  0  0  0  0  0  0
    7.4435   -4.1325    0.6118 H   0  0  0  0  0  0  0  0  0  0  0  0
    5.5291   -3.6848    2.7390 H   0  0  0  0  0  0  0  0  0  0  0  0
    3.6195   -7.6552    4.2068 H   0  0  0  0  0  0  0  0  0  0  0  0
    6.4979   -7.2491    4.9049 H   0  0  0  0  0  0  0  0  0  0  0  0
    5.3152   -8.3576    5.5701 H   0  0  0  0  0  0  0  0  0  0  0  0
    6.7416   -8.5419    2.8443 H   0  0  0  0  0  0  0  0  0  0  0  0
    6.7969   -9.6586    4.1447 H   0  0  0  0  0  0  0  0  0  0  0  0
    3.5897   -9.9784    4.5799 H   0  0  0  0  0  0  0  0  0  0  0  0
    4.9269  -11.1161    4.7153 H   0  0  0  0  0  0  0  0  0  0  0  0
    3.6700  -11.3935    3.5215 H   0  0  0  0  0  0  0  0  0  0  0  0
    4.1968  -10.2100    1.1418 H   0  0  0  0  0  0  0  0  0  0  0  0
    5.8647   -7.9794    0.9673 H   0  0  0  0  0  0  0  0  0  0  0  0
    4.4533   -8.2088   -0.0066 H   0  0  0  0  0  0  0  0  0  0  0  0
    1.4991  -10.6440    2.6417 H   0  0  0  0  0  0  0  0  0  0  0  0
   -0.5401   -9.1921    2.7383 H   0  0  0  0  0  0  0  0  0  0  0  0
    3.3687   -5.9194   -0.2495 H   0  0  0  0  0  0  0  0  0  0  0  0
    5.5946  -10.5702    2.5647 H   0  0  0  0  0  0  0  0  0  0  0  0
  1  2  1  0
  1 26  1  0
  1 27  1  0
  1 28  1  0
  3  2  1  1
  3  6  1  0
  3 25  1  0
  3  4  1  0
  4  5  2  0
  4 29  1  0
  5  6  1  0
  5 30  1  0
  6  7  1  0
  6 31  1  1
  7  8  1  0
  8 16  1  0
  8  9  2  3
  9 10  1  0
  9 32  1  0
 10 11  1  0
 10 33  1  0
 10 34  1  0
 11 12  1  0
 11 35  1  0
 11 36  1  0
 12 13  1  0
 12 14  1  0
 12 46  1  6
 13 37  1  0
 13 38  1  0
 13 39  1  0
 14 18  1  0
 14 15  1  0
 14 40  1  6
 16 15  1  6
 15 41  1  0
 15 42  1  0
 16 25  1  0
 16 17  1  0
 17 23  1  0
 17 18  2  0
 18 19  1  0
 19 20  2  0
 19 43  1  0
 20 21  1  0
 20 44  1  0
 21 22  1  0
 21 23  2  0
 23 24  1  0
 24 25  1  0
 25 45  1  6
M  CHG  2  12   1  22  -1
M  END
>  <i_m_ct_stereo_status>  (193) 
1

>  <s_m_source_file>  (193) 
/var/tmp/pbs.5076255.sched01/tmpzygr1bk5/76dkit4mfj.sdf

>  <i_m_source_file_index>  (193) 
9

>  <i_lp_mmshare_version>  (193) 
48012

>  <i_f3d_flags>  (193) 
0

>  <s_epik_input>  (193) 
W0NIXTE9W0NIXVtDQEhdKE8yKVtDQF0xKE9bQ0gzXSlbQ0BASF0zT2MoYyhbT0hdKVtjSF1bY0hdNCljNWM0W0NAQEhdKFtDSDJdNilOKFtDSDNdKVtDSDJdW0NIMl0vW0NIXT1DXDJbQ0BdMzU2

>  <s_epik_cmdline>  (193) 
J2VwaWtfcHl0aG9uJywgJy1waHQnLCAnMi4wJywgJy1waCcsICc3LjAnLCAnLXRuJywgJzgnLCAnLW1hJywgJzIwMCcsICctaW1hZScsICc8aW5maWxlLm1hZT4nLCAnLW9tYWUnLCAnPG91dGZpbGUubWFlPic=

>  <r_epik_Ionization_Penalty>  (193) 
1.59563

>  <r_epik_Ionization_Penalty_Charging>  (193) 
1.59563

>  <r_epik_Ionization_Penalty_Neutral>  (193) 
2.18387e-14

>  <r_epik_State_Penalty>  (193) 
2.07744

>  <r_epik_Charging_Adjusted_Penalty>  (193) 
3.67308

>  <i_epik_Tot_Q>  (193) 
0

>  <i_epik_Tot_abs_Q>  (193) 
2

>  <s_lp_Force_Field>  (193) 
OPLS3e

>  <r_lp_Energy>  (193) 
97.9862

>  <b_lp_Chiralities_Consistent>  (193) 
1

>  <s_lp_Variant>  (193) 
64:0-5

>  <s_i_glide_gridfile>  (193) 
pfpi4k_grid

>  <i_i_glide_lignum>  (193) 
9

>  <i_i_glide_rotatable_bonds>  (193) 
1

>  <r_i_docking_score>  (193) 
-3.33859

>  <r_i_glide_ligand_efficiency>  (193) 
-0.133543

>  <r_i_glide_ligand_efficiency_sa>  (193) 
-0.390483

>  <r_i_glide_ligand_efficiency_ln>  (193) 
-0.791345

>  <r_i_glide_gscore>  (193) 
-3.33859

>  <r_i_glide_lipo>  (193) 
-0.386085

>  <r_i_glide_hbond>  (193) 
-0.214166

>  <r_i_glide_metal>  (193) 
-0

>  <r_i_glide_rewards>  (193) 
-1.0951

>  <r_i_glide_evdw>  (193) 
-18.394

>  <r_i_glide_ecoul>  (193) 
-4.66468

>  <r_i_glide_erotb>  (193) 
0

>  <r_i_glide_esite>  (193) 
-0.0238302

>  <r_i_glide_emodel>  (193) 
-33.3219

>  <r_i_glide_energy>  (193) 
-23.0587

>  <r_i_glide_einternal>  (193) 
0.0313224

>  <r_i_glide_intrahb_reward>  (193) 
-0

>  <i_i_glide_confnum>  (193) 
2

>  <i_i_glide_posenum>  (193) 
1

>  <r_i_glide_eff_state_penalty>  (193) 
0

>  <ligand_id>  (193) 
64

>  <original_smiles>  (193) 
COC12C=CC1OC1=CCCN(C)C3CC14c1c3ccc(O)c1OC42

>  <smiles>  (193) 
[H]C1=C2OC3([H])C([H])=C([H])C3(OC([H])([H])[H])C3([H])Oc4c([O-])c([H])c([H])c5c4C23C([H])([H])C5([H])[N+]([H])(C([H])([H])[H])C([H])([H])C1([H])[H]

$$$$
64:5:0
     RDKit          3D

 46 51  0  0  1  0  0  0  0  0999 V2000
    3.3664   -2.8049   -0.3484 C   0  0  0  0  0  0  0  0  0  0  0  0
    4.0281   -3.1669    0.8584 O   0  0  0  0  0  0  0  0  0  0  0  0
    4.8282   -4.3505    0.8193 C   0  0  1  0  0  0  0  0  0  0  0  0
    6.0223   -4.1947   -0.1175 C   0  0  0  0  0  0  0  0  0  0  0  0
    6.8901   -3.9819    0.8827 C   0  0  0  0  0  0  0  0  0  0  0  0
    5.8642   -4.2847    1.9569 C   0  0  2  0  0  0  0  0  0  0  0  0
    6.1981   -5.4965    2.6181 O   0  0  0  0  0  0  0  0  0  0  0  0
    5.1906   -6.4027    2.8105 C   0  0  0  0  0  0  0  0  0  0  0  0
    5.0725   -6.8974    4.0583 C   0  0  0  0  0  0  0  0  0  0  0  0
    4.0941   -7.9386    4.5669 C   0  0  0  0  0  0  0  0  0  0  0  0
    4.4969   -9.4056    4.2858 C   0  0  0  0  0  0  0  0  0  0  0  0
    5.1320   -9.7184    2.9607 N   0  0  1  0  0  0  0  0  0  0  0  0
    5.5298  -11.1477    2.9186 C   0  0  0  0  0  0  0  0  0  0  0  0
    4.4392   -9.3170    1.6924 C   0  0  2  0  0  0  0  0  0  0  0  0
    5.1517   -8.1101    0.9823 C   0  0  0  0  0  0  0  0  0  0  0  0
    4.4541   -6.8464    1.5313 C   0  0  1  0  0  0  0  0  0  0  0  0
    3.1237   -7.4419    1.7389 C   0  0  0  0  0  0  0  0  0  0  0  0
    3.0305   -8.8088    1.9014 C   0  0  0  0  0  0  0  0  0  0  0  0
    1.7480   -9.3445    2.1087 C   0  0  0  0  0  0  0  0  0  0  0  0
    0.6564   -8.4334    2.0960 C   0  0  0  0  0  0  0  0  0  0  0  0
    0.8293   -7.0553    1.7805 C   0  0  0  0  0  0  0  0  0  0  0  0
   -0.2713   -6.2947    1.6441 O   0  0  0  0  0  0  0  0  0  0  0  0
    2.1285   -6.5417    1.5619 C   0  0  0  0  0  0  0  0  0  0  0  0
    2.6159   -5.3608    1.0884 O   0  0  0  0  0  0  0  0  0  0  0  0
    3.9899   -5.6311    0.6530 C   0  0  1  0  0  0  0  0  0  0  0  0
    2.6985   -1.9706   -0.1377 H   0  0  0  0  0  0  0  0  0  0  0  0
    2.7572   -3.6104   -0.7594 H   0  0  0  0  0  0  0  0  0  0  0  0
    4.0720   -2.4788   -1.1119 H   0  0  0  0  0  0  0  0  0  0  0  0
    6.1213   -4.1700   -1.1961 H   0  0  0  0  0  0  0  0  0  0  0  0
    7.9437   -3.7331    0.9292 H   0  0  0  0  0  0  0  0  0  0  0  0
    5.6413   -3.4912    2.6721 H   0  0  0  0  0  0  0  0  0  0  0  0
    5.7327   -6.5008    4.8138 H   0  0  0  0  0  0  0  0  0  0  0  0
    3.9953   -7.7955    5.6434 H   0  0  0  0  0  0  0  0  0  0  0  0
    3.0900   -7.7199    4.2144 H   0  0  0  0  0  0  0  0  0  0  0  0
    5.2224   -9.6820    5.0499 H   0  0  0  0  0  0  0  0  0  0  0  0
    3.6396  -10.0554    4.4634 H   0  0  0  0  0  0  0  0  0  0  0  0
    4.6605  -11.8082    2.9048 H   0  0  0  0  0  0  0  0  0  0  0  0
    6.1306  -11.4152    3.7887 H   0  0  0  0  0  0  0  0  0  0  0  0
    6.1284  -11.3672    2.0349 H   0  0  0  0  0  0  0  0  0  0  0  0
    4.4037  -10.1496    0.9978 H   0  0  0  0  0  0  0  0  0  0  0  0
    6.2403   -8.1049    1.0603 H   0  0  0  0  0  0  0  0  0  0  0  0
    4.9102   -8.1697   -0.0780 H   0  0  0  0  0  0  0  0  0  0  0  0
    1.5833  -10.4121    2.2440 H   0  0  0  0  0  0  0  0  0  0  0  0
   -0.3436   -8.8079    2.2518 H   0  0  0  0  0  0  0  0  0  0  0  0
    3.9129   -5.9168   -0.3975 H   0  0  0  0  0  0  0  0  0  0  0  0
    5.9946   -9.1975    2.9538 H   0  0  0  0  0  0  0  0  0  0  0  0
  1  2  1  0
  1 26  1  0
  1 27  1  0
  1 28  1  0
  3  2  1  1
  3  6  1  0
  3 25  1  0
  3  4  1  0
  4  5  2  0
  4 29  1  0
  5  6  1  0
  5 30  1  0
  6  7  1  0
  6 31  1  1
  7  8  1  0
  8 16  1  0
  8  9  2  3
  9 10  1  0
  9 32  1  0
 10 11  1  0
 10 33  1  0
 10 34  1  0
 11 12  1  0
 11 35  1  0
 11 36  1  0
 12 13  1  0
 12 14  1  0
 12 46  1  1
 13 37  1  0
 13 38  1  0
 13 39  1  0
 14 18  1  0
 14 15  1  0
 14 40  1  6
 16 15  1  6
 15 41  1  0
 15 42  1  0
 16 25  1  0
 16 17  1  0
 17 23  1  0
 17 18  2  0
 18 19  1  0
 19 20  2  0
 19 43  1  0
 20 21  1  0
 20 44  1  0
 21 22  1  0
 21 23  2  0
 23 24  1  0
 24 25  1  0
 25 45  1  6
M  CHG  2  12   1  22  -1
M  END
>  <i_m_ct_stereo_status>  (194) 
1

>  <s_m_source_file>  (194) 
/var/tmp/pbs.5076255.sched01/tmpzygr1bk5/76dkit4mfj.sdf

>  <i_m_source_file_index>  (194) 
10

>  <i_lp_mmshare_version>  (194) 
48012

>  <i_f3d_flags>  (194) 
0

>  <s_epik_input>  (194) 
W0NIXTE9W0NIXVtDQEhdKE8yKVtDQF0xKE9bQ0gzXSlbQ0BASF0zT2MoYyhbT0hdKVtjSF1bY0hdNCljNWM0W0NAQEhdKFtDSDJdNilOKFtDSDNdKVtDSDJdW0NIMl0vW0NIXT1DXDJbQ0BdMzU2

>  <s_epik_cmdline>  (194) 
J2VwaWtfcHl0aG9uJywgJy1waHQnLCAnMi4wJywgJy1waCcsICc3LjAnLCAnLXRuJywgJzgnLCAnLW1hJywgJzIwMCcsICctaW1hZScsICc8aW5maWxlLm1hZT4nLCAnLW9tYWUnLCAnPG91dGZpbGUubWFlPic=

>  <r_epik_Ionization_Penalty>  (194) 
1.59563

>  <r_epik_Ionization_Penalty_Charging>  (194) 
1.59563

>  <r_epik_Ionization_Penalty_Neutral>  (194) 
2.18387e-14

>  <r_epik_State_Penalty>  (194) 
2.07744

>  <r_epik_Charging_Adjusted_Penalty>  (194) 
3.67308

>  <i_epik_Tot_Q>  (194) 
0

>  <i_epik_Tot_abs_Q>  (194) 
2

>  <s_lp_Force_Field>  (194) 
OPLS3e

>  <r_lp_Energy>  (194) 
71.2582

>  <b_lp_Chiralities_Consistent>  (194) 
1

>  <s_lp_Variant>  (194) 
64:0-6

>  <s_i_glide_gridfile>  (194) 
pfpi4k_grid

>  <i_i_glide_lignum>  (194) 
10

>  <i_i_glide_rotatable_bonds>  (194) 
1

>  <r_i_docking_score>  (194) 
-3.49221

>  <r_i_glide_ligand_efficiency>  (194) 
-0.139688

>  <r_i_glide_ligand_efficiency_sa>  (194) 
-0.408452

>  <r_i_glide_ligand_efficiency_ln>  (194) 
-0.827759

>  <r_i_glide_gscore>  (194) 
-3.49221

>  <r_i_glide_lipo>  (194) 
-0.510217

>  <r_i_glide_hbond>  (194) 
-0.362797

>  <r_i_glide_metal>  (194) 
-0

>  <r_i_glide_rewards>  (194) 
-1.0951

>  <r_i_glide_evdw>  (194) 
-16.8101

>  <r_i_glide_ecoul>  (194) 
-4.41858

>  <r_i_glide_erotb>  (194) 
0

>  <r_i_glide_esite>  (194) 
-0.0208048

>  <r_i_glide_emodel>  (194) 
-31.5814

>  <r_i_glide_energy>  (194) 
-21.2286

>  <r_i_glide_einternal>  (194) 
0.0138631

>  <r_i_glide_intrahb_reward>  (194) 
-0

>  <i_i_glide_confnum>  (194) 
2

>  <i_i_glide_posenum>  (194) 
18

>  <r_i_glide_eff_state_penalty>  (194) 
0

>  <ligand_id>  (194) 
64

>  <original_smiles>  (194) 
COC12C=CC1OC1=CCCN(C)C3CC14c1c3ccc(O)c1OC42

>  <smiles>  (194) 
[H]C1=C2OC3([H])C([H])=C([H])C3(OC([H])([H])[H])C3([H])Oc4c([O-])c([H])c([H])c5c4C23C([H])([H])C5([H])[N+]([H])(C([H])([H])[H])C([H])([H])C1([H])[H]

$$$$
64:5:1
     RDKit          3D

 46 51  0  0  1  0  0  0  0  0999 V2000
    2.8818   -3.3955   -0.0699 C   0  0  0  0  0  0  0  0  0  0  0  0
    3.3859   -3.7580    1.2109 O   0  0  0  0  0  0  0  0  0  0  0  0
    4.1487   -4.9668    1.2750 C   0  0  1  0  0  0  0  0  0  0  0  0
    5.3815   -4.9194    0.3829 C   0  0  0  0  0  0  0  0  0  0  0  0
    6.2113   -4.6624    1.3930 C   0  0  0  0  0  0  0  0  0  0  0  0
    5.1437   -4.8551    2.4470 C   0  0  2  0  0  0  0  0  0  0  0  0
    5.4117   -6.0312    3.1987 O   0  0  0  0  0  0  0  0  0  0  0  0
    4.3723   -6.8914    3.4105 C   0  0  0  0  0  0  0  0  0  0  0  0
    4.1933   -7.2969    4.6813 C   0  0  0  0  0  0  0  0  0  0  0  0
    3.1654   -8.2704    5.2248 C   0  0  0  0  0  0  0  0  0  0  0  0
    3.5265   -9.7612    5.0605 C   0  0  0  0  0  0  0  0  0  0  0  0
    4.1995  -10.1786    3.7832 N   0  0  1  0  0  0  0  0  0  0  0  0
    4.5528  -11.6228    3.8475 C   0  0  0  0  0  0  0  0  0  0  0  0
    3.5558   -9.8344    2.4706 C   0  0  2  0  0  0  0  0  0  0  0  0
    4.3446   -8.7133    1.7050 C   0  0  0  0  0  0  0  0  0  0  0  0
    3.6742   -7.3969    2.1350 C   0  0  1  0  0  0  0  0  0  0  0  0
    2.3281   -7.9412    2.3365 C   0  0  0  0  0  0  0  0  0  0  0  0
    2.1658   -9.2850    2.5970 C   0  0  0  0  0  0  0  0  0  0  0  0
    0.8626   -9.7843    2.7865 C   0  0  0  0  0  0  0  0  0  0  0  0
   -0.1944   -8.8375    2.6630 C   0  0  0  0  0  0  0  0  0  0  0  0
    0.0534   -7.4871    2.2739 C   0  0  0  0  0  0  0  0  0  0  0  0
   -0.9954   -6.6526    2.0843 O   0  0  0  0  0  0  0  0  0  0  0  0
    1.3726   -7.0226    2.0565 C   0  0  0  0  0  0  0  0  0  0  0  0
    1.9075   -5.8871    1.5108 O   0  0  0  0  0  0  0  0  0  0  0  0
    3.2770   -6.2278    1.1551 C   0  0  1  0  0  0  0  0  0  0  0  0
    2.2212   -2.5394    0.0568 H   0  0  0  0  0  0  0  0  0  0  0  0
    2.3023   -4.1902   -0.5404 H   0  0  0  0  0  0  0  0  0  0  0  0
    3.6814   -3.0943   -0.7457 H   0  0  0  0  0  0  0  0  0  0  0  0
    5.5180   -4.9713   -0.6956 H   0  0  0  0  0  0  0  0  0  0  0  0
    7.2746   -4.4389    1.4565 H   0  0  0  0  0  0  0  0  0  0  0  0
    4.9210   -4.0006    3.0921 H   0  0  0  0  0  0  0  0  0  0  0  0
    4.8357   -6.8702    5.4346 H   0  0  0  0  0  0  0  0  0  0  0  0
    3.0352   -8.0559    6.2864 H   0  0  0  0  0  0  0  0  0  0  0  0
    2.1799   -8.0465    4.8248 H   0  0  0  0  0  0  0  0  0  0  0  0
    4.2124  -10.0099    5.8645 H   0  0  0  0  0  0  0  0  0  0  0  0
    2.6455  -10.3741    5.2487 H   0  0  0  0  0  0  0  0  0  0  0  0
    3.6665  -12.2590    3.8496 H   0  0  0  0  0  0  0  0  0  0  0  0
    5.1109  -11.8497    4.7536 H   0  0  0  0  0  0  0  0  0  0  0  0
    5.1744  -11.9192    3.0052 H   0  0  0  0  0  0  0  0  0  0  0  0
    3.4884  -10.7009    1.8268 H   0  0  0  0  0  0  0  0  0  0  0  0
    5.4365   -8.7379    1.8184 H   0  0  0  0  0  0  0  0  0  0  0  0
    4.1467   -8.8417    0.6431 H   0  0  0  0  0  0  0  0  0  0  0  0
    0.6558  -10.8280    2.9862 H   0  0  0  0  0  0  0  0  0  0  0  0
   -1.2170   -9.1552    2.8120 H   0  0  0  0  0  0  0  0  0  0  0  0
    3.2315   -6.5786    0.1175 H   0  0  0  0  0  0  0  0  0  0  0  0
    5.0819   -9.6907    3.7716 H   0  0  0  0  0  0  0  0  0  0  0  0
  1  2  1  0
  1 26  1  0
  1 27  1  0
  1 28  1  0
  3  2  1  6
  3  6  1  0
  3 25  1  0
  3  4  1  0
  4  5  2  0
  4 29  1  0
  5  6  1  0
  5 30  1  0
  6  7  1  0
  6 31  1  1
  7  8  1  0
  8 16  1  0
  8  9  2  3
  9 10  1  0
  9 32  1  0
 10 11  1  0
 10 33  1  0
 10 34  1  0
 11 12  1  0
 11 35  1  0
 11 36  1  0
 12 13  1  0
 12 14  1  0
 12 46  1  6
 13 37  1  0
 13 38  1  0
 13 39  1  0
 14 18  1  0
 14 15  1  0
 14 40  1  6
 16 15  1  6
 15 41  1  0
 15 42  1  0
 16 25  1  0
 16 17  1  0
 17 23  1  0
 17 18  2  0
 18 19  1  0
 19 20  2  0
 19 43  1  0
 20 21  1  0
 20 44  1  0
 21 22  1  0
 21 23  2  0
 23 24  1  0
 24 25  1  0
 25 45  1  6
M  CHG  2  12   1  22  -1
M  END
>  <i_m_ct_stereo_status>  (195) 
1

>  <s_m_source_file>  (195) 
/var/tmp/pbs.5076255.sched01/tmpzygr1bk5/76dkit4mfj.sdf

>  <i_m_source_file_index>  (195) 
10

>  <i_lp_mmshare_version>  (195) 
48012

>  <i_f3d_flags>  (195) 
0

>  <s_epik_input>  (195) 
W0NIXTE9W0NIXVtDQEhdKE8yKVtDQF0xKE9bQ0gzXSlbQ0BASF0zT2MoYyhbT0hdKVtjSF1bY0hdNCljNWM0W0NAQEhdKFtDSDJdNilOKFtDSDNdKVtDSDJdW0NIMl0vW0NIXT1DXDJbQ0BdMzU2

>  <s_epik_cmdline>  (195) 
J2VwaWtfcHl0aG9uJywgJy1waHQnLCAnMi4wJywgJy1waCcsICc3LjAnLCAnLXRuJywgJzgnLCAnLW1hJywgJzIwMCcsICctaW1hZScsICc8aW5maWxlLm1hZT4nLCAnLW9tYWUnLCAnPG91dGZpbGUubWFlPic=

>  <r_epik_Ionization_Penalty>  (195) 
1.59563

>  <r_epik_Ionization_Penalty_Charging>  (195) 
1.59563

>  <r_epik_Ionization_Penalty_Neutral>  (195) 
2.18387e-14

>  <r_epik_State_Penalty>  (195) 
2.07744

>  <r_epik_Charging_Adjusted_Penalty>  (195) 
3.67308

>  <i_epik_Tot_Q>  (195) 
0

>  <i_epik_Tot_abs_Q>  (195) 
2

>  <s_lp_Force_Field>  (195) 
OPLS3e

>  <r_lp_Energy>  (195) 
71.2582

>  <b_lp_Chiralities_Consistent>  (195) 
1

>  <s_lp_Variant>  (195) 
64:0-6

>  <s_i_glide_gridfile>  (195) 
pfpi4k_grid

>  <i_i_glide_lignum>  (195) 
10

>  <i_i_glide_rotatable_bonds>  (195) 
1

>  <r_i_docking_score>  (195) 
-3.35009

>  <r_i_glide_ligand_efficiency>  (195) 
-0.134004

>  <r_i_glide_ligand_efficiency_sa>  (195) 
-0.391829

>  <r_i_glide_ligand_efficiency_ln>  (195) 
-0.794071

>  <r_i_glide_gscore>  (195) 
-3.35009

>  <r_i_glide_lipo>  (195) 
-0.36212

>  <r_i_glide_hbond>  (195) 
-0.2

>  <r_i_glide_metal>  (195) 
-0

>  <r_i_glide_rewards>  (195) 
-1.0951

>  <r_i_glide_evdw>  (195) 
-17.8957

>  <r_i_glide_ecoul>  (195) 
-5.23073

>  <r_i_glide_erotb>  (195) 
0

>  <r_i_glide_esite>  (195) 
-0.0134731

>  <r_i_glide_emodel>  (195) 
-32.9636

>  <r_i_glide_energy>  (195) 
-23.1264

>  <r_i_glide_einternal>  (195) 
0.0728719

>  <r_i_glide_intrahb_reward>  (195) 
-0

>  <i_i_glide_confnum>  (195) 
1

>  <i_i_glide_posenum>  (195) 
7

>  <r_i_glide_eff_state_penalty>  (195) 
0

>  <ligand_id>  (195) 
64

>  <original_smiles>  (195) 
COC12C=CC1OC1=CCCN(C)C3CC14c1c3ccc(O)c1OC42

>  <smiles>  (195) 
[H]C1=C2OC3([H])C([H])=C([H])C3(OC([H])([H])[H])C3([H])Oc4c([O-])c([H])c([H])c5c4C23C([H])([H])C5([H])[N+]([H])(C([H])([H])[H])C([H])([H])C1([H])[H]

$$$$
64:5:2
     RDKit          3D

 46 51  0  0  1  0  0  0  0  0999 V2000
    3.8214   -4.3915    0.3574 C   0  0  0  0  0  0  0  0  0  0  0  0
    4.1305   -4.6746    1.7181 O   0  0  0  0  0  0  0  0  0  0  0  0
    4.6257   -5.9851    2.0061 C   0  0  1  0  0  0  0  0  0  0  0  0
    5.9648   -6.2367    1.3212 C   0  0  0  0  0  0  0  0  0  0  0  0
    6.6755   -6.0409    2.4406 C   0  0  0  0  0  0  0  0  0  0  0  0
    5.4411   -5.9329    3.3120 C   0  0  2  0  0  0  0  0  0  0  0  0
    5.3645   -7.0556    4.1772 O   0  0  0  0  0  0  0  0  0  0  0  0
    4.1608   -7.6978    4.2723 C   0  0  0  0  0  0  0  0  0  0  0  0
    3.7143   -7.9359    5.5235 C   0  0  0  0  0  0  0  0  0  0  0  0
    2.4513   -8.6591    5.9525 C   0  0  0  0  0  0  0  0  0  0  0  0
    2.5479  -10.2018    5.9492 C   0  0  0  0  0  0  0  0  0  0  0  0
    3.3123  -10.8523    4.8363 N   0  0  1  0  0  0  0  0  0  0  0  0
    3.3756  -12.3106    5.0710 C   0  0  0  0  0  0  0  0  0  0  0  0
    2.9561  -10.5529    3.4144 C   0  0  2  0  0  0  0  0  0  0  0  0
    4.0448   -9.6555    2.7188 C   0  0  0  0  0  0  0  0  0  0  0  0
    3.5712   -8.2002    2.9376 C   0  0  1  0  0  0  0  0  0  0  0  0
    2.1247   -8.4730    2.9434 C   0  0  0  0  0  0  0  0  0  0  0  0
    1.6889   -9.7440    3.2642 C   0  0  0  0  0  0  0  0  0  0  0  0
    0.3009   -9.9704    3.2586 C   0  0  0  0  0  0  0  0  0  0  0  0
   -0.5333   -8.8706    2.8984 C   0  0  0  0  0  0  0  0  0  0  0  0
    0.0125   -7.6241    2.4690 C   0  0  0  0  0  0  0  0  0  0  0  0
   -0.8451   -6.6731    2.0609 O   0  0  0  0  0  0  0  0  0  0  0  0
    1.4129   -7.4279    2.4459 C   0  0  0  0  0  0  0  0  0  0  0  0
    2.2392   -6.4662    1.9307 O   0  0  0  0  0  0  0  0  0  0  0  0
    3.5624   -7.0834    1.8273 C   0  0  1  0  0  0  0  0  0  0  0  0
    3.3340   -3.4177    0.3076 H   0  0  0  0  0  0  0  0  0  0  0  0
    3.1392   -5.1181   -0.0836 H   0  0  0  0  0  0  0  0  0  0  0  0
    4.7209   -4.3407   -0.2552 H   0  0  0  0  0  0  0  0  0  0  0  0
    6.2607   -6.4080    0.2931 H   0  0  0  0  0  0  0  0  0  0  0  0
    7.7382   -6.0015    2.6618 H   0  0  0  0  0  0  0  0  0  0  0  0
    5.2897   -4.9942    3.8477 H   0  0  0  0  0  0  0  0  0  0  0  0
    4.3093   -7.5542    6.3404 H   0  0  0  0  0  0  0  0  0  0  0  0
    2.2083   -8.3139    6.9600 H   0  0  0  0  0  0  0  0  0  0  0  0
    1.6001   -8.2999    5.3772 H   0  0  0  0  0  0  0  0  0  0  0  0
    3.0379  -10.4803    6.8783 H   0  0  0  0  0  0  0  0  0  0  0  0
    1.5479  -10.6201    6.0355 H   0  0  0  0  0  0  0  0  0  0  0  0
    2.3942  -12.7690    4.9645 H   0  0  0  0  0  0  0  0  0  0  0  0
    3.7285  -12.5495    6.0733 H   0  0  0  0  0  0  0  0  0  0  0  0
    4.0463  -12.8030    4.3710 H   0  0  0  0  0  0  0  0  0  0  0  0
    2.8388  -11.4653    2.8348 H   0  0  0  0  0  0  0  0  0  0  0  0
    5.0805   -9.8536    3.0142 H   0  0  0  0  0  0  0  0  0  0  0  0
    3.9910   -9.8461    1.6474 H   0  0  0  0  0  0  0  0  0  0  0  0
   -0.1265  -10.9358    3.5154 H   0  0  0  0  0  0  0  0  0  0  0  0
   -1.6058   -8.9983    2.9104 H   0  0  0  0  0  0  0  0  0  0  0  0
    3.6047   -7.5256    0.8260 H   0  0  0  0  0  0  0  0  0  0  0  0
    4.2590  -10.5278    4.9443 H   0  0  0  0  0  0  0  0  0  0  0  0
  1  2  1  0
  1 26  1  0
  1 27  1  0
  1 28  1  0
  3  2  1  6
  3  6  1  0
  3 25  1  0
  3  4  1  0
  4  5  2  0
  4 29  1  0
  5  6  1  0
  5 30  1  0
  6  7  1  0
  6 31  1  1
  7  8  1  0
  8 16  1  0
  8  9  2  3
  9 10  1  0
  9 32  1  0
 10 11  1  0
 10 33  1  0
 10 34  1  0
 11 12  1  0
 11 35  1  0
 11 36  1  0
 12 13  1  0
 12 14  1  0
 12 46  1  6
 13 37  1  0
 13 38  1  0
 13 39  1  0
 14 18  1  0
 14 15  1  0
 14 40  1  6
 16 15  1  6
 15 41  1  0
 15 42  1  0
 16 25  1  0
 16 17  1  0
 17 23  1  0
 17 18  2  0
 18 19  1  0
 19 20  2  0
 19 43  1  0
 20 21  1  0
 20 44  1  0
 21 22  1  0
 21 23  2  0
 23 24  1  0
 24 25  1  0
 25 45  1  6
M  CHG  2  12   1  22  -1
M  END
>  <i_m_ct_stereo_status>  (196) 
1

>  <s_m_source_file>  (196) 
/var/tmp/pbs.5076255.sched01/tmpzygr1bk5/76dkit4mfj.sdf

>  <i_m_source_file_index>  (196) 
10

>  <i_lp_mmshare_version>  (196) 
48012

>  <i_f3d_flags>  (196) 
0

>  <s_epik_input>  (196) 
W0NIXTE9W0NIXVtDQEhdKE8yKVtDQF0xKE9bQ0gzXSlbQ0BASF0zT2MoYyhbT0hdKVtjSF1bY0hdNCljNWM0W0NAQEhdKFtDSDJdNilOKFtDSDNdKVtDSDJdW0NIMl0vW0NIXT1DXDJbQ0BdMzU2

>  <s_epik_cmdline>  (196) 
J2VwaWtfcHl0aG9uJywgJy1waHQnLCAnMi4wJywgJy1waCcsICc3LjAnLCAnLXRuJywgJzgnLCAnLW1hJywgJzIwMCcsICctaW1hZScsICc8aW5maWxlLm1hZT4nLCAnLW9tYWUnLCAnPG91dGZpbGUubWFlPic=

>  <r_epik_Ionization_Penalty>  (196) 
1.59563

>  <r_epik_Ionization_Penalty_Charging>  (196) 
1.59563

>  <r_epik_Ionization_Penalty_Neutral>  (196) 
2.18387e-14

>  <r_epik_State_Penalty>  (196) 
2.07744

>  <r_epik_Charging_Adjusted_Penalty>  (196) 
3.67308

>  <i_epik_Tot_Q>  (196) 
0

>  <i_epik_Tot_abs_Q>  (196) 
2

>  <s_lp_Force_Field>  (196) 
OPLS3e

>  <r_lp_Energy>  (196) 
71.2582

>  <b_lp_Chiralities_Consistent>  (196) 
1

>  <s_lp_Variant>  (196) 
64:0-6

>  <s_i_glide_gridfile>  (196) 
pfpi4k_grid

>  <i_i_glide_lignum>  (196) 
10

>  <i_i_glide_rotatable_bonds>  (196) 
1

>  <r_i_docking_score>  (196) 
-3.27294

>  <r_i_glide_ligand_efficiency>  (196) 
-0.130918

>  <r_i_glide_ligand_efficiency_sa>  (196) 
-0.382805

>  <r_i_glide_ligand_efficiency_ln>  (196) 
-0.775784

>  <r_i_glide_gscore>  (196) 
-3.27294

>  <r_i_glide_lipo>  (196) 
-0.205489

>  <r_i_glide_hbond>  (196) 
-0.2

>  <r_i_glide_metal>  (196) 
-0

>  <r_i_glide_rewards>  (196) 
-1.0951

>  <r_i_glide_evdw>  (196) 
-18.3396

>  <r_i_glide_ecoul>  (196) 
-5.50826

>  <r_i_glide_erotb>  (196) 
0

>  <r_i_glide_esite>  (196) 
-0.0291286

>  <r_i_glide_emodel>  (196) 
-33.498

>  <r_i_glide_energy>  (196) 
-23.8479

>  <r_i_glide_einternal>  (196) 
4.52593e-05

>  <r_i_glide_intrahb_reward>  (196) 
-0

>  <i_i_glide_confnum>  (196) 
1

>  <i_i_glide_posenum>  (196) 
35

>  <r_i_glide_eff_state_penalty>  (196) 
0

>  <ligand_id>  (196) 
64

>  <original_smiles>  (196) 
COC12C=CC1OC1=CCCN(C)C3CC14c1c3ccc(O)c1OC42

>  <smiles>  (196) 
[H]C1=C2OC3([H])C([H])=C([H])C3(OC([H])([H])[H])C3([H])Oc4c([O-])c([H])c([H])c5c4C23C([H])([H])C5([H])[N+]([H])(C([H])([H])[H])C([H])([H])C1([H])[H]

$$$$
65:0:0
     RDKit          3D

 66 71  0  0  1  0  0  0  0  0999 V2000
    2.4998   -4.4213    5.5058 C   0  0  0  0  0  0  0  0  0  0  0  0
    3.4619   -3.8302    4.4695 C   0  0  2  0  0  0  0  0  0  0  0  0
    2.7539   -3.4454    3.1456 C   0  0  0  0  0  0  0  0  0  0  0  0
    3.1637   -4.2583    1.8889 C   0  0  1  0  0  0  0  0  0  0  0  0
    2.3564   -5.5927    2.1008 C   0  0  0  0  0  0  0  0  0  0  0  0
    2.9398   -3.7780    0.4368 C   0  0  2  0  0  0  0  0  0  0  0  0
    3.8477   -4.9114   -0.2549 C   0  0  1  0  0  0  0  0  0  0  0  0
    5.1061   -4.6772   -1.0756 C   0  0  0  0  0  0  0  0  0  0  0  0
    5.7319   -3.3747   -0.6606 C   0  0  1  0  0  0  0  0  0  0  0  0
    7.2671   -3.4770   -0.8823 C   0  0  0  0  0  0  0  0  0  0  0  0
    5.1755   -2.4002   -1.7954 C   0  0  2  0  0  0  0  0  0  0  0  0
    4.8241   -0.9999   -1.4121 C   0  0  1  0  0  0  0  0  0  0  0  0
    5.0237    0.0349   -2.3105 O   0  0  0  0  0  0  0  0  0  0  0  0
    3.3996   -1.5690   -1.2340 C   0  0  2  0  0  0  0  0  0  0  0  0
    3.0623   -2.1716    0.1822 C   0  0  2  0  0  0  0  0  0  0  0  0
    3.8310   -1.2707    1.1800 C   0  0  0  0  0  0  0  0  0  0  0  0
    5.2214   -1.8132    1.5605 C   0  0  1  0  0  0  0  0  0  0  0  0
    5.3689   -1.7191    2.9503 O   0  0  0  0  0  0  0  0  0  0  0  0
    5.5320   -3.2272    0.9905 C   0  0  1  0  0  0  0  0  0  0  0  0
    4.6875   -4.4165    1.7407 C   0  0  2  0  0  0  0  0  0  0  0  0
    4.5750   -5.4560    0.8142 O   0  0  0  0  0  0  0  0  0  0  0  0
    5.2697   -5.1158    2.9888 C   0  0  1  0  0  0  0  0  0  0  0  0
    6.6644   -5.2735    2.8878 O   0  0  0  0  0  0  0  0  0  0  0  0
    4.7924   -4.6310    4.3966 C   0  0  1  0  0  0  0  0  0  0  0  0
    5.8675   -4.0014    5.3009 C   0  0  0  0  0  0  0  0  0  0  0  0
    3.7334   -2.3845   -2.5081 C   0  0  0  0  0  0  0  0  0  0  0  0
    3.7062   -1.7368   -3.9352 C   0  0  0  0  0  0  0  0  0  0  0  0
    2.7546   -3.4899   -2.8426 C   0  0  0  0  0  0  0  0  0  0  0  0
    2.1509   -5.4132    5.2120 H   0  0  0  0  0  0  0  0  0  0  0  0
    1.6268   -3.7832    5.6568 H   0  0  0  0  0  0  0  0  0  0  0  0
    2.9896   -4.5164    6.4773 H   0  0  0  0  0  0  0  0  0  0  0  0
    3.7242   -2.8659    4.9074 H   0  0  0  0  0  0  0  0  0  0  0  0
    1.6774   -3.5210    3.2704 H   0  0  0  0  0  0  0  0  0  0  0  0
    2.8758   -2.3930    3.1101 H   0  0  0  0  0  0  0  0  0  0  0  0
    2.4391   -6.3383    1.3098 H   0  0  0  0  0  0  0  0  0  0  0  0
    1.2862   -5.4004    2.1914 H   0  0  0  0  0  0  0  0  0  0  0  0
    2.6509   -6.1045    3.0188 H   0  0  0  0  0  0  0  0  0  0  0  0
    1.9163   -4.0055    0.1537 H   0  0  0  0  0  0  0  0  0  0  0  0
    3.2433   -5.7033   -0.6715 H   0  0  0  0  0  0  0  0  0  0  0  0
    5.8082   -5.4961   -0.9085 H   0  0  0  0  0  0  0  0  0  0  0  0
    4.9180   -4.7142   -2.1468 H   0  0  0  0  0  0  0  0  0  0  0  0
    7.7740   -2.5502   -0.6214 H   0  0  0  0  0  0  0  0  0  0  0  0
    7.5237   -3.7162   -1.9141 H   0  0  0  0  0  0  0  0  0  0  0  0
    7.6959   -4.2717   -0.2671 H   0  0  0  0  0  0  0  0  0  0  0  0
    5.8910   -2.3534   -2.6216 H   0  0  0  0  0  0  0  0  0  0  0  0
    5.4221   -0.6594   -0.5839 H   0  0  0  0  0  0  0  0  0  0  0  0
    5.1108    0.8239   -1.7898 H   0  0  0  0  0  0  0  0  0  0  0  0
    2.6729   -0.8286   -1.5105 H   0  0  0  0  0  0  0  0  0  0  0  0
    2.0833   -1.8764    0.5116 H   0  0  0  0  0  0  0  0  0  0  0  0
    3.9213   -0.2695    0.7618 H   0  0  0  0  0  0  0  0  0  0  0  0
    3.1961   -0.9065    1.9741 H   0  0  0  0  0  0  0  0  0  0  0  0
    5.9988   -1.1341    1.2173 H   0  0  0  0  0  0  0  0  0  0  0  0
    4.7317   -2.2890    3.3512 H   0  0  0  0  0  0  0  0  0  0  0  0
    6.5426   -3.3678    1.3670 H   0  0  0  0  0  0  0  0  0  0  0  0
    4.9193   -6.1504    2.9414 H   0  0  0  0  0  0  0  0  0  0  0  0
    6.8459   -5.7753    2.1106 H   0  0  0  0  0  0  0  0  0  0  0  0
    4.5908   -5.5702    4.9084 H   0  0  0  0  0  0  0  0  0  0  0  0
    6.1971   -3.0537    4.8995 H   0  0  0  0  0  0  0  0  0  0  0  0
    6.7210   -4.6708    5.4418 H   0  0  0  0  0  0  0  0  0  0  0  0
    5.4844   -3.7792    6.2984 H   0  0  0  0  0  0  0  0  0  0  0  0
    3.5190   -2.4617   -4.7225 H   0  0  0  0  0  0  0  0  0  0  0  0
    4.6529   -1.3017   -4.2553 H   0  0  0  0  0  0  0  0  0  0  0  0
    2.9255   -0.9721   -4.0234 H   0  0  0  0  0  0  0  0  0  0  0  0
    1.8787   -3.1126   -3.3801 H   0  0  0  0  0  0  0  0  0  0  0  0
    2.3594   -4.0019   -1.9933 H   0  0  0  0  0  0  0  0  0  0  0  0
    3.2542   -4.2468   -3.4662 H   0  0  0  0  0  0  0  0  0  0  0  0
  1  2  1  0
  1 29  1  0
  1 30  1  0
  1 31  1  0
  2 24  1  0
  2  3  1  0
  2 32  1  1
  3  4  1  0
  3 33  1  0
  3 34  1  0
  4 20  1  0
  4  5  1  6
  4  6  1  0
  5 35  1  0
  5 36  1  0
  5 37  1  0
  6 15  1  0
  6  7  1  0
  6 38  1  6
  7 21  1  0
  7  8  1  0
  7 39  1  6
  8  9  1  0
  8 40  1  0
  8 41  1  0
  9 19  1  0
  9 10  1  1
  9 11  1  0
 10 42  1  0
 10 43  1  0
 10 44  1  0
 11 26  1  0
 11 12  1  0
 11 45  1  6
 12 13  1  0
 12 14  1  0
 12 46  1  1
 13 47  1  0
 14 15  1  0
 14 26  1  0
 14 48  1  6
 15 16  1  0
 15 49  1  1
 16 17  1  0
 16 50  1  0
 16 51  1  0
 17 18  1  0
 17 19  1  0
 17 52  1  6
 18 53  1  0
 19 20  1  0
 19 54  1  1
 20 21  1  6
 20 22  1  0
 22 23  1  0
 22 24  1  0
 22 55  1  6
 23 56  1  0
 24 25  1  0
 24 57  1  1
 25 58  1  0
 25 59  1  0
 25 60  1  0
 26 27  1  0
 26 28  1  0
 27 61  1  0
 27 62  1  0
 27 63  1  0
 28 64  1  0
 28 65  1  0
 28 66  1  0
M  END
>  <i_m_ct_stereo_status>  (197) 
1

>  <s_m_source_file>  (197) 
/var/tmp/pbs.5076255.sched01/tmpzygr1bk5/76dkit4mfj.sdf

>  <i_m_source_file_index>  (197) 
11

>  <i_lp_mmshare_version>  (197) 
48012

>  <i_f3d_flags>  (197) 
0

>  <s_epik_input>  (197) 
W09IXVtDQEhdMVtDQEBIXShbQ0gzXSlbQ0BIXShbQ0gzXSlbQ0gyXVtDQEBdKFtDQF0xMjMpKFtDSDNdKVtDQEBIXTRbQ0BIXShPMylbQ0gyXVtDQEBdNShbQ0gzXSlbQ0BASF02W0NAQEhdKFtPSF0pW0NAQEhdKEM2KFtDSDNdKVtDSDNdKVtDQEBIXTRbQ0gyXVtDQEBIXShbT0hdKVtDQEBIXTI1

>  <s_epik_cmdline>  (197) 
J2VwaWtfcHl0aG9uJywgJy1waHQnLCAnMi4wJywgJy1waCcsICc3LjAnLCAnLXRuJywgJzgnLCAnLW1hJywgJzIwMCcsICctaW1hZScsICc8aW5maWxlLm1hZT4nLCAnLW9tYWUnLCAnPG91dGZpbGUubWFlPic=

>  <r_lp_tautomer_probability>  (197) 
1

>  <r_epik_Ionization_Penalty>  (197) 
2.13495e-06

>  <r_epik_Ionization_Penalty_Charging>  (197) 
0

>  <r_epik_Ionization_Penalty_Neutral>  (197) 
2.13495e-06

>  <r_epik_State_Penalty>  (197) 
-0

>  <r_epik_Charging_Adjusted_Penalty>  (197) 
0

>  <i_epik_Tot_Q>  (197) 
0

>  <i_epik_Tot_abs_Q>  (197) 
0

>  <s_lp_Force_Field>  (197) 
OPLS3e

>  <r_lp_Energy>  (197) 
209.596

>  <b_lp_Chiralities_Consistent>  (197) 
1

>  <s_lp_Variant>  (197) 
65:0-1

>  <s_i_glide_gridfile>  (197) 
pfpi4k_grid

>  <i_i_glide_lignum>  (197) 
11

>  <i_i_glide_rotatable_bonds>  (197) 
3

>  <r_i_docking_score>  (197) 
-2.62593

>  <r_i_glide_ligand_efficiency>  (197) 
-0.0937832

>  <r_i_glide_ligand_efficiency_sa>  (197) 
-0.284781

>  <r_i_glide_ligand_efficiency_ln>  (197) 
-0.606142

>  <r_i_glide_gscore>  (197) 
-2.62593

>  <r_i_glide_lipo>  (197) 
-0.516937

>  <r_i_glide_hbond>  (197) 
-0.206477

>  <r_i_glide_metal>  (197) 
-0

>  <r_i_glide_rewards>  (197) 
-0.746208

>  <r_i_glide_evdw>  (197) 
0.73325

>  <r_i_glide_ecoul>  (197) 
-7.95313

>  <r_i_glide_erotb>  (197) 
0

>  <r_i_glide_esite>  (197) 
0

>  <r_i_glide_emodel>  (197) 
-8.80068

>  <r_i_glide_energy>  (197) 
-7.21988

>  <r_i_glide_einternal>  (197) 
1.65477

>  <r_i_glide_intrahb_reward>  (197) 
-0

>  <i_i_glide_confnum>  (197) 
2

>  <i_i_glide_posenum>  (197) 
31

>  <r_i_glide_eff_state_penalty>  (197) 
0

>  <ligand_id>  (197) 
65

>  <original_smiles>  (197) 
CC1CC2(C)C3C4CC5(C)C6C(O)C(C3CC(O)C5C2(O4)C(O)C1C)C6(C)C

>  <smiles>  (197) 
[H]OC1([H])C([H])([H])C2([H])C3([H])C([H])(O[H])C([H])(C3(C([H])([H])[H])C([H])([H])[H])C3(C([H])([H])[H])C([H])([H])C4([H])OC5(C([H])(O[H])C([H])(C([H])([H])[H])C([H])(C([H])([H])[H])C([H])([H])C5(C([H])([H])[H])C42[H])C13[H]

$$$$
65:0:1
     RDKit          3D

 66 71  0  0  1  0  0  0  0  0999 V2000
    2.2795   -4.5089    5.4520 C   0  0  0  0  0  0  0  0  0  0  0  0
    3.2799   -3.9011    4.4553 C   0  0  2  0  0  0  0  0  0  0  0  0
    2.6026   -3.5661    3.1047 C   0  0  0  0  0  0  0  0  0  0  0  0
    3.0828   -4.3744    1.8696 C   0  0  1  0  0  0  0  0  0  0  0  0
    2.2865   -5.7212    2.0707 C   0  0  0  0  0  0  0  0  0  0  0  0
    2.9065   -3.9277    0.3900 C   0  0  2  0  0  0  0  0  0  0  0  0
    3.8514   -5.0602   -0.2331 C   0  0  1  0  0  0  0  0  0  0  0  0
    5.1242   -4.8082   -1.0139 C   0  0  0  0  0  0  0  0  0  0  0  0
    5.7369   -3.4876   -0.5863 C   0  0  1  0  0  0  0  0  0  0  0  0
    7.2812   -3.5744   -0.7426 C   0  0  0  0  0  0  0  0  0  0  0  0
    5.2240   -2.5335   -1.7687 C   0  0  2  0  0  0  0  0  0  0  0  0
    4.8419   -1.1333   -1.4092 C   0  0  1  0  0  0  0  0  0  0  0  0
    5.0927   -0.1117   -2.3023 O   0  0  0  0  0  0  0  0  0  0  0  0
    3.4026   -1.7138   -1.2916 C   0  0  2  0  0  0  0  0  0  0  0  0
    3.0120   -2.3247    0.1143 C   0  0  2  0  0  0  0  0  0  0  0  0
    3.7170   -1.3917    1.1434 C   0  0  0  0  0  0  0  0  0  0  0  0
    5.1150   -1.9054    1.5821 C   0  0  1  0  0  0  0  0  0  0  0  0
    5.2562   -1.7979    2.9779 O   0  0  0  0  0  0  0  0  0  0  0  0
    5.4724   -3.3200    1.0515 C   0  0  1  0  0  0  0  0  0  0  0  0
    4.6162   -4.5057    1.7880 C   0  0  2  0  0  0  0  0  0  0  0  0
    4.5513   -5.5694    0.8774 O   0  0  0  0  0  0  0  0  0  0  0  0
    5.1779   -5.1712    3.0638 C   0  0  1  0  0  0  0  0  0  0  0  0
    6.5855   -5.2990    3.0118 O   0  0  0  0  0  0  0  0  0  0  0  0
    4.6334   -4.6779    4.4421 C   0  0  1  0  0  0  0  0  0  0  0  0
    5.6803   -4.0251    5.3739 C   0  0  0  0  0  0  0  0  0  0  0  0
    3.8099   -2.5358   -2.5334 C   0  0  0  0  0  0  0  0  0  0  0  0
    3.8285   -1.8885   -3.9644 C   0  0  0  0  0  0  0  0  0  0  0  0
    2.8671   -3.6715   -2.9167 C   0  0  0  0  0  0  0  0  0  0  0  0
    1.9531   -5.5101    5.1587 H   0  0  0  0  0  0  0  0  0  0  0  0
    1.3903   -3.8840    5.5574 H   0  0  0  0  0  0  0  0  0  0  0  0
    2.7266   -4.5845    6.4439 H   0  0  0  0  0  0  0  0  0  0  0  0
    3.5094   -2.9262    4.8861 H   0  0  0  0  0  0  0  0  0  0  0  0
    1.5187   -3.6336    3.1783 H   0  0  0  0  0  0  0  0  0  0  0  0
    2.7344   -2.5122    3.0565 H   0  0  0  0  0  0  0  0  0  0  0  0
    2.4151   -6.4743    1.2884 H   0  0  0  0  0  0  0  0  0  0  0  0
    1.2081   -5.5419    2.1045 H   0  0  0  0  0  0  0  0  0  0  0  0
    2.5590   -6.2177    3.0020 H   0  0  0  0  0  0  0  0  0  0  0  0
    1.8957   -4.1743    0.0720 H   0  0  0  0  0  0  0  0  0  0  0  0
    3.2911   -5.8683   -0.6515 H   0  0  0  0  0  0  0  0  0  0  0  0
    5.8200   -5.6219   -0.7977 H   0  0  0  0  0  0  0  0  0  0  0  0
    4.9812   -4.8742   -2.0915 H   0  0  0  0  0  0  0  0  0  0  0  0
    7.7514   -2.6327   -0.4784 H   0  0  0  0  0  0  0  0  0  0  0  0
    7.5771   -3.8154   -1.7624 H   0  0  0  0  0  0  0  0  0  0  0  0
    7.6972   -4.3522   -0.1010 H   0  0  0  0  0  0  0  0  0  0  0  0
    5.9827   -2.4872   -2.5467 H   0  0  0  0  0  0  0  0  0  0  0  0
    5.3761   -0.7789   -0.5484 H   0  0  0  0  0  0  0  0  0  0  0  0
    5.0124    0.6943   -1.8073 H   0  0  0  0  0  0  0  0  0  0  0  0
    2.6539   -0.9885   -1.5850 H   0  0  0  0  0  0  0  0  0  0  0  0
    1.9711   -2.1041    0.3535 H   0  0  0  0  0  0  0  0  0  0  0  0
    3.8133   -0.3945    0.7273 H   0  0  0  0  0  0  0  0  0  0  0  0
    3.0499   -1.0259    1.9162 H   0  0  0  0  0  0  0  0  0  0  0  0
    5.9026   -1.2166    1.2704 H   0  0  0  0  0  0  0  0  0  0  0  0
    5.4373   -0.8931    3.1914 H   0  0  0  0  0  0  0  0  0  0  0  0
    6.4734   -3.4286    1.4683 H   0  0  0  0  0  0  0  0  0  0  0  0
    4.8524   -6.2139    3.0152 H   0  0  0  0  0  0  0  0  0  0  0  0
    6.9381   -4.4308    2.8858 H   0  0  0  0  0  0  0  0  0  0  0  0
    4.4238   -5.6174    4.9564 H   0  0  0  0  0  0  0  0  0  0  0  0
    6.1054   -3.1089    4.9708 H   0  0  0  0  0  0  0  0  0  0  0  0
    6.5033   -4.7071    5.5793 H   0  0  0  0  0  0  0  0  0  0  0  0
    5.2399   -3.7754    6.3371 H   0  0  0  0  0  0  0  0  0  0  0  0
    3.6843   -2.6201   -4.7606 H   0  0  0  0  0  0  0  0  0  0  0  0
    4.7842   -1.4524   -4.2482 H   0  0  0  0  0  0  0  0  0  0  0  0
    3.0290   -1.1517   -4.0807 H   0  0  0  0  0  0  0  0  0  0  0  0
    1.9878   -3.2924   -3.4721 H   0  0  0  0  0  0  0  0  0  0  0  0
    2.4831   -4.2483   -2.0961 H   0  0  0  0  0  0  0  0  0  0  0  0
    3.3765   -4.3558   -3.5693 H   0  0  0  0  0  0  0  0  0  0  0  0
  1  2  1  0
  1 29  1  0
  1 30  1  0
  1 31  1  0
  2 24  1  0
  2  3  1  0
  2 32  1  1
  3  4  1  0
  3 33  1  0
  3 34  1  0
  4 20  1  0
  4  5  1  6
  4  6  1  0
  5 35  1  0
  5 36  1  0
  5 37  1  0
  6 15  1  0
  6  7  1  0
  6 38  1  6
  7 21  1  0
  7  8  1  0
  7 39  1  6
  8  9  1  0
  8 40  1  0
  8 41  1  0
  9 19  1  0
  9 10  1  1
  9 11  1  0
 10 42  1  0
 10 43  1  0
 10 44  1  0
 11 26  1  0
 11 12  1  0
 11 45  1  6
 12 13  1  0
 12 14  1  0
 12 46  1  1
 13 47  1  0
 14 15  1  0
 14 26  1  0
 14 48  1  6
 15 16  1  0
 15 49  1  1
 16 17  1  0
 16 50  1  0
 16 51  1  0
 17 18  1  0
 17 19  1  0
 17 52  1  6
 18 53  1  0
 19 20  1  0
 19 54  1  1
 20 21  1  6
 20 22  1  0
 22 23  1  0
 22 24  1  0
 22 55  1  6
 23 56  1  0
 24 25  1  0
 24 57  1  1
 25 58  1  0
 25 59  1  0
 25 60  1  0
 26 27  1  0
 26 28  1  0
 27 61  1  0
 27 62  1  0
 27 63  1  0
 28 64  1  0
 28 65  1  0
 28 66  1  0
M  END
>  <i_m_ct_stereo_status>  (198) 
1

>  <s_m_source_file>  (198) 
/var/tmp/pbs.5076255.sched01/tmpzygr1bk5/76dkit4mfj.sdf

>  <i_m_source_file_index>  (198) 
11

>  <i_lp_mmshare_version>  (198) 
48012

>  <i_f3d_flags>  (198) 
0

>  <s_epik_input>  (198) 
W09IXVtDQEhdMVtDQEBIXShbQ0gzXSlbQ0BIXShbQ0gzXSlbQ0gyXVtDQEBdKFtDQF0xMjMpKFtDSDNdKVtDQEBIXTRbQ0BIXShPMylbQ0gyXVtDQEBdNShbQ0gzXSlbQ0BASF02W0NAQEhdKFtPSF0pW0NAQEhdKEM2KFtDSDNdKVtDSDNdKVtDQEBIXTRbQ0gyXVtDQEBIXShbT0hdKVtDQEBIXTI1

>  <s_epik_cmdline>  (198) 
J2VwaWtfcHl0aG9uJywgJy1waHQnLCAnMi4wJywgJy1waCcsICc3LjAnLCAnLXRuJywgJzgnLCAnLW1hJywgJzIwMCcsICctaW1hZScsICc8aW5maWxlLm1hZT4nLCAnLW9tYWUnLCAnPG91dGZpbGUubWFlPic=

>  <r_lp_tautomer_probability>  (198) 
1

>  <r_epik_Ionization_Penalty>  (198) 
2.13495e-06

>  <r_epik_Ionization_Penalty_Charging>  (198) 
0

>  <r_epik_Ionization_Penalty_Neutral>  (198) 
2.13495e-06

>  <r_epik_State_Penalty>  (198) 
-0

>  <r_epik_Charging_Adjusted_Penalty>  (198) 
0

>  <i_epik_Tot_Q>  (198) 
0

>  <i_epik_Tot_abs_Q>  (198) 
0

>  <s_lp_Force_Field>  (198) 
OPLS3e

>  <r_lp_Energy>  (198) 
209.596

>  <b_lp_Chiralities_Consistent>  (198) 
1

>  <s_lp_Variant>  (198) 
65:0-1

>  <s_i_glide_gridfile>  (198) 
pfpi4k_grid

>  <i_i_glide_lignum>  (198) 
11

>  <i_i_glide_rotatable_bonds>  (198) 
3

>  <r_i_docking_score>  (198) 
-2.24993

>  <r_i_glide_ligand_efficiency>  (198) 
-0.0803547

>  <r_i_glide_ligand_efficiency_sa>  (198) 
-0.244004

>  <r_i_glide_ligand_efficiency_ln>  (198) 
-0.51935

>  <r_i_glide_gscore>  (198) 
-2.24993

>  <r_i_glide_lipo>  (198) 
-0.424093

>  <r_i_glide_hbond>  (198) 
-0.32

>  <r_i_glide_metal>  (198) 
-0

>  <r_i_glide_rewards>  (198) 
-0.746208

>  <r_i_glide_evdw>  (198) 
3.12787

>  <r_i_glide_ecoul>  (198) 
-6.10682

>  <r_i_glide_erotb>  (198) 
0

>  <r_i_glide_esite>  (198) 
0

>  <r_i_glide_emodel>  (198) 
-3.2466

>  <r_i_glide_energy>  (198) 
-2.97896

>  <r_i_glide_einternal>  (198) 
2.19105

>  <r_i_glide_intrahb_reward>  (198) 
-0

>  <i_i_glide_confnum>  (198) 
2

>  <i_i_glide_posenum>  (198) 
5

>  <r_i_glide_eff_state_penalty>  (198) 
0

>  <ligand_id>  (198) 
65

>  <original_smiles>  (198) 
CC1CC2(C)C3C4CC5(C)C6C(O)C(C3CC(O)C5C2(O4)C(O)C1C)C6(C)C

>  <smiles>  (198) 
[H]OC1([H])C([H])([H])C2([H])C3([H])C([H])(O[H])C([H])(C3(C([H])([H])[H])C([H])([H])[H])C3(C([H])([H])[H])C([H])([H])C4([H])OC5(C([H])(O[H])C([H])(C([H])([H])[H])C([H])(C([H])([H])[H])C([H])([H])C5(C([H])([H])[H])C42[H])C13[H]

$$$$
66:0:0
     RDKit          3D

 89 95  0  0  1  0  0  0  0  0999 V2000
   -1.2921   -9.0148    2.4364 C   0  0  0  0  0  0  0  0  0  0  0  0
   -0.9146   -8.5643    3.8508 C   0  0  2  0  0  0  0  0  0  0  0  0
   -0.6930   -7.0489    3.9155 C   0  0  0  0  0  0  0  0  0  0  0  0
   -0.2972   -6.6255    5.2155 O   0  0  0  0  0  0  0  0  0  0  0  0
    0.9227   -7.2074    5.6773 C   0  0  1  0  0  0  0  0  0  0  0  0
    1.4656   -6.4922    6.9588 C   0  0  1  0  0  0  0  0  0  0  0  0
    0.4515   -6.5417    8.1251 C   0  0  0  0  0  0  0  0  0  0  0  0
    2.8494   -7.1232    7.3670 C   0  0  0  0  0  0  0  0  0  0  0  0
    3.9055   -6.0004    7.5292 C   0  0  0  0  0  0  0  0  0  0  0  0
    3.0138   -4.7865    7.6917 C   0  0  1  0  0  0  0  0  0  0  0  0
    3.4099   -3.3325    7.4101 C   0  0  0  0  0  0  0  0  0  0  0  0
    2.0171   -2.6270    7.3059 C   0  0  2  0  0  0  0  0  0  0  0  0
    1.5939   -2.4034    8.7906 C   0  0  0  0  0  0  0  0  0  0  0  0
    1.1590   -3.7001    6.5639 C   0  0  2  0  0  0  0  0  0  0  0  0
   -0.3794   -3.5776    6.5817 C   0  0  1  0  0  0  0  0  0  0  0  0
   -0.9803   -3.4782    7.8526 O   0  0  0  0  0  0  0  0  0  0  0  0
   -0.9093   -2.4886    5.6186 C   0  0  0  0  0  0  0  0  0  0  0  0
   -0.5178   -0.9919    5.7688 C   0  0  2  0  0  0  0  0  0  0  0  0
   -1.7752   -0.3802    6.0478 O   0  0  0  0  0  0  0  0  0  0  0  0
    0.2301   -0.3399    4.5644 C   0  0  2  0  0  0  0  0  0  0  0  0
    1.4287   -1.1021    3.9700 C   0  0  0  0  0  0  0  0  0  0  0  0
    2.5279   -1.3633    5.0372 C   0  0  0  0  0  0  0  0  0  0  0  0
    2.0377   -1.2535    6.5273 C   0  0  1  0  0  0  0  0  0  0  0  0
    0.7079   -0.4208    6.5671 C   0  0  2  0  0  0  0  0  0  0  0  0
    0.2915   -0.0261    7.8835 O   0  0  0  0  0  0  0  0  0  0  0  0
    0.8919    1.1213    8.4294 C   0  0  2  0  0  0  0  0  0  0  0  0
    1.0464    0.9660    9.9597 C   0  0  0  0  0  0  0  0  0  0  0  0
   -0.3276    0.9218   10.6315 C   0  0  1  0  0  0  0  0  0  0  0  0
   -0.1844    0.8964   12.0341 O   0  0  0  0  0  0  0  0  0  0  0  0
   -1.1333    2.1626   10.2273 C   0  0  0  0  0  0  0  0  0  0  0  0
   -1.1792    2.2752    8.6965 C   0  0  1  0  0  0  0  0  0  0  0  0
   -1.8966    3.5534    8.2479 C   0  0  0  0  0  0  0  0  0  0  0  0
    0.1458    2.2837    8.1671 O   0  0  0  0  0  0  0  0  0  0  0  0
    0.6197    0.7618    5.5601 C   0  0  1  0  0  0  0  0  0  0  0  0
    1.7819    1.5192    5.2862 O   0  0  0  0  0  0  0  0  0  0  0  0
    1.9372   -5.0438    6.6730 C   0  0  2  0  0  0  0  0  0  0  0  0
    0.7611   -8.7578    5.7271 C   0  0  1  0  0  0  0  0  0  0  0  0
   -0.1722   -9.1804    6.7062 O   0  0  0  0  0  0  0  0  0  0  0  0
    0.3361   -9.2955    4.3528 C   0  0  0  0  0  0  0  0  0  0  0  0
   -0.5136   -8.7576    1.7198 H   0  0  0  0  0  0  0  0  0  0  0  0
   -2.2121   -8.5454    2.0991 H   0  0  0  0  0  0  0  0  0  0  0  0
   -1.4354  -10.0921    2.3780 H   0  0  0  0  0  0  0  0  0  0  0  0
   -1.7420   -8.8115    4.5178 H   0  0  0  0  0  0  0  0  0  0  0  0
    0.0481   -6.7311    3.1817 H   0  0  0  0  0  0  0  0  0  0  0  0
   -1.6292   -6.5494    3.6710 H   0  0  0  0  0  0  0  0  0  0  0  0
    1.6594   -7.0181    4.8953 H   0  0  0  0  0  0  0  0  0  0  0  0
    0.6941   -5.8439    8.9239 H   0  0  0  0  0  0  0  0  0  0  0  0
    0.4132   -7.5319    8.5758 H   0  0  0  0  0  0  0  0  0  0  0  0
   -0.5559   -6.3086    7.7829 H   0  0  0  0  0  0  0  0  0  0  0  0
    2.7525   -7.7006    8.2851 H   0  0  0  0  0  0  0  0  0  0  0  0
    3.2303   -7.8122    6.6159 H   0  0  0  0  0  0  0  0  0  0  0  0
    4.5682   -6.1686    8.3813 H   0  0  0  0  0  0  0  0  0  0  0  0
    4.5247   -5.9188    6.6321 H   0  0  0  0  0  0  0  0  0  0  0  0
    2.6348   -4.8648    8.7065 H   0  0  0  0  0  0  0  0  0  0  0  0
    4.0378   -2.9201    8.2009 H   0  0  0  0  0  0  0  0  0  0  0  0
    3.9794   -3.2784    6.4835 H   0  0  0  0  0  0  0  0  0  0  0  0
    0.6095   -1.9787    8.9289 H   0  0  0  0  0  0  0  0  0  0  0  0
    2.3105   -1.7464    9.2766 H   0  0  0  0  0  0  0  0  0  0  0  0
    1.5514   -3.3049    9.3919 H   0  0  0  0  0  0  0  0  0  0  0  0
    1.3228   -3.5216    5.5052 H   0  0  0  0  0  0  0  0  0  0  0  0
   -0.7731   -4.5039    6.1750 H   0  0  0  0  0  0  0  0  0  0  0  0
   -0.7198   -4.2440    8.3496 H   0  0  0  0  0  0  0  0  0  0  0  0
   -0.6244   -2.8176    4.6163 H   0  0  0  0  0  0  0  0  0  0  0  0
   -1.9956   -2.5943    5.6033 H   0  0  0  0  0  0  0  0  0  0  0  0
   -1.7393    0.4846    5.6618 H   0  0  0  0  0  0  0  0  0  0  0  0
   -0.4677    0.0253    3.8073 H   0  0  0  0  0  0  0  0  0  0  0  0
    1.1027   -2.0421    3.5250 H   0  0  0  0  0  0  0  0  0  0  0  0
    1.8626   -0.5448    3.1335 H   0  0  0  0  0  0  0  0  0  0  0  0
    3.0211   -2.3051    4.8109 H   0  0  0  0  0  0  0  0  0  0  0  0
    3.3038   -0.6094    4.8967 H   0  0  0  0  0  0  0  0  0  0  0  0
    2.7985   -0.6629    7.0379 H   0  0  0  0  0  0  0  0  0  0  0  0
    1.8830    1.2698    7.9958 H   0  0  0  0  0  0  0  0  0  0  0  0
    1.6131    0.0695   10.1973 H   0  0  0  0  0  0  0  0  0  0  0  0
    1.6203    1.8132   10.3228 H   0  0  0  0  0  0  0  0  0  0  0  0
   -0.8546    0.0132   10.3263 H   0  0  0  0  0  0  0  0  0  0  0  0
   -1.0491    0.8317   12.4307 H   0  0  0  0  0  0  0  0  0  0  0  0
   -2.1454    2.1050   10.6355 H   0  0  0  0  0  0  0  0  0  0  0  0
   -0.6751    3.0559   10.6557 H   0  0  0  0  0  0  0  0  0  0  0  0
   -1.7169    1.4185    8.2899 H   0  0  0  0  0  0  0  0  0  0  0  0
   -2.8925    3.6068    8.6881 H   0  0  0  0  0  0  0  0  0  0  0  0
   -2.0112    3.5894    7.1636 H   0  0  0  0  0  0  0  0  0  0  0  0
   -1.3500    4.4464    8.5575 H   0  0  0  0  0  0  0  0  0  0  0  0
   -0.1972    1.4568    5.7439 H   0  0  0  0  0  0  0  0  0  0  0  0
    1.6503    1.9529    4.4553 H   0  0  0  0  0  0  0  0  0  0  0  0
    2.4700   -5.1117    5.7198 H   0  0  0  0  0  0  0  0  0  0  0  0
    1.7057   -9.2414    5.9772 H   0  0  0  0  0  0  0  0  0  0  0  0
   -0.4209  -10.0687    6.4921 H   0  0  0  0  0  0  0  0  0  0  0  0
    0.1707  -10.3737    4.3988 H   0  0  0  0  0  0  0  0  0  0  0  0
    1.1560   -9.1448    3.6497 H   0  0  0  0  0  0  0  0  0  0  0  0
  1  2  1  0
  1 40  1  0
  1 41  1  0
  1 42  1  0
  2 39  1  0
  2  3  1  0
  2 43  1  1
  3  4  1  0
  3 44  1  0
  3 45  1  0
  4  5  1  0
  5  6  1  0
  5 37  1  0
  5 46  1  6
  6 36  1  0
  6  7  1  1
  6  8  1  0
  7 47  1  0
  7 48  1  0
  7 49  1  0
  8  9  1  0
  8 50  1  0
  8 51  1  0
  9 10  1  0
  9 52  1  0
  9 53  1  0
 10 36  1  0
 10 11  1  0
 10 54  1  1
 11 12  1  0
 11 55  1  0
 11 56  1  0
 12 23  1  0
 12 13  1  1
 12 14  1  0
 13 57  1  0
 13 58  1  0
 13 59  1  0
 14 15  1  0
 14 36  1  0
 14 60  1  6
 15 16  1  0
 15 17  1  0
 15 61  1  6
 16 62  1  0
 17 18  1  0
 17 63  1  0
 17 64  1  0
 18 24  1  0
 18 19  1  1
 18 20  1  0
 19 65  1  0
 20 34  1  0
 20 21  1  0
 20 66  1  6
 21 22  1  0
 21 67  1  0
 21 68  1  0
 22 23  1  0
 22 69  1  0
 22 70  1  0
 23 24  1  0
 23 71  1  1
 24 25  1  1
 24 34  1  0
 25 26  1  0
 26 33  1  0
 26 27  1  0
 26 72  1  6
 27 28  1  0
 27 73  1  0
 27 74  1  0
 28 29  1  0
 28 30  1  0
 28 75  1  6
 29 76  1  0
 30 31  1  0
 30 77  1  0
 30 78  1  0
 31 32  1  0
 31 33  1  0
 31 79  1  6
 32 80  1  0
 32 81  1  0
 32 82  1  0
 34 35  1  0
 34 83  1  1
 35 84  1  0
 36 85  1  6
 37 38  1  0
 37 39  1  0
 37 86  1  1
 38 87  1  0
 39 88  1  0
 39 89  1  0
M  END
>  <i_m_ct_stereo_status>  (199) 
1

>  <s_m_source_file>  (199) 
/var/tmp/pbs.5076255.sched01/tmpzygr1bk5/76dkit4mfj.sdf

>  <i_m_source_file_index>  (199) 
12

>  <i_lp_mmshare_version>  (199) 
48012

>  <i_f3d_flags>  (199) 
0

>  <s_epik_input>  (199) 
W0NIM11bQ0BASF0xW0NIMl1PW0NASF0oW0NAQEhdKFtPSF0pW0NIMl0xKVtDQEBdMihbQ0gzXSlbQ0gyXVtDSDJdW0NAQEhdKFtDSDJdMylbQ0BASF0yW0NASF0oW0NAQF0zNFtDSDNdKVtDQEBIXShbT0hdKVtDSDJdW0NAXTUoW09IXSlbQ0BASF02W0NIMl1bQ0gyXVtDQEhdNFtDQF01KFtDQEhdNltPSF0pT1tDQEBIXTdbQ0gyXVtDQEBIXShbT0hdKVtDSDJdW0NASF0oTzcpW0NIM10=

>  <s_epik_cmdline>  (199) 
J2VwaWtfcHl0aG9uJywgJy1waHQnLCAnMi4wJywgJy1waCcsICc3LjAnLCAnLXRuJywgJzgnLCAnLW1hJywgJzIwMCcsICctaW1hZScsICc8aW5maWxlLm1hZT4nLCAnLW9tYWUnLCAnPG91dGZpbGUubWFlPic=

>  <r_lp_tautomer_probability>  (199) 
1

>  <r_epik_Ionization_Penalty>  (199) 
1.53744e-06

>  <r_epik_Ionization_Penalty_Charging>  (199) 
0

>  <r_epik_Ionization_Penalty_Neutral>  (199) 
1.53744e-06

>  <r_epik_State_Penalty>  (199) 
-0

>  <r_epik_Charging_Adjusted_Penalty>  (199) 
0

>  <i_epik_Tot_Q>  (199) 
0

>  <i_epik_Tot_abs_Q>  (199) 
0

>  <s_epik_Chemistry_Notes>  (199) 
This compound contains an acetal/aminal-like group ( X-CH(R)-Y where X, Y are N, S, or O) that may be acid/base labile, releasing an aldehyde.

>  <s_lp_Force_Field>  (199) 
OPLS3e

>  <r_lp_Energy>  (199) 
98.4356

>  <b_lp_Chiralities_Consistent>  (199) 
1

>  <s_lp_Variant>  (199) 
66:0-1

>  <s_i_glide_gridfile>  (199) 
pfpi4k_grid

>  <i_i_glide_lignum>  (199) 
12

>  <i_i_glide_rotatable_bonds>  (199) 
8

>  <r_i_docking_score>  (199) 
-3.2723

>  <r_i_glide_ligand_efficiency>  (199) 
-0.0839052

>  <r_i_glide_ligand_efficiency_sa>  (199) 
-0.28454

>  <r_i_glide_ligand_efficiency_ln>  (199) 
-0.701674

>  <r_i_glide_gscore>  (199) 
-3.2723

>  <r_i_glide_lipo>  (199) 
-0.172356

>  <r_i_glide_hbond>  (199) 
-0.220407

>  <r_i_glide_metal>  (199) 
-0

>  <r_i_glide_rewards>  (199) 
0

>  <r_i_glide_evdw>  (199) 
-28.5209

>  <r_i_glide_ecoul>  (199) 
-10.5737

>  <r_i_glide_erotb>  (199) 
0.135741

>  <r_i_glide_esite>  (199) 
-0.00317124

>  <r_i_glide_emodel>  (199) 
-46.427

>  <r_i_glide_energy>  (199) 
-39.0947

>  <r_i_glide_einternal>  (199) 
4.07125

>  <r_i_glide_intrahb_reward>  (199) 
-0

>  <i_i_glide_confnum>  (199) 
4

>  <i_i_glide_posenum>  (199) 
40

>  <r_i_glide_eff_state_penalty>  (199) 
0

>  <ligand_id>  (199) 
66

>  <original_smiles>  (199) 
CC1COC(C2(C)CCC3CC4(C)C(C(O)CC5(O)C6CCC4C5(OC4CC(O)CC(C)O4)C6O)C32)C(O)C1

>  <smiles>  (199) 
[H]OC1([H])C([H])([H])C([H])(OC23C([H])(O[H])C4([H])C([H])([H])C([H])([H])C2([H])C2(C([H])([H])[H])C([H])([H])C5([H])C([H])([H])C([H])([H])C(C([H])([H])[H])(C6([H])OC([H])([H])C([H])(C([H])([H])[H])C([H])([H])C6([H])O[H])C5([H])C2([H])C([H])(O[H])C([H])([H])C43O[H])OC([H])(C([H])([H])[H])C1([H])[H]

$$$$
66:0:1
     RDKit          3D

 89 95  0  0  1  0  0  0  0  0999 V2000
    2.8275   -5.6222    1.2067 C   0  0  0  0  0  0  0  0  0  0  0  0
    3.2162   -4.8936    2.5003 C   0  0  2  0  0  0  0  0  0  0  0  0
    2.2807   -3.6983    2.7836 C   0  0  0  0  0  0  0  0  0  0  0  0
    2.6791   -3.0049    3.9630 O   0  0  0  0  0  0  0  0  0  0  0  0
    3.9800   -2.4300    3.8965 C   0  0  1  0  0  0  0  0  0  0  0  0
    4.2255   -1.4137    5.0634 C   0  0  1  0  0  0  0  0  0  0  0  0
    4.0357   -2.0553    6.4536 C   0  0  0  0  0  0  0  0  0  0  0  0
    5.6544   -0.7881    4.9347 C   0  0  0  0  0  0  0  0  0  0  0  0
    5.6062    0.7419    4.9631 C   0  0  0  0  0  0  0  0  0  0  0  0
    4.2558    0.9516    5.5844 C   0  0  1  0  0  0  0  0  0  0  0  0
    3.4028    2.2068    5.4360 C   0  0  0  0  0  0  0  0  0  0  0  0
    2.0015    1.6801    5.8772 C   0  0  2  0  0  0  0  0  0  0  0  0
    2.0768    1.6811    7.4388 C   0  0  0  0  0  0  0  0  0  0  0  0
    1.9610    0.2449    5.2605 C   0  0  2  0  0  0  0  0  0  0  0  0
    0.9261   -0.7951    5.7536 C   0  0  1  0  0  0  0  0  0  0  0  0
    0.8745   -1.0272    7.1450 O   0  0  0  0  0  0  0  0  0  0  0  0
   -0.4742   -0.5303    5.1824 C   0  0  0  0  0  0  0  0  0  0  0  0
   -1.1964    0.8138    5.4890 C   0  0  2  0  0  0  0  0  0  0  0  0
   -2.2746    0.3586    6.2821 O   0  0  0  0  0  0  0  0  0  0  0  0
   -1.6216    1.6708    4.2570 C   0  0  2  0  0  0  0  0  0  0  0  0
   -0.5399    1.9648    3.1978 C   0  0  0  0  0  0  0  0  0  0  0  0
    0.6942    2.6882    3.8106 C   0  0  0  0  0  0  0  0  0  0  0  0
    0.8106    2.5790    5.3788 C   0  0  1  0  0  0  0  0  0  0  0  0
   -0.5816    2.1828    5.9637 C   0  0  2  0  0  0  0  0  0  0  0  0
   -0.6881    2.3115    7.3868 O   0  0  0  0  0  0  0  0  0  0  0  0
   -0.9174    3.5868    7.9158 C   0  0  2  0  0  0  0  0  0  0  0  0
   -0.2155    3.7132    9.2862 C   0  0  0  0  0  0  0  0  0  0  0  0
   -0.8648    2.7791   10.3159 C   0  0  1  0  0  0  0  0  0  0  0  0
   -0.3152    2.9989   11.5944 O   0  0  0  0  0  0  0  0  0  0  0  0
   -2.3546    3.0829   10.3719 C   0  0  0  0  0  0  0  0  0  0  0  0
   -2.9562    2.9796    8.9677 C   0  0  1  0  0  0  0  0  0  0  0  0
   -4.4329    3.3348    9.0157 C   0  0  0  0  0  0  0  0  0  0  0  0
   -2.2816    3.8627    8.0815 O   0  0  0  0  0  0  0  0  0  0  0  0
   -1.8175    2.8004    5.2551 C   0  0  1  0  0  0  0  0  0  0  0  0
   -1.7430    4.1119    4.7454 O   0  0  0  0  0  0  0  0  0  0  0  0
    3.4233   -0.1045    4.9001 C   0  0  2  0  0  0  0  0  0  0  0  0
    5.0087   -3.5786    3.6962 C   0  0  1  0  0  0  0  0  0  0  0  0
    5.0825   -4.4317    4.8199 O   0  0  0  0  0  0  0  0  0  0  0  0
    4.6698   -4.4088    2.4520 C   0  0  0  0  0  0  0  0  0  0  0  0
    2.8742   -4.9617    0.3428 H   0  0  0  0  0  0  0  0  0  0  0  0
    1.8167   -6.0194    1.2632 H   0  0  0  0  0  0  0  0  0  0  0  0
    3.4894   -6.4636    1.0020 H   0  0  0  0  0  0  0  0  0  0  0  0
    3.1212   -5.6019    3.3253 H   0  0  0  0  0  0  0  0  0  0  0  0
    2.2578   -3.0101    1.9410 H   0  0  0  0  0  0  0  0  0  0  0  0
    1.2624   -4.0594    2.9378 H   0  0  0  0  0  0  0  0  0  0  0  0
    4.0251   -1.8463    2.9728 H   0  0  0  0  0  0  0  0  0  0  0  0
    3.9723   -1.3202    7.2553 H   0  0  0  0  0  0  0  0  0  0  0  0
    4.8670   -2.7134    6.7046 H   0  0  0  0  0  0  0  0  0  0  0  0
    3.1301   -2.6605    6.4872 H   0  0  0  0  0  0  0  0  0  0  0  0
    6.3131   -1.1643    5.7163 H   0  0  0  0  0  0  0  0  0  0  0  0
    6.0856   -1.0178    3.9623 H   0  0  0  0  0  0  0  0  0  0  0  0
    6.4333    1.1896    5.5165 H   0  0  0  0  0  0  0  0  0  0  0  0
    5.6310    1.1000    3.9372 H   0  0  0  0  0  0  0  0  0  0  0  0
    4.4096    0.7342    6.6385 H   0  0  0  0  0  0  0  0  0  0  0  0
    3.7765    3.0269    6.0533 H   0  0  0  0  0  0  0  0  0  0  0  0
    3.4221    2.5465    4.4007 H   0  0  0  0  0  0  0  0  0  0  0  0
    1.2082    1.2827    7.9389 H   0  0  0  0  0  0  0  0  0  0  0  0
    2.2357    2.7005    7.7826 H   0  0  0  0  0  0  0  0  0  0  0  0
    2.8769    1.0903    7.8641 H   0  0  0  0  0  0  0  0  0  0  0  0
    1.5847    0.3774    4.2469 H   0  0  0  0  0  0  0  0  0  0  0  0
    1.2114   -1.7550    5.3315 H   0  0  0  0  0  0  0  0  0  0  0  0
    1.7516   -1.1966    7.4455 H   0  0  0  0  0  0  0  0  0  0  0  0
   -0.4054   -0.6546    4.0999 H   0  0  0  0  0  0  0  0  0  0  0  0
   -1.1025   -1.3800    5.4530 H   0  0  0  0  0  0  0  0  0  0  0  0
   -3.0297    0.5217    5.7450 H   0  0  0  0  0  0  0  0  0  0  0  0
   -2.5810    1.3642    3.8373 H   0  0  0  0  0  0  0  0  0  0  0  0
   -0.2165    1.0375    2.7180 H   0  0  0  0  0  0  0  0  0  0  0  0
   -0.9375    2.5627    2.3758 H   0  0  0  0  0  0  0  0  0  0  0  0
    1.5911    2.3532    3.2856 H   0  0  0  0  0  0  0  0  0  0  0  0
    0.6254    3.7461    3.5566 H   0  0  0  0  0  0  0  0  0  0  0  0
    1.0463    3.5794    5.7320 H   0  0  0  0  0  0  0  0  0  0  0  0
   -0.5186    4.3485    7.2434 H   0  0  0  0  0  0  0  0  0  0  0  0
    0.8534    3.4958    9.1965 H   0  0  0  0  0  0  0  0  0  0  0  0
   -0.3061    4.7524    9.6087 H   0  0  0  0  0  0  0  0  0  0  0  0
   -0.7089    1.7356   10.0359 H   0  0  0  0  0  0  0  0  0  0  0  0
   -0.8551    2.5541   12.2317 H   0  0  0  0  0  0  0  0  0  0  0  0
   -2.8570    2.3621   11.0107 H   0  0  0  0  0  0  0  0  0  0  0  0
   -2.5252    4.0731   10.7984 H   0  0  0  0  0  0  0  0  0  0  0  0
   -2.8462    1.9543    8.6140 H   0  0  0  0  0  0  0  0  0  0  0  0
   -4.9410    2.7847    9.7969 H   0  0  0  0  0  0  0  0  0  0  0  0
   -4.9253    3.0874    8.0816 H   0  0  0  0  0  0  0  0  0  0  0  0
   -4.5645    4.3945    9.2291 H   0  0  0  0  0  0  0  0  0  0  0  0
   -2.7556    2.7058    5.8145 H   0  0  0  0  0  0  0  0  0  0  0  0
   -0.9861    4.1184    4.1777 H   0  0  0  0  0  0  0  0  0  0  0  0
    3.4938    0.1347    3.8359 H   0  0  0  0  0  0  0  0  0  0  0  0
    5.9959   -3.1612    3.5266 H   0  0  0  0  0  0  0  0  0  0  0  0
    4.2372   -4.8304    4.9362 H   0  0  0  0  0  0  0  0  0  0  0  0
    5.3619   -5.2528    2.3513 H   0  0  0  0  0  0  0  0  0  0  0  0
    4.8213   -3.7838    1.5707 H   0  0  0  0  0  0  0  0  0  0  0  0
  1  2  1  0
  1 40  1  0
  1 41  1  0
  1 42  1  0
  2 39  1  0
  2  3  1  0
  2 43  1  1
  3  4  1  0
  3 44  1  0
  3 45  1  0
  4  5  1  0
  5  6  1  0
  5 37  1  0
  5 46  1  6
  6 36  1  0
  6  7  1  1
  6  8  1  0
  7 47  1  0
  7 48  1  0
  7 49  1  0
  8  9  1  0
  8 50  1  0
  8 51  1  0
  9 10  1  0
  9 52  1  0
  9 53  1  0
 10 36  1  0
 10 11  1  0
 10 54  1  1
 11 12  1  0
 11 55  1  0
 11 56  1  0
 12 23  1  0
 12 13  1  1
 12 14  1  0
 13 57  1  0
 13 58  1  0
 13 59  1  0
 14 15  1  0
 14 36  1  0
 14 60  1  6
 15 16  1  0
 15 17  1  0
 15 61  1  6
 16 62  1  0
 17 18  1  0
 17 63  1  0
 17 64  1  0
 18 24  1  0
 18 19  1  1
 18 20  1  0
 19 65  1  0
 20 34  1  0
 20 21  1  0
 20 66  1  6
 21 22  1  0
 21 67  1  0
 21 68  1  0
 22 23  1  0
 22 69  1  0
 22 70  1  0
 23 24  1  0
 23 71  1  1
 24 25  1  1
 24 34  1  0
 25 26  1  0
 26 33  1  0
 26 27  1  0
 26 72  1  6
 27 28  1  0
 27 73  1  0
 27 74  1  0
 28 29  1  0
 28 30  1  0
 28 75  1  6
 29 76  1  0
 30 31  1  0
 30 77  1  0
 30 78  1  0
 31 32  1  0
 31 33  1  0
 31 79  1  6
 32 80  1  0
 32 81  1  0
 32 82  1  0
 34 35  1  0
 34 83  1  1
 35 84  1  0
 36 85  1  6
 37 38  1  0
 37 39  1  0
 37 86  1  6
 38 87  1  0
 39 88  1  0
 39 89  1  0
M  END
>  <i_m_ct_stereo_status>  (200) 
1

>  <s_m_source_file>  (200) 
/var/tmp/pbs.5076255.sched01/tmpzygr1bk5/76dkit4mfj.sdf

>  <i_m_source_file_index>  (200) 
12

>  <i_lp_mmshare_version>  (200) 
48012

>  <i_f3d_flags>  (200) 
0

>  <s_epik_input>  (200) 
W0NIM11bQ0BASF0xW0NIMl1PW0NASF0oW0NAQEhdKFtPSF0pW0NIMl0xKVtDQEBdMihbQ0gzXSlbQ0gyXVtDSDJdW0NAQEhdKFtDSDJdMylbQ0BASF0yW0NASF0oW0NAQF0zNFtDSDNdKVtDQEBIXShbT0hdKVtDSDJdW0NAXTUoW09IXSlbQ0BASF02W0NIMl1bQ0gyXVtDQEhdNFtDQF01KFtDQEhdNltPSF0pT1tDQEBIXTdbQ0gyXVtDQEBIXShbT0hdKVtDSDJdW0NASF0oTzcpW0NIM10=

>  <s_epik_cmdline>  (200) 
J2VwaWtfcHl0aG9uJywgJy1waHQnLCAnMi4wJywgJy1waCcsICc3LjAnLCAnLXRuJywgJzgnLCAnLW1hJywgJzIwMCcsICctaW1hZScsICc8aW5maWxlLm1hZT4nLCAnLW9tYWUnLCAnPG91dGZpbGUubWFlPic=

>  <r_lp_tautomer_probability>  (200) 
1

>  <r_epik_Ionization_Penalty>  (200) 
1.53744e-06

>  <r_epik_Ionization_Penalty_Charging>  (200) 
0

>  <r_epik_Ionization_Penalty_Neutral>  (200) 
1.53744e-06

>  <r_epik_State_Penalty>  (200) 
-0

>  <r_epik_Charging_Adjusted_Penalty>  (200) 
0

>  <i_epik_Tot_Q>  (200) 
0

>  <i_epik_Tot_abs_Q>  (200) 
0

>  <s_epik_Chemistry_Notes>  (200) 
This compound contains an acetal/aminal-like group ( X-CH(R)-Y where X, Y are N, S, or O) that may be acid/base labile, releasing an aldehyde.

>  <s_lp_Force_Field>  (200) 
OPLS3e

>  <r_lp_Energy>  (200) 
98.4356

>  <b_lp_Chiralities_Consistent>  (200) 
1

>  <s_lp_Variant>  (200) 
66:0-1

>  <s_i_glide_gridfile>  (200) 
pfpi4k_grid

>  <i_i_glide_lignum>  (200) 
12

>  <i_i_glide_rotatable_bonds>  (200) 
8

>  <r_i_docking_score>  (200) 
-2.58972

>  <r_i_glide_ligand_efficiency>  (200) 
-0.0664031

>  <r_i_glide_ligand_efficiency_sa>  (200) 
-0.225187

>  <r_i_glide_ligand_efficiency_ln>  (200) 
-0.55531

>  <r_i_glide_gscore>  (200) 
-2.58972

>  <r_i_glide_lipo>  (200) 
-0.227233

>  <r_i_glide_hbond>  (200) 
0

>  <r_i_glide_metal>  (200) 
-0

>  <r_i_glide_rewards>  (200) 
-0.000463244

>  <r_i_glide_evdw>  (200) 
-21.106

>  <r_i_glide_ecoul>  (200) 
-9.61644

>  <r_i_glide_erotb>  (200) 
0.135741

>  <r_i_glide_esite>  (200) 
0

>  <r_i_glide_emodel>  (200) 
-36.1143

>  <r_i_glide_energy>  (200) 
-30.7224

>  <r_i_glide_einternal>  (200) 
3.06132

>  <r_i_glide_intrahb_reward>  (200) 
-0

>  <i_i_glide_confnum>  (200) 
1

>  <i_i_glide_posenum>  (200) 
10

>  <r_i_glide_eff_state_penalty>  (200) 
0

>  <ligand_id>  (200) 
66

>  <original_smiles>  (200) 
CC1COC(C2(C)CCC3CC4(C)C(C(O)CC5(O)C6CCC4C5(OC4CC(O)CC(C)O4)C6O)C32)C(O)C1

>  <smiles>  (200) 
[H]OC1([H])C([H])([H])C([H])(OC23C([H])(O[H])C4([H])C([H])([H])C([H])([H])C2([H])C2(C([H])([H])[H])C([H])([H])C5([H])C([H])([H])C([H])([H])C(C([H])([H])[H])(C6([H])OC([H])([H])C([H])(C([H])([H])[H])C([H])([H])C6([H])O[H])C5([H])C2([H])C([H])(O[H])C([H])([H])C43O[H])OC([H])(C([H])([H])[H])C1([H])[H]

$$$$
66:0:2
     RDKit          3D

 89 95  0  0  1  0  0  0  0  0999 V2000
    2.2940   -8.8282    1.8338 C   0  0  0  0  0  0  0  0  0  0  0  0
    1.6082   -8.0499    2.9609 C   0  0  2  0  0  0  0  0  0  0  0  0
    2.0809   -6.5825    3.0016 C   0  0  0  0  0  0  0  0  0  0  0  0
    1.4712   -5.8785    4.0785 O   0  0  0  0  0  0  0  0  0  0  0  0
    1.7750   -6.4071    5.3690 C   0  0  1  0  0  0  0  0  0  0  0  0
    1.3693   -5.4274    6.5218 C   0  0  1  0  0  0  0  0  0  0  0  0
   -0.1591   -5.2499    6.6278 C   0  0  0  0  0  0  0  0  0  0  0  0
    1.9851   -5.9340    7.8795 C   0  0  0  0  0  0  0  0  0  0  0  0
    2.7707   -4.7742    8.5508 C   0  0  0  0  0  0  0  0  0  0  0  0
    2.1814   -3.5732    7.8373 C   0  0  1  0  0  0  0  0  0  0  0  0
    2.8410   -2.1978    7.6825 C   0  0  0  0  0  0  0  0  0  0  0  0
    2.0146   -1.5667    6.5136 C   0  0  2  0  0  0  0  0  0  0  0  0
    0.7142   -1.0360    7.2035 C   0  0  0  0  0  0  0  0  0  0  0  0
    1.7807   -2.7940    5.5762 C   0  0  2  0  0  0  0  0  0  0  0  0
    0.6965   -2.7118    4.4793 C   0  0  1  0  0  0  0  0  0  0  0  0
   -0.5834   -2.3023    4.9067 O   0  0  0  0  0  0  0  0  0  0  0  0
    1.1538   -1.8848    3.2551 C   0  0  0  0  0  0  0  0  0  0  0  0
    1.4991   -0.3691    3.3941 C   0  0  2  0  0  0  0  0  0  0  0  0
    0.4803    0.2528    2.6113 O   0  0  0  0  0  0  0  0  0  0  0  0
    2.9410    0.0488    2.9789 C   0  0  2  0  0  0  0  0  0  0  0  0
    4.1087   -0.7846    3.5335 C   0  0  0  0  0  0  0  0  0  0  0  0
    4.1140   -0.8001    5.0879 C   0  0  0  0  0  0  0  0  0  0  0  0
    2.7536   -0.3953    5.7582 C   0  0  1  0  0  0  0  0  0  0  0  0
    1.8860    0.3938    4.7153 C   0  0  2  0  0  0  0  0  0  0  0  0
    0.7278    1.0556    5.2531 O   0  0  0  0  0  0  0  0  0  0  0  0
    0.9417    2.1674    6.0878 C   0  0  2  0  0  0  0  0  0  0  0  0
   -0.3357    2.4509    6.9054 C   0  0  0  0  0  0  0  0  0  0  0  0
   -1.4548    2.9453    5.9769 C   0  0  1  0  0  0  0  0  0  0  0  0
   -2.5726    3.3543    6.7402 O   0  0  0  0  0  0  0  0  0  0  0  0
   -0.9596    4.1467    5.1648 C   0  0  0  0  0  0  0  0  0  0  0  0
    0.3362    3.7777    4.4385 C   0  0  1  0  0  0  0  0  0  0  0  0
    0.9437    4.9630    3.6832 C   0  0  0  0  0  0  0  0  0  0  0  0
    1.2929    3.3299    5.3922 O   0  0  0  0  0  0  0  0  0  0  0  0
    2.6692    1.3366    3.7580 C   0  0  1  0  0  0  0  0  0  0  0  0
    3.7812    2.0487    4.2564 O   0  0  0  0  0  0  0  0  0  0  0  0
    2.0929   -4.0636    6.4174 C   0  0  2  0  0  0  0  0  0  0  0  0
    1.2541   -7.8766    5.4533 C   0  0  1  0  0  0  0  0  0  0  0  0
   -0.1600   -7.9641    5.3910 O   0  0  0  0  0  0  0  0  0  0  0  0
    1.8529   -8.7205    4.3209 C   0  0  0  0  0  0  0  0  0  0  0  0
    3.3773   -8.8341    1.9444 H   0  0  0  0  0  0  0  0  0  0  0  0
    2.0600   -8.3749    0.8851 H   0  0  0  0  0  0  0  0  0  0  0  0
    1.9621   -9.8639    1.7889 H   0  0  0  0  0  0  0  0  0  0  0  0
    0.5335   -8.0528    2.7681 H   0  0  0  0  0  0  0  0  0  0  0  0
    3.1675   -6.5271    3.0813 H   0  0  0  0  0  0  0  0  0  0  0  0
    1.8070   -6.0813    2.0728 H   0  0  0  0  0  0  0  0  0  0  0  0
    2.8663   -6.4708    5.4127 H   0  0  0  0  0  0  0  0  0  0  0  0
   -0.4525   -4.3895    7.2241 H   0  0  0  0  0  0  0  0  0  0  0  0
   -0.6185   -6.1220    7.0874 H   0  0  0  0  0  0  0  0  0  0  0  0
   -0.6004   -5.1274    5.6410 H   0  0  0  0  0  0  0  0  0  0  0  0
    1.2056   -6.3020    8.5445 H   0  0  0  0  0  0  0  0  0  0  0  0
    2.6699   -6.7688    7.7322 H   0  0  0  0  0  0  0  0  0  0  0  0
    2.6284   -4.7391    9.6331 H   0  0  0  0  0  0  0  0  0  0  0  0
    3.8425   -4.8590    8.3553 H   0  0  0  0  0  0  0  0  0  0  0  0
    1.1981   -3.4475    8.2829 H   0  0  0  0  0  0  0  0  0  0  0  0
    2.7910   -1.6096    8.6004 H   0  0  0  0  0  0  0  0  0  0  0  0
    3.8933   -2.3171    7.4328 H   0  0  0  0  0  0  0  0  0  0  0  0
   -0.0278   -0.6261    6.5336 H   0  0  0  0  0  0  0  0  0  0  0  0
    0.9519   -0.2496    7.9203 H   0  0  0  0  0  0  0  0  0  0  0  0
    0.1578   -1.7943    7.7431 H   0  0  0  0  0  0  0  0  0  0  0  0
    2.6534   -2.8350    4.9320 H   0  0  0  0  0  0  0  0  0  0  0  0
    0.5441   -3.7170    4.0902 H   0  0  0  0  0  0  0  0  0  0  0  0
   -0.5388   -1.3751    5.0909 H   0  0  0  0  0  0  0  0  0  0  0  0
    2.0053   -2.4085    2.8198 H   0  0  0  0  0  0  0  0  0  0  0  0
    0.3999   -2.0279    2.4839 H   0  0  0  0  0  0  0  0  0  0  0  0
    0.7129    0.1488    1.7008 H   0  0  0  0  0  0  0  0  0  0  0  0
    3.0153    0.2386    1.9058 H   0  0  0  0  0  0  0  0  0  0  0  0
    4.0658   -1.8048    3.1539 H   0  0  0  0  0  0  0  0  0  0  0  0
    5.0639   -0.3952    3.1711 H   0  0  0  0  0  0  0  0  0  0  0  0
    4.5113   -1.7515    5.4358 H   0  0  0  0  0  0  0  0  0  0  0  0
    4.8544   -0.0668    5.4093 H   0  0  0  0  0  0  0  0  0  0  0  0
    3.0458    0.2922    6.5480 H   0  0  0  0  0  0  0  0  0  0  0  0
    1.7551    1.9638    6.7857 H   0  0  0  0  0  0  0  0  0  0  0  0
   -0.6347    1.5560    7.4524 H   0  0  0  0  0  0  0  0  0  0  0  0
   -0.0866    3.2151    7.6370 H   0  0  0  0  0  0  0  0  0  0  0  0
   -1.7621    2.1375    5.3033 H   0  0  0  0  0  0  0  0  0  0  0  0
   -2.8103    2.6651    7.3385 H   0  0  0  0  0  0  0  0  0  0  0  0
   -1.7160    4.4486    4.4377 H   0  0  0  0  0  0  0  0  0  0  0  0
   -0.7786    4.9991    5.8228 H   0  0  0  0  0  0  0  0  0  0  0  0
    0.1145    2.9824    3.7283 H   0  0  0  0  0  0  0  0  0  0  0  0
    0.2197    5.3863    2.9811 H   0  0  0  0  0  0  0  0  0  0  0  0
    1.8126    4.6519    3.0960 H   0  0  0  0  0  0  0  0  0  0  0  0
    1.2654    5.7571    4.3547 H   0  0  0  0  0  0  0  0  0  0  0  0
    2.0628    2.0205    3.1699 H   0  0  0  0  0  0  0  0  0  0  0  0
    4.2340    2.4100    3.4968 H   0  0  0  0  0  0  0  0  0  0  0  0
    3.1205   -4.3203    6.1415 H   0  0  0  0  0  0  0  0  0  0  0  0
    1.5557   -8.3202    6.4014 H   0  0  0  0  0  0  0  0  0  0  0  0
   -0.4075   -8.8770    5.3290 H   0  0  0  0  0  0  0  0  0  0  0  0
    1.4418   -9.7311    4.3318 H   0  0  0  0  0  0  0  0  0  0  0  0
    2.9266   -8.8238    4.4833 H   0  0  0  0  0  0  0  0  0  0  0  0
  1  2  1  0
  1 40  1  0
  1 41  1  0
  1 42  1  0
  2 39  1  0
  2  3  1  0
  2 43  1  6
  3  4  1  0
  3 44  1  0
  3 45  1  0
  4  5  1  0
  5  6  1  0
  5 37  1  0
  5 46  1  6
  6 36  1  0
  6  7  1  1
  6  8  1  0
  7 47  1  0
  7 48  1  0
  7 49  1  0
  8  9  1  0
  8 50  1  0
  8 51  1  0
  9 10  1  0
  9 52  1  0
  9 53  1  0
 10 36  1  0
 10 11  1  0
 10 54  1  1
 11 12  1  0
 11 55  1  0
 11 56  1  0
 12 23  1  0
 12 13  1  1
 12 14  1  0
 13 57  1  0
 13 58  1  0
 13 59  1  0
 14 15  1  0
 14 36  1  0
 14 60  1  6
 15 16  1  0
 15 17  1  0
 15 61  1  6
 16 62  1  0
 17 18  1  0
 17 63  1  0
 17 64  1  0
 18 24  1  0
 18 19  1  6
 18 20  1  0
 19 65  1  0
 20 34  1  0
 20 21  1  0
 20 66  1  6
 21 22  1  0
 21 67  1  0
 21 68  1  0
 22 23  1  0
 22 69  1  0
 22 70  1  0
 23 24  1  0
 23 71  1  1
 24 25  1  1
 24 34  1  0
 25 26  1  0
 26 33  1  0
 26 27  1  0
 26 72  1  1
 27 28  1  0
 27 73  1  0
 27 74  1  0
 28 29  1  0
 28 30  1  0
 28 75  1  6
 29 76  1  0
 30 31  1  0
 30 77  1  0
 30 78  1  0
 31 32  1  0
 31 33  1  0
 31 79  1  6
 32 80  1  0
 32 81  1  0
 32 82  1  0
 34 35  1  0
 34 83  1  6
 35 84  1  0
 36 85  1  6
 37 38  1  0
 37 39  1  0
 37 86  1  1
 38 87  1  0
 39 88  1  0
 39 89  1  0
M  END
>  <i_m_ct_stereo_status>  (201) 
1

>  <s_m_source_file>  (201) 
/var/tmp/pbs.5076255.sched01/tmpzygr1bk5/76dkit4mfj.sdf

>  <i_m_source_file_index>  (201) 
12

>  <i_lp_mmshare_version>  (201) 
48012

>  <i_f3d_flags>  (201) 
0

>  <s_epik_input>  (201) 
W0NIM11bQ0BASF0xW0NIMl1PW0NASF0oW0NAQEhdKFtPSF0pW0NIMl0xKVtDQEBdMihbQ0gzXSlbQ0gyXVtDSDJdW0NAQEhdKFtDSDJdMylbQ0BASF0yW0NASF0oW0NAQF0zNFtDSDNdKVtDQEBIXShbT0hdKVtDSDJdW0NAXTUoW09IXSlbQ0BASF02W0NIMl1bQ0gyXVtDQEhdNFtDQF01KFtDQEhdNltPSF0pT1tDQEBIXTdbQ0gyXVtDQEBIXShbT0hdKVtDSDJdW0NASF0oTzcpW0NIM10=

>  <s_epik_cmdline>  (201) 
J2VwaWtfcHl0aG9uJywgJy1waHQnLCAnMi4wJywgJy1waCcsICc3LjAnLCAnLXRuJywgJzgnLCAnLW1hJywgJzIwMCcsICctaW1hZScsICc8aW5maWxlLm1hZT4nLCAnLW9tYWUnLCAnPG91dGZpbGUubWFlPic=

>  <r_lp_tautomer_probability>  (201) 
1

>  <r_epik_Ionization_Penalty>  (201) 
1.53744e-06

>  <r_epik_Ionization_Penalty_Charging>  (201) 
0

>  <r_epik_Ionization_Penalty_Neutral>  (201) 
1.53744e-06

>  <r_epik_State_Penalty>  (201) 
-0

>  <r_epik_Charging_Adjusted_Penalty>  (201) 
0

>  <i_epik_Tot_Q>  (201) 
0

>  <i_epik_Tot_abs_Q>  (201) 
0

>  <s_epik_Chemistry_Notes>  (201) 
This compound contains an acetal/aminal-like group ( X-CH(R)-Y where X, Y are N, S, or O) that may be acid/base labile, releasing an aldehyde.

>  <s_lp_Force_Field>  (201) 
OPLS3e

>  <r_lp_Energy>  (201) 
98.4356

>  <b_lp_Chiralities_Consistent>  (201) 
1

>  <s_lp_Variant>  (201) 
66:0-1

>  <s_i_glide_gridfile>  (201) 
pfpi4k_grid

>  <i_i_glide_lignum>  (201) 
12

>  <i_i_glide_rotatable_bonds>  (201) 
8

>  <r_i_docking_score>  (201) 
-2.04931

>  <r_i_glide_ligand_efficiency>  (201) 
-0.0525464

>  <r_i_glide_ligand_efficiency_sa>  (201) 
-0.178196

>  <r_i_glide_ligand_efficiency_ln>  (201) 
-0.43943

>  <r_i_glide_gscore>  (201) 
-2.04931

>  <r_i_glide_lipo>  (201) 
-0.101118

>  <r_i_glide_hbond>  (201) 
0

>  <r_i_glide_metal>  (201) 
-0

>  <r_i_glide_rewards>  (201) 
0

>  <r_i_glide_evdw>  (201) 
-27.4612

>  <r_i_glide_ecoul>  (201) 
-4.73833

>  <r_i_glide_erotb>  (201) 
0.135741

>  <r_i_glide_esite>  (201) 
-0.000123484

>  <r_i_glide_emodel>  (201) 
-36.6249

>  <r_i_glide_energy>  (201) 
-32.1995

>  <r_i_glide_einternal>  (201) 
2.6272

>  <r_i_glide_intrahb_reward>  (201) 
-0

>  <i_i_glide_confnum>  (201) 
4

>  <i_i_glide_posenum>  (201) 
7

>  <r_i_glide_eff_state_penalty>  (201) 
0

>  <ligand_id>  (201) 
66

>  <original_smiles>  (201) 
CC1COC(C2(C)CCC3CC4(C)C(C(O)CC5(O)C6CCC4C5(OC4CC(O)CC(C)O4)C6O)C32)C(O)C1

>  <smiles>  (201) 
[H]OC1([H])C([H])([H])C([H])(OC23C([H])(O[H])C4([H])C([H])([H])C([H])([H])C2([H])C2(C([H])([H])[H])C([H])([H])C5([H])C([H])([H])C([H])([H])C(C([H])([H])[H])(C6([H])OC([H])([H])C([H])(C([H])([H])[H])C([H])([H])C6([H])O[H])C5([H])C2([H])C([H])(O[H])C([H])([H])C43O[H])OC([H])(C([H])([H])[H])C1([H])[H]

$$$$
68:0:0
     RDKit          3D

 47 53  0  0  1  0  0  0  0  0999 V2000
    2.2689   -2.7857   -3.0698 C   0  0  0  0  0  0  0  0  0  0  0  0
    3.5641   -2.5682   -2.4308 N   0  0  0  0  0  0  0  0  0  0  0  0
    3.5859   -1.4545   -1.3524 C   0  0  2  0  0  0  0  0  0  0  0  0
    4.8906   -0.6494   -0.6678 C   0  0  0  0  0  0  0  0  0  0  0  0
    5.7353   -1.0540    0.7546 C   0  0  1  0  0  0  0  0  0  0  0  0
    4.7509   -1.5814    2.0008 C   0  0  1  0  0  0  0  0  0  0  0  0
    3.4422   -0.8715    1.8030 C   0  0  0  0  0  0  0  0  0  0  0  0
    2.6542   -1.7012    0.8728 N   0  0  0  0  0  0  0  0  0  0  0  0
    3.2758   -2.3927   -0.3087 C   0  0  2  0  0  0  0  0  0  0  0  0
    4.8006   -3.2995   -0.5828 C   0  0  2  0  0  0  0  0  0  0  0  0
    5.5928   -3.0689   -1.8339 C   0  0  2  0  0  0  0  0  0  0  0  0
    6.9397   -2.6819   -1.0175 C   0  0  0  0  0  0  0  0  0  0  0  0
    6.9271   -2.1576    0.4896 C   0  0  2  0  0  0  0  0  0  0  0  0
    6.8851   -3.4913    1.4143 C   0  0  0  0  0  0  0  0  0  0  0  0
    5.7800   -4.6484    1.2035 C   0  0  1  0  0  0  0  0  0  0  0  0
    4.2772   -4.4814    1.4726 C   0  0  1  0  0  0  0  0  0  0  0  0
    4.2521   -3.1414    2.4101 C   0  0  0  0  0  0  0  0  0  0  0  0
    3.9263   -4.7704   -0.2404 C   0  0  2  0  0  0  0  0  0  0  0  0
    5.2817   -4.6611   -0.1805 C   0  0  1  0  0  0  0  0  0  0  0  0
    4.2327   -3.8975   -1.8541 C   0  0  1  0  0  0  0  0  0  0  0  0
    1.9405   -1.8494   -3.5049 H   0  0  0  0  0  0  0  0  0  0  0  0
    1.4853   -3.1364   -2.3941 H   0  0  0  0  0  0  0  0  0  0  0  0
    2.3667   -3.4971   -3.8905 H   0  0  0  0  0  0  0  0  0  0  0  0
    2.7781   -0.7524   -1.5498 H   0  0  0  0  0  0  0  0  0  0  0  0
    5.5924   -0.3978   -1.4628 H   0  0  0  0  0  0  0  0  0  0  0  0
    4.4432    0.2993   -0.3986 H   0  0  0  0  0  0  0  0  0  0  0  0
    6.2104   -0.1353    1.0901 H   0  0  0  0  0  0  0  0  0  0  0  0
    5.2101   -1.1763    2.9080 H   0  0  0  0  0  0  0  0  0  0  0  0
    2.8988   -0.8207    2.7467 H   0  0  0  0  0  0  0  0  0  0  0  0
    3.5522    0.1599    1.4790 H   0  0  0  0  0  0  0  0  0  0  0  0
    2.2140   -2.4200    1.4338 H   0  0  0  0  0  0  0  0  0  0  0  0
    2.3671   -2.9736   -0.5180 H   0  0  0  0  0  0  0  0  0  0  0  0
    4.9383   -2.8482    0.2031 H   0  0  0  0  0  0  0  0  0  0  0  0
    6.0752   -3.8333   -2.4475 H   0  0  0  0  0  0  0  0  0  0  0  0
    7.6534   -3.5049   -1.0776 H   0  0  0  0  0  0  0  0  0  0  0  0
    7.4167   -1.9083   -1.6159 H   0  0  0  0  0  0  0  0  0  0  0  0
    7.8761   -1.6522    0.6910 H   0  0  0  0  0  0  0  0  0  0  0  0
    7.8726   -3.9528    1.3216 H   0  0  0  0  0  0  0  0  0  0  0  0
    6.7971   -3.1533    2.4328 H   0  0  0  0  0  0  0  0  0  0  0  0
    6.1104   -5.6322    1.5320 H   0  0  0  0  0  0  0  0  0  0  0  0
    3.9128   -5.3492    2.0319 H   0  0  0  0  0  0  0  0  0  0  0  0
    4.8509   -3.3840    3.2884 H   0  0  0  0  0  0  0  0  0  0  0  0
    3.2698   -3.1022    2.8835 H   0  0  0  0  0  0  0  0  0  0  0  0
    3.6480   -5.8139   -0.3518 H   0  0  0  0  0  0  0  0  0  0  0  0
    5.8050   -5.3364   -0.8646 H   0  0  0  0  0  0  0  0  0  0  0  0
    4.2571   -4.6063   -2.6773 H   0  0  0  0  0  0  0  0  0  0  0  0
    1.9184   -1.1186    0.4495 H   0  0  0  0  0  0  0  0  0  0  0  0
  1  2  1  0
  1 21  1  0
  1 22  1  0
  1 23  1  0
  2 20  1  0
  2  3  1  0
  3  9  1  0
  3  4  1  0
  3 24  1  6
  4  5  1  0
  4 25  1  0
  4 26  1  0
  5 13  1  0
  5  6  1  0
  5 27  1  1
  6 17  1  0
  6  7  1  0
  6 28  1  1
  7  8  1  0
  7 29  1  0
  7 30  1  0
  8  9  1  0
  8 31  1  0
  8 47  1  0
  9 10  1  0
  9 32  1  6
 10 19  1  0
 10 11  1  0
 10 33  1  1
 11 20  1  0
 11 12  1  0
 11 34  1  6
 12 13  1  0
 12 35  1  0
 12 36  1  0
 13 14  1  0
 13 37  1  1
 14 15  1  0
 14 38  1  0
 14 39  1  0
 15 19  1  0
 15 16  1  0
 15 40  1  1
 16 17  1  0
 16 18  1  0
 16 41  1  1
 17 42  1  0
 17 43  1  0
 18 19  1  0
 18 20  1  0
 18 44  1  1
 19 45  1  6
 20 46  1  6
M  CHG  1   8   1
M  END
>  <i_m_ct_stereo_status>  (202) 
1

>  <s_m_source_file>  (202) 
/var/tmp/pbs.5076255.sched01/tmpzygr1bk5/76dkit4mfj.sdf

>  <i_m_source_file_index>  (202) 
15

>  <i_lp_mmshare_version>  (202) 
48012

>  <i_f3d_flags>  (202) 
0

>  <s_epik_input>  (202) 
W0NAQEhdMTJbQ0BIXTNbQ0BASF00W0NIXTVbQ0BIXShOMVtDSDNdKVtDQEBIXTZbQ0BIXTdbQ0BASF0oW0NASF00NilbQ0gyXVtDQEBIXShbQ0gyXTUpW0NAQEhdKFtDSDJdMilbQ0BIXShbQ0gyXTcpW0NIMl1bTkhdMw==

>  <s_epik_cmdline>  (202) 
J2VwaWtfcHl0aG9uJywgJy1waHQnLCAnMi4wJywgJy1waCcsICc3LjAnLCAnLXRuJywgJzgnLCAnLW1hJywgJzIwMCcsICctaW1hZScsICc8aW5maWxlLm1hZT4nLCAnLW9tYWUnLCAnPG91dGZpbGUubWFlPic=

>  <r_epik_Ionization_Penalty>  (202) 
0.0825574

>  <r_epik_Ionization_Penalty_Charging>  (202) 
0.00149386

>  <r_epik_Ionization_Penalty_Neutral>  (202) 
0.0810636

>  <r_epik_State_Penalty>  (202) 
0.0895184

>  <r_epik_Charging_Adjusted_Penalty>  (202) 
0.0910123

>  <i_epik_Tot_Q>  (202) 
1

>  <i_epik_Tot_abs_Q>  (202) 
1

>  <s_lp_Force_Field>  (202) 
OPLS3e

>  <r_lp_Energy>  (202) 
635.613

>  <b_lp_Chiralities_Consistent>  (202) 
1

>  <s_lp_Variant>  (202) 
68:0-1

>  <s_i_glide_gridfile>  (202) 
pfpi4k_grid

>  <i_i_glide_lignum>  (202) 
15

>  <i_i_glide_rotatable_bonds>  (202) 
0

>  <r_i_docking_score>  (202) 
-4.12308

>  <r_i_glide_ligand_efficiency>  (202) 
-0.206154

>  <r_i_glide_ligand_efficiency_sa>  (202) 
-0.559588

>  <r_i_glide_ligand_efficiency_ln>  (202) 
-1.03187

>  <r_i_glide_gscore>  (202) 
-4.12308

>  <r_i_glide_lipo>  (202) 
-0.67779

>  <r_i_glide_hbond>  (202) 
-0.187015

>  <r_i_glide_metal>  (202) 
-0

>  <r_i_glide_rewards>  (202) 
-1.5585

>  <r_i_glide_evdw>  (202) 
-10.7843

>  <r_i_glide_ecoul>  (202) 
-7.35058

>  <r_i_glide_erotb>  (202) 
0

>  <r_i_glide_esite>  (202) 
-0.0579729

>  <r_i_glide_emodel>  (202) 
-24.0374

>  <r_i_glide_energy>  (202) 
-18.1349

>  <r_i_glide_einternal>  (202) 
0

>  <r_i_glide_intrahb_reward>  (202) 
-0

>  <i_i_glide_confnum>  (202) 
1

>  <i_i_glide_posenum>  (202) 
1

>  <r_i_glide_eff_state_penalty>  (202) 
0

>  <ligand_id>  (202) 
68

>  <original_smiles>  (202) 
CN1C2CC3C4CNC2C2C5CC3CC3C(C4)C(C32)C51

>  <smiles>  (202) 
[H]C([H])([H])N1C2([H])C3([H])C([H])([H])C4([H])C([H])([H])C5([H])C6([H])C([H])([H])C7([H])C4([H])C([H])([H])C1([H])C([H])(C3([H])C5([H])C26[H])[N+]([H])([H])C7([H])[H]

$$$$
68:0:1
     RDKit          3D

 47 53  0  0  1  0  0  0  0  0999 V2000
    2.8649   -3.4484   -3.5798 C   0  0  0  0  0  0  0  0  0  0  0  0
    3.1192   -2.7991   -2.2956 N   0  0  0  0  0  0  0  0  0  0  0  0
    2.8880   -3.6871   -1.0512 C   0  0  2  0  0  0  0  0  0  0  0  0
    2.6538   -3.2615    0.5613 C   0  0  0  0  0  0  0  0  0  0  0  0
    3.8591   -3.1155    1.7581 C   0  0  1  0  0  0  0  0  0  0  0  0
    5.0476   -4.2823    1.6944 C   0  0  1  0  0  0  0  0  0  0  0  0
    4.3696   -5.4948    1.1342 C   0  0  0  0  0  0  0  0  0  0  0  0
    4.4591   -5.3711   -0.3271 N   0  0  0  0  0  0  0  0  0  0  0  0
    4.2744   -4.0750   -1.0376 C   0  0  2  0  0  0  0  0  0  0  0  0
    4.8118   -2.3911   -0.7401 C   0  0  2  0  0  0  0  0  0  0  0  0
    3.8606   -1.2649   -0.9585 C   0  0  2  0  0  0  0  0  0  0  0  0
    4.0541   -0.7175    0.5594 C   0  0  0  0  0  0  0  0  0  0  0  0
    4.5698   -1.6310    1.7699 C   0  0  2  0  0  0  0  0  0  0  0  0
    6.1941   -1.5965    1.6921 C   0  0  0  0  0  0  0  0  0  0  0  0
    6.9728   -1.9570    0.3206 C   0  0  1  0  0  0  0  0  0  0  0  0
    7.0018   -3.3409   -0.3435 C   0  0  1  0  0  0  0  0  0  0  0  0
    6.5237   -4.3022    0.8868 C   0  0  0  0  0  0  0  0  0  0  0  0
    6.1841   -2.7005   -1.7800 C   0  0  2  0  0  0  0  0  0  0  0  0
    6.1283   -1.6927   -0.8562 C   0  0  1  0  0  0  0  0  0  0  0  0
    4.5126   -2.0312   -2.1984 C   0  0  1  0  0  0  0  0  0  0  0  0
    1.8550   -3.8534   -3.5696 H   0  0  0  0  0  0  0  0  0  0  0  0
    3.5592   -4.2552   -3.8166 H   0  0  0  0  0  0  0  0  0  0  0  0
    2.9037   -2.7165   -4.3865 H   0  0  0  0  0  0  0  0  0  0  0  0
    2.2037   -4.4936   -1.3105 H   0  0  0  0  0  0  0  0  0  0  0  0
    1.9975   -2.3925    0.5973 H   0  0  0  0  0  0  0  0  0  0  0  0
    1.9979   -4.0417    0.9330 H   0  0  0  0  0  0  0  0  0  0  0  0
    3.3408   -3.2330    2.7080 H   0  0  0  0  0  0  0  0  0  0  0  0
    5.2800   -4.4986    2.7362 H   0  0  0  0  0  0  0  0  0  0  0  0
    4.9005   -6.4019    1.4314 H   0  0  0  0  0  0  0  0  0  0  0  0
    3.3545   -5.6421    1.5077 H   0  0  0  0  0  0  0  0  0  0  0  0
    5.3630   -5.7385   -0.5931 H   0  0  0  0  0  0  0  0  0  0  0  0
    4.6090   -4.4825   -2.0011 H   0  0  0  0  0  0  0  0  0  0  0  0
    4.9377   -2.8135    0.0590 H   0  0  0  0  0  0  0  0  0  0  0  0
    4.0995   -0.3026   -1.4329 H   0  0  0  0  0  0  0  0  0  0  0  0
    4.6585    0.1932    0.5479 H   0  0  0  0  0  0  0  0  0  0  0  0
    3.0697   -0.3508    0.8519 H   0  0  0  0  0  0  0  0  0  0  0  0
    4.2862   -1.1487    2.7053 H   0  0  0  0  0  0  0  0  0  0  0  0
    6.4756   -0.5794    1.9655 H   0  0  0  0  0  0  0  0  0  0  0  0
    6.6000   -2.1822    2.5054 H   0  0  0  0  0  0  0  0  0  0  0  0
    7.9529   -1.4922    0.2390 H   0  0  0  0  0  0  0  0  0  0  0  0
    8.0242   -3.5662   -0.6444 H   0  0  0  0  0  0  0  0  0  0  0  0
    7.2528   -4.1430    1.6802 H   0  0  0  0  0  0  0  0  0  0  0  0
    6.7880   -5.3276    0.6126 H   0  0  0  0  0  0  0  0  0  0  0  0
    6.9271   -2.5083   -2.5473 H   0  0  0  0  0  0  0  0  0  0  0  0
    6.1872   -0.6744   -1.2366 H   0  0  0  0  0  0  0  0  0  0  0  0
    4.5745   -1.3882   -3.0722 H   0  0  0  0  0  0  0  0  0  0  0  0
    3.7527   -5.9834   -0.7124 H   0  0  0  0  0  0  0  0  0  0  0  0
  1  2  1  0
  1 21  1  0
  1 22  1  0
  1 23  1  0
  2 20  1  0
  2  3  1  0
  3  9  1  0
  3  4  1  0
  3 24  1  6
  4  5  1  0
  4 25  1  0
  4 26  1  0
  5 13  1  0
  5  6  1  0
  5 27  1  1
  6 17  1  0
  6  7  1  0
  6 28  1  1
  7  8  1  0
  7 29  1  0
  7 30  1  0
  8  9  1  0
  8 31  1  0
  8 47  1  0
  9 10  1  0
  9 32  1  6
 10 19  1  0
 10 11  1  0
 10 33  1  1
 11 20  1  0
 11 12  1  0
 11 34  1  6
 12 13  1  0
 12 35  1  0
 12 36  1  0
 13 14  1  0
 13 37  1  1
 14 15  1  0
 14 38  1  0
 14 39  1  0
 15 19  1  0
 15 16  1  0
 15 40  1  6
 16 17  1  0
 16 18  1  0
 16 41  1  6
 17 42  1  0
 17 43  1  0
 18 19  1  0
 18 20  1  0
 18 44  1  6
 19 45  1  6
 20 46  1  6
M  CHG  1   8   1
M  END
>  <i_m_ct_stereo_status>  (203) 
1

>  <s_m_source_file>  (203) 
/var/tmp/pbs.5076255.sched01/tmpzygr1bk5/76dkit4mfj.sdf

>  <i_m_source_file_index>  (203) 
15

>  <i_lp_mmshare_version>  (203) 
48012

>  <i_f3d_flags>  (203) 
0

>  <s_epik_input>  (203) 
W0NAQEhdMTJbQ0BIXTNbQ0BASF00W0NIXTVbQ0BIXShOMVtDSDNdKVtDQEBIXTZbQ0BIXTdbQ0BASF0oW0NASF00NilbQ0gyXVtDQEBIXShbQ0gyXTUpW0NAQEhdKFtDSDJdMilbQ0BIXShbQ0gyXTcpW0NIMl1bTkhdMw==

>  <s_epik_cmdline>  (203) 
J2VwaWtfcHl0aG9uJywgJy1waHQnLCAnMi4wJywgJy1waCcsICc3LjAnLCAnLXRuJywgJzgnLCAnLW1hJywgJzIwMCcsICctaW1hZScsICc8aW5maWxlLm1hZT4nLCAnLW9tYWUnLCAnPG91dGZpbGUubWFlPic=

>  <r_epik_Ionization_Penalty>  (203) 
0.0825574

>  <r_epik_Ionization_Penalty_Charging>  (203) 
0.00149386

>  <r_epik_Ionization_Penalty_Neutral>  (203) 
0.0810636

>  <r_epik_State_Penalty>  (203) 
0.0895184

>  <r_epik_Charging_Adjusted_Penalty>  (203) 
0.0910123

>  <i_epik_Tot_Q>  (203) 
1

>  <i_epik_Tot_abs_Q>  (203) 
1

>  <s_lp_Force_Field>  (203) 
OPLS3e

>  <r_lp_Energy>  (203) 
635.613

>  <b_lp_Chiralities_Consistent>  (203) 
1

>  <s_lp_Variant>  (203) 
68:0-1

>  <s_i_glide_gridfile>  (203) 
pfpi4k_grid

>  <i_i_glide_lignum>  (203) 
15

>  <i_i_glide_rotatable_bonds>  (203) 
0

>  <r_i_docking_score>  (203) 
-3.78832

>  <r_i_glide_ligand_efficiency>  (203) 
-0.189416

>  <r_i_glide_ligand_efficiency_sa>  (203) 
-0.514153

>  <r_i_glide_ligand_efficiency_ln>  (203) 
-0.94809

>  <r_i_glide_gscore>  (203) 
-3.78832

>  <r_i_glide_lipo>  (203) 
-0.76426

>  <r_i_glide_hbond>  (203) 
0

>  <r_i_glide_metal>  (203) 
-0

>  <r_i_glide_rewards>  (203) 
-1.5585

>  <r_i_glide_evdw>  (203) 
-17.8315

>  <r_i_glide_ecoul>  (203) 
-3.61589

>  <r_i_glide_erotb>  (203) 
0

>  <r_i_glide_esite>  (203) 
-0.0315994

>  <r_i_glide_emodel>  (203) 
-26.9231

>  <r_i_glide_energy>  (203) 
-21.4474

>  <r_i_glide_einternal>  (203) 
0

>  <r_i_glide_intrahb_reward>  (203) 
-0

>  <i_i_glide_confnum>  (203) 
2

>  <i_i_glide_posenum>  (203) 
13

>  <r_i_glide_eff_state_penalty>  (203) 
0

>  <ligand_id>  (203) 
68

>  <original_smiles>  (203) 
CN1C2CC3C4CNC2C2C5CC3CC3C(C4)C(C32)C51

>  <smiles>  (203) 
[H]C([H])([H])N1C2([H])C3([H])C([H])([H])C4([H])C([H])([H])C5([H])C6([H])C([H])([H])C7([H])C4([H])C([H])([H])C1([H])C([H])(C3([H])C5([H])C26[H])[N+]([H])([H])C7([H])[H]

$$$$
68:0:2
     RDKit          3D

 47 53  0  0  1  0  0  0  0  0999 V2000
    3.4461   -1.2028   -3.2127 C   0  0  0  0  0  0  0  0  0  0  0  0
    4.3833   -1.7809   -2.2612 N   0  0  0  0  0  0  0  0  0  0  0  0
    4.6192   -0.9337   -0.9881 C   0  0  2  0  0  0  0  0  0  0  0  0
    5.8713   -0.9954    0.1369 C   0  0  0  0  0  0  0  0  0  0  0  0
    5.8825   -1.8865    1.5885 C   0  0  1  0  0  0  0  0  0  0  0  0
    4.4356   -1.8802    2.4167 C   0  0  1  0  0  0  0  0  0  0  0  0
    3.7960   -0.5729    2.0764 C   0  0  0  0  0  0  0  0  0  0  0  0
    3.0396   -0.7905    0.8278 N   0  0  0  0  0  0  0  0  0  0  0  0
    3.5758   -1.6261   -0.2865 C   0  0  2  0  0  0  0  0  0  0  0  0
    4.4454   -3.1900   -0.3897 C   0  0  2  0  0  0  0  0  0  0  0  0
    5.5751   -3.3415   -1.3513 C   0  0  2  0  0  0  0  0  0  0  0  0
    6.5911   -3.7946   -0.1715 C   0  0  0  0  0  0  0  0  0  0  0  0
    6.3715   -3.4444    1.3748 C   0  0  2  0  0  0  0  0  0  0  0  0
    5.3996   -4.6052    1.9768 C   0  0  0  0  0  0  0  0  0  0  0  0
    3.9963   -4.9531    1.2477 C   0  0  1  0  0  0  0  0  0  0  0  0
    2.7816   -4.0162    1.1675 C   0  0  1  0  0  0  0  0  0  0  0  0
    3.1322   -2.9405    2.3424 C   0  0  0  0  0  0  0  0  0  0  0  0
    2.8974   -3.9676   -0.6024 C   0  0  2  0  0  0  0  0  0  0  0  0
    4.0309   -4.6115   -0.1874 C   0  0  1  0  0  0  0  0  0  0  0  0
    4.0652   -3.3051   -1.8682 C   0  0  1  0  0  0  0  0  0  0  0  0
    3.7738   -0.1968   -3.4786 H   0  0  0  0  0  0  0  0  0  0  0  0
    2.4257   -1.1286   -2.8359 H   0  0  0  0  0  0  0  0  0  0  0  0
    3.4200   -1.7907   -4.1302 H   0  0  0  0  0  0  0  0  0  0  0  0
    4.3713    0.1020   -1.2163 H   0  0  0  0  0  0  0  0  0  0  0  0
    6.8066   -1.1731   -0.3870 H   0  0  0  0  0  0  0  0  0  0  0  0
    5.9924    0.0425    0.4429 H   0  0  0  0  0  0  0  0  0  0  0  0
    6.6154   -1.3945    2.2227 H   0  0  0  0  0  0  0  0  0  0  0  0
    4.7233   -1.8429    3.4695 H   0  0  0  0  0  0  0  0  0  0  0  0
    3.0954   -0.2821    2.8596 H   0  0  0  0  0  0  0  0  0  0  0  0
    4.5072    0.2477    2.0246 H   0  0  0  0  0  0  0  0  0  0  0  0
    2.1357   -1.1701    1.0691 H   0  0  0  0  0  0  0  0  0  0  0  0
    2.6261   -1.6248   -0.8360 H   0  0  0  0  0  0  0  0  0  0  0  0
    4.5318   -2.9269    0.4815 H   0  0  0  0  0  0  0  0  0  0  0  0
    5.7727   -4.2058   -1.9875 H   0  0  0  0  0  0  0  0  0  0  0  0
    6.7700   -4.8679   -0.2346 H   0  0  0  0  0  0  0  0  0  0  0  0
    7.5555   -3.3677   -0.4453 H   0  0  0  0  0  0  0  0  0  0  0  0
    7.3380   -3.5649    1.8540 H   0  0  0  0  0  0  0  0  0  0  0  0
    5.9976   -5.5193    1.9555 H   0  0  0  0  0  0  0  0  0  0  0  0
    5.2569   -4.4485    3.0475 H   0  0  0  0  0  0  0  0  0  0  0  0
    3.6565   -5.9781    1.4064 H   0  0  0  0  0  0  0  0  0  0  0  0
    1.8901   -4.5852    1.4122 H   0  0  0  0  0  0  0  0  0  0  0  0
    3.2237   -3.5234    3.2601 H   0  0  0  0  0  0  0  0  0  0  0  0
    2.2076   -2.4037    2.5725 H   0  0  0  0  0  0  0  0  0  0  0  0
    2.1738   -4.6623   -1.0186 H   0  0  0  0  0  0  0  0  0  0  0  0
    4.3902   -5.4155   -0.8343 H   0  0  0  0  0  0  0  0  0  0  0  0
    3.9519   -3.8468   -2.8071 H   0  0  0  0  0  0  0  0  0  0  0  0
    2.8676    0.1212    0.4459 H   0  0  0  0  0  0  0  0  0  0  0  0
  1  2  1  0
  1 21  1  0
  1 22  1  0
  1 23  1  0
  2 20  1  0
  2  3  1  0
  3  9  1  0
  3  4  1  0
  3 24  1  6
  4  5  1  0
  4 25  1  0
  4 26  1  0
  5 13  1  0
  5  6  1  0
  5 27  1  1
  6 17  1  0
  6  7  1  0
  6 28  1  1
  7  8  1  0
  7 29  1  0
  7 30  1  0
  8  9  1  0
  8 31  1  0
  8 47  1  0
  9 10  1  0
  9 32  1  6
 10 19  1  0
 10 11  1  0
 10 33  1  1
 11 20  1  0
 11 12  1  0
 11 34  1  6
 12 13  1  0
 12 35  1  0
 12 36  1  0
 13 14  1  0
 13 37  1  1
 14 15  1  0
 14 38  1  0
 14 39  1  0
 15 19  1  0
 15 16  1  0
 15 40  1  6
 16 17  1  0
 16 18  1  0
 16 41  1  6
 17 42  1  0
 17 43  1  0
 18 19  1  0
 18 20  1  0
 18 44  1  6
 19 45  1  6
 20 46  1  6
M  CHG  1   8   1
M  END
>  <i_m_ct_stereo_status>  (204) 
1

>  <s_m_source_file>  (204) 
/var/tmp/pbs.5076255.sched01/tmpzygr1bk5/76dkit4mfj.sdf

>  <i_m_source_file_index>  (204) 
15

>  <i_lp_mmshare_version>  (204) 
48012

>  <i_f3d_flags>  (204) 
0

>  <s_epik_input>  (204) 
W0NAQEhdMTJbQ0BIXTNbQ0BASF00W0NIXTVbQ0BIXShOMVtDSDNdKVtDQEBIXTZbQ0BIXTdbQ0BASF0oW0NASF00NilbQ0gyXVtDQEBIXShbQ0gyXTUpW0NAQEhdKFtDSDJdMilbQ0BIXShbQ0gyXTcpW0NIMl1bTkhdMw==

>  <s_epik_cmdline>  (204) 
J2VwaWtfcHl0aG9uJywgJy1waHQnLCAnMi4wJywgJy1waCcsICc3LjAnLCAnLXRuJywgJzgnLCAnLW1hJywgJzIwMCcsICctaW1hZScsICc8aW5maWxlLm1hZT4nLCAnLW9tYWUnLCAnPG91dGZpbGUubWFlPic=

>  <r_epik_Ionization_Penalty>  (204) 
0.0825574

>  <r_epik_Ionization_Penalty_Charging>  (204) 
0.00149386

>  <r_epik_Ionization_Penalty_Neutral>  (204) 
0.0810636

>  <r_epik_State_Penalty>  (204) 
0.0895184

>  <r_epik_Charging_Adjusted_Penalty>  (204) 
0.0910123

>  <i_epik_Tot_Q>  (204) 
1

>  <i_epik_Tot_abs_Q>  (204) 
1

>  <s_lp_Force_Field>  (204) 
OPLS3e

>  <r_lp_Energy>  (204) 
635.613

>  <b_lp_Chiralities_Consistent>  (204) 
1

>  <s_lp_Variant>  (204) 
68:0-1

>  <s_i_glide_gridfile>  (204) 
pfpi4k_grid

>  <i_i_glide_lignum>  (204) 
15

>  <i_i_glide_rotatable_bonds>  (204) 
0

>  <r_i_docking_score>  (204) 
-3.72827

>  <r_i_glide_ligand_efficiency>  (204) 
-0.186413

>  <r_i_glide_ligand_efficiency_sa>  (204) 
-0.506004

>  <r_i_glide_ligand_efficiency_ln>  (204) 
-0.933063

>  <r_i_glide_gscore>  (204) 
-3.72827

>  <r_i_glide_lipo>  (204) 
-0.643501

>  <r_i_glide_hbond>  (204) 
-0.00861964

>  <r_i_glide_metal>  (204) 
-0

>  <r_i_glide_rewards>  (204) 
-1.5585

>  <r_i_glide_evdw>  (204) 
-15.3161

>  <r_i_glide_ecoul>  (204) 
-4.56392

>  <r_i_glide_erotb>  (204) 
0

>  <r_i_glide_esite>  (204) 
-0.0672595

>  <r_i_glide_emodel>  (204) 
-25.274

>  <r_i_glide_energy>  (204) 
-19.88

>  <r_i_glide_einternal>  (204) 
0

>  <r_i_glide_intrahb_reward>  (204) 
-0

>  <i_i_glide_confnum>  (204) 
1

>  <i_i_glide_posenum>  (204) 
7

>  <r_i_glide_eff_state_penalty>  (204) 
0

>  <ligand_id>  (204) 
68

>  <original_smiles>  (204) 
CN1C2CC3C4CNC2C2C5CC3CC3C(C4)C(C32)C51

>  <smiles>  (204) 
[H]C([H])([H])N1C2([H])C3([H])C([H])([H])C4([H])C([H])([H])C5([H])C6([H])C([H])([H])C7([H])C4([H])C([H])([H])C1([H])C([H])(C3([H])C5([H])C26[H])[N+]([H])([H])C7([H])[H]

$$$$
68:1:0
     RDKit          3D

 48 54  0  0  1  0  0  0  0  0999 V2000
    2.3303   -2.1253   -4.0370 C   0  0  0  0  0  0  0  0  0  0  0  0
    2.3719   -2.2837   -2.5606 N   0  0  2  0  0  0  0  0  0  0  0  0
    3.1287   -1.1652   -1.8236 C   0  0  2  0  0  0  0  0  0  0  0  0
    4.7501   -0.8407   -1.7558 C   0  0  0  0  0  0  0  0  0  0  0  0
    5.8347   -1.3122   -0.5147 C   0  0  1  0  0  0  0  0  0  0  0  0
    5.2273   -1.3719    1.0301 C   0  0  1  0  0  0  0  0  0  0  0  0
    4.2364   -0.2608    1.0806 C   0  0  0  0  0  0  0  0  0  0  0  0
    3.0043   -0.8762    0.5762 N   0  0  0  0  0  0  0  0  0  0  0  0
    3.0342   -1.8399   -0.5727 C   0  0  2  0  0  0  0  0  0  0  0  0
    3.9670   -3.2584   -1.1149 C   0  0  2  0  0  0  0  0  0  0  0  0
    4.3286   -3.4371   -2.5627 C   0  0  2  0  0  0  0  0  0  0  0  0
    5.8959   -3.3419   -2.2183 C   0  0  0  0  0  0  0  0  0  0  0  0
    6.5276   -2.7541   -0.8644 C   0  0  2  0  0  0  0  0  0  0  0  0
    6.4324   -3.9154    0.2856 C   0  0  0  0  0  0  0  0  0  0  0  0
    5.0258   -4.6465    0.6190 C   0  0  1  0  0  0  0  0  0  0  0  0
    3.7802   -3.9737    1.2126 C   0  0  1  0  0  0  0  0  0  0  0  0
    4.4480   -2.6240    1.8442 C   0  0  0  0  0  0  0  0  0  0  0  0
    2.8558   -4.3074   -0.2781 C   0  0  2  0  0  0  0  0  0  0  0  0
    4.1613   -4.6347   -0.5666 C   0  0  1  0  0  0  0  0  0  0  0  0
    2.8602   -3.6875   -2.0305 C   0  0  1  0  0  0  0  0  0  0  0  0
    3.3186   -2.0995   -4.4927 H   0  0  0  0  0  0  0  0  0  0  0  0
    1.8359   -1.2162   -4.3248 H   0  0  0  0  0  0  0  0  0  0  0  0
    1.7615   -2.9374   -4.4902 H   0  0  0  0  0  0  0  0  0  0  0  0
    2.5058   -0.2953   -1.9588 H   0  0  0  0  0  0  0  0  0  0  0  0
    5.2017   -0.9138   -2.7425 H   0  0  0  0  0  0  0  0  0  0  0  0
    4.6308    0.2037   -1.6642 H   0  0  0  0  0  0  0  0  0  0  0  0
    6.6045   -0.5559   -0.4622 H   0  0  0  0  0  0  0  0  0  0  0  0
    6.0489   -1.0630    1.6710 H   0  0  0  0  0  0  0  0  0  0  0  0
    4.0203    0.0639    2.0974 H   0  0  0  0  0  0  0  0  0  0  0  0
    4.4944    0.6342    0.5200 H   0  0  0  0  0  0  0  0  0  0  0  0
    2.5667   -1.3428    1.3473 H   0  0  0  0  0  0  0  0  0  0  0  0
    2.0602   -2.2601   -0.2642 H   0  0  0  0  0  0  0  0  0  0  0  0
    4.4612   -2.8205   -0.4757 H   0  0  0  0  0  0  0  0  0  0  0  0
    4.3370   -4.3756   -3.1158 H   0  0  0  0  0  0  0  0  0  0  0  0
    6.2045   -4.3644   -2.2792 H   0  0  0  0  0  0  0  0  0  0  0  0
    6.3910   -2.8543   -3.0653 H   0  0  0  0  0  0  0  0  0  0  0  0
    7.5899   -2.5928   -1.0385 H   0  0  0  0  0  0  0  0  0  0  0  0
    7.1199   -4.7022   -0.0307 H   0  0  0  0  0  0  0  0  0  0  0  0
    6.8907   -3.5622    1.2072 H   0  0  0  0  0  0  0  0  0  0  0  0
    5.1313   -5.6592    1.0048 H   0  0  0  0  0  0  0  0  0  0  0  0
    3.3679   -4.6077    1.9953 H   0  0  0  0  0  0  0  0  0  0  0  0
    5.2009   -2.9700    2.5480 H   0  0  0  0  0  0  0  0  0  0  0  0
    3.7195   -2.2144    2.5458 H   0  0  0  0  0  0  0  0  0  0  0  0
    2.2387   -5.1989   -0.1405 H   0  0  0  0  0  0  0  0  0  0  0  0
    4.3436   -5.4894   -1.2035 H   0  0  0  0  0  0  0  0  0  0  0  0
    2.2305   -4.2311   -2.7051 H   0  0  0  0  0  0  0  0  0  0  0  0
    1.4184   -2.2011   -2.2428 H   0  0  0  0  0  0  0  0  0  0  0  0
    2.3772   -0.1632    0.2860 H   0  0  0  0  0  0  0  0  0  0  0  0
  1  2  1  0
  1 21  1  0
  1 22  1  0
  1 23  1  0
  2 20  1  0
  2  3  1  0
  2 47  1  1
  3  9  1  0
  3  4  1  0
  3 24  1  1
  4  5  1  0
  4 25  1  0
  4 26  1  0
  5 13  1  0
  5  6  1  0
  5 27  1  1
  6 17  1  0
  6  7  1  0
  6 28  1  1
  7  8  1  0
  7 29  1  0
  7 30  1  0
  8  9  1  0
  8 31  1  0
  8 48  1  0
  9 10  1  0
  9 32  1  6
 10 19  1  0
 10 11  1  0
 10 33  1  1
 11 20  1  0
 11 12  1  0
 11 34  1  6
 12 13  1  0
 12 35  1  0
 12 36  1  0
 13 14  1  0
 13 37  1  6
 14 15  1  0
 14 38  1  0
 14 39  1  0
 15 19  1  0
 15 16  1  0
 15 40  1  1
 16 17  1  0
 16 18  1  0
 16 41  1  1
 17 42  1  0
 17 43  1  0
 18 19  1  0
 18 20  1  0
 18 44  1  1
 19 45  1  6
 20 46  1  6
M  CHG  2   2   1   8   1
M  END
>  <i_m_ct_stereo_status>  (205) 
1

>  <s_m_source_file>  (205) 
/var/tmp/pbs.5076255.sched01/tmpzygr1bk5/76dkit4mfj.sdf

>  <i_m_source_file_index>  (205) 
16

>  <i_lp_mmshare_version>  (205) 
48012

>  <i_f3d_flags>  (205) 
0

>  <s_epik_input>  (205) 
W0NAQEhdMTJbQ0BIXTNbQ0BASF00W0NIXTVbQ0BIXShOMVtDSDNdKVtDQEBIXTZbQ0BIXTdbQ0BASF0oW0NASF00NilbQ0gyXVtDQEBIXShbQ0gyXTUpW0NAQEhdKFtDSDJdMilbQ0BIXShbQ0gyXTcpW0NIMl1bTkhdMw==

>  <s_epik_cmdline>  (205) 
J2VwaWtfcHl0aG9uJywgJy1waHQnLCAnMi4wJywgJy1waCcsICc3LjAnLCAnLXRuJywgJzgnLCAnLW1hJywgJzIwMCcsICctaW1hZScsICc8aW5maWxlLm1hZT4nLCAnLW9tYWUnLCAnPG91dGZpbGUubWFlPic=

>  <r_epik_Ionization_Penalty>  (205) 
1.3687

>  <r_epik_Ionization_Penalty_Charging>  (205) 
1.3687

>  <r_epik_Ionization_Penalty_Neutral>  (205) 
0

>  <r_epik_State_Penalty>  (205) 
1.30334

>  <r_epik_Charging_Adjusted_Penalty>  (205) 
2.67204

>  <i_epik_Tot_Q>  (205) 
2

>  <i_epik_Tot_abs_Q>  (205) 
2

>  <s_lp_Force_Field>  (205) 
OPLS3e

>  <r_lp_Energy>  (205) 
642.021

>  <b_lp_Chiralities_Consistent>  (205) 
1

>  <s_lp_Variant>  (205) 
68:0-2

>  <s_i_glide_gridfile>  (205) 
pfpi4k_grid

>  <i_i_glide_lignum>  (205) 
16

>  <i_i_glide_rotatable_bonds>  (205) 
0

>  <r_i_docking_score>  (205) 
-3.94429

>  <r_i_glide_ligand_efficiency>  (205) 
-0.197215

>  <r_i_glide_ligand_efficiency_sa>  (205) 
-0.535323

>  <r_i_glide_ligand_efficiency_ln>  (205) 
-0.987127

>  <r_i_glide_gscore>  (205) 
-3.94429

>  <r_i_glide_lipo>  (205) 
-0.785265

>  <r_i_glide_hbond>  (205) 
-0.150622

>  <r_i_glide_metal>  (205) 
-0

>  <r_i_glide_rewards>  (205) 
-1.55163

>  <r_i_glide_evdw>  (205) 
2.9809

>  <r_i_glide_ecoul>  (205) 
-9.72998

>  <r_i_glide_erotb>  (205) 
0

>  <r_i_glide_esite>  (205) 
-0.14633

>  <r_i_glide_emodel>  (205) 
-9.39976

>  <r_i_glide_energy>  (205) 
-6.74908

>  <r_i_glide_einternal>  (205) 
0

>  <r_i_glide_intrahb_reward>  (205) 
-0

>  <i_i_glide_confnum>  (205) 
1

>  <i_i_glide_posenum>  (205) 
4

>  <r_i_glide_eff_state_penalty>  (205) 
0

>  <ligand_id>  (205) 
68

>  <original_smiles>  (205) 
CN1C2CC3C4CNC2C2C5CC3CC3C(C4)C(C32)C51

>  <smiles>  (205) 
[H]C1([H])C2([H])C([H])([H])C3([H])C4([H])C5([H])C1([H])C1([H])C([H])([H])C6([H])C2([H])C([H])([H])C([H])(C4([H])[N+]([H])([H])C6([H])[H])[N+]([H])(C([H])([H])[H])C3([H])C15[H]

$$$$
68:1:1
     RDKit          3D

 48 54  0  0  1  0  0  0  0  0999 V2000
    4.1777   -1.8348   -3.2055 C   0  0  0  0  0  0  0  0  0  0  0  0
    3.6950   -1.9388   -1.8058 N   0  0  2  0  0  0  0  0  0  0  0  0
    4.4412   -1.0219   -0.7994 C   0  0  2  0  0  0  0  0  0  0  0  0
    5.9834   -1.1779   -0.1489 C   0  0  0  0  0  0  0  0  0  0  0  0
    6.3919   -1.9194    1.3366 C   0  0  1  0  0  0  0  0  0  0  0  0
    5.2818   -1.6980    2.5612 C   0  0  1  0  0  0  0  0  0  0  0  0
    4.6723   -0.3603    2.3020 C   0  0  0  0  0  0  0  0  0  0  0  0
    3.5583   -0.5941    1.3899 N   0  0  0  0  0  0  0  0  0  0  0  0
    3.6760   -1.5610    0.2593 C   0  0  2  0  0  0  0  0  0  0  0  0
    4.3354   -3.2167    0.0370 C   0  0  2  0  0  0  0  0  0  0  0  0
    5.1099   -3.6069   -1.1724 C   0  0  2  0  0  0  0  0  0  0  0  0
    6.4011   -4.0440   -0.3001 C   0  0  0  0  0  0  0  0  0  0  0  0
    6.6927   -3.5356    1.1907 C   0  0  2  0  0  0  0  0  0  0  0  0
    5.8646   -4.5331    2.1708 C   0  0  0  0  0  0  0  0  0  0  0  0
    4.2811   -4.7845    1.9315 C   0  0  1  0  0  0  0  0  0  0  0  0
    3.1798   -3.7316    2.1082 C   0  0  1  0  0  0  0  0  0  0  0  0
    3.9502   -2.6142    3.0092 C   0  0  0  0  0  0  0  0  0  0  0  0
    2.7461   -3.8349    0.3912 C   0  0  2  0  0  0  0  0  0  0  0  0
    3.8984   -4.5633    0.5219 C   0  0  1  0  0  0  0  0  0  0  0  0
    3.5354   -3.3998   -1.2204 C   0  0  1  0  0  0  0  0  0  0  0  0
    5.2266   -2.0964   -3.2969 H   0  0  0  0  0  0  0  0  0  0  0  0
    4.0595   -0.8207   -3.5629 H   0  0  0  0  0  0  0  0  0  0  0  0
    3.6105   -2.4828   -3.8696 H   0  0  0  0  0  0  0  0  0  0  0  0
    4.2305    0.0104   -1.0311 H   0  0  0  0  0  0  0  0  0  0  0  0
    6.6802   -1.5028   -0.9184 H   0  0  0  0  0  0  0  0  0  0  0  0
    6.2807   -0.1467    0.0128 H   0  0  0  0  0  0  0  0  0  0  0  0
    7.3150   -1.4301    1.6445 H   0  0  0  0  0  0  0  0  0  0  0  0
    5.8668   -1.5977    3.4731 H   0  0  0  0  0  0  0  0  0  0  0  0
    4.2882    0.0671    3.2261 H   0  0  0  0  0  0  0  0  0  0  0  0
    5.3993    0.3568    1.9396 H   0  0  0  0  0  0  0  0  0  0  0  0
    2.7758   -0.8782    1.9556 H   0  0  0  0  0  0  0  0  0  0  0  0
    2.6147   -1.4780    0.0283 H   0  0  0  0  0  0  0  0  0  0  0  0
    4.7118   -2.9260    0.8208 H   0  0  0  0  0  0  0  0  0  0  0  0
    5.0233   -4.5404   -1.7323 H   0  0  0  0  0  0  0  0  0  0  0  0
    6.4633   -5.1337   -0.2909 H   0  0  0  0  0  0  0  0  0  0  0  0
    7.2628   -3.7450   -0.8988 H   0  0  0  0  0  0  0  0  0  0  0  0
    7.7491   -3.6978    1.3900 H   0  0  0  0  0  0  0  0  0  0  0  0
    6.3521   -5.5023    2.0729 H   0  0  0  0  0  0  0  0  0  0  0  0
    6.0594   -4.2810    3.2091 H   0  0  0  0  0  0  0  0  0  0  0  0
    3.9235   -5.7458    2.2916 H   0  0  0  0  0  0  0  0  0  0  0  0
    2.3614   -4.1856    2.6675 H   0  0  0  0  0  0  0  0  0  0  0  0
    4.2855   -3.1289    3.9092 H   0  0  0  0  0  0  0  0  0  0  0  0
    3.1914   -1.9679    3.4557 H   0  0  0  0  0  0  0  0  0  0  0  0
    1.9036   -4.5089    0.2894 H   0  0  0  0  0  0  0  0  0  0  0  0
    3.9507   -5.4523   -0.1095 H   0  0  0  0  0  0  0  0  0  0  0  0
    3.0649   -3.9768   -2.0056 H   0  0  0  0  0  0  0  0  0  0  0  0
    2.7447   -1.5918   -1.8410 H   0  0  0  0  0  0  0  0  0  0  0  0
    3.3352    0.3068    0.9986 H   0  0  0  0  0  0  0  0  0  0  0  0
  1  2  1  0
  1 21  1  0
  1 22  1  0
  1 23  1  0
  2 20  1  0
  2  3  1  0
  2 47  1  6
  3  9  1  0
  3  4  1  0
  3 24  1  6
  4  5  1  0
  4 25  1  0
  4 26  1  0
  5 13  1  0
  5  6  1  0
  5 27  1  1
  6 17  1  0
  6  7  1  0
  6 28  1  1
  7  8  1  0
  7 29  1  0
  7 30  1  0
  8  9  1  0
  8 31  1  0
  8 48  1  0
  9 10  1  0
  9 32  1  6
 10 19  1  0
 10 11  1  0
 10 33  1  1
 11 20  1  0
 11 12  1  0
 11 34  1  6
 12 13  1  0
 12 35  1  0
 12 36  1  0
 13 14  1  0
 13 37  1  1
 14 15  1  0
 14 38  1  0
 14 39  1  0
 15 19  1  0
 15 16  1  0
 15 40  1  1
 16 17  1  0
 16 18  1  0
 16 41  1  1
 17 42  1  0
 17 43  1  0
 18 19  1  0
 18 20  1  0
 18 44  1  1
 19 45  1  6
 20 46  1  6
M  CHG  2   2   1   8   1
M  END
>  <i_m_ct_stereo_status>  (206) 
1

>  <s_m_source_file>  (206) 
/var/tmp/pbs.5076255.sched01/tmpzygr1bk5/76dkit4mfj.sdf

>  <i_m_source_file_index>  (206) 
16

>  <i_lp_mmshare_version>  (206) 
48012

>  <i_f3d_flags>  (206) 
0

>  <s_epik_input>  (206) 
W0NAQEhdMTJbQ0BIXTNbQ0BASF00W0NIXTVbQ0BIXShOMVtDSDNdKVtDQEBIXTZbQ0BIXTdbQ0BASF0oW0NASF00NilbQ0gyXVtDQEBIXShbQ0gyXTUpW0NAQEhdKFtDSDJdMilbQ0BIXShbQ0gyXTcpW0NIMl1bTkhdMw==

>  <s_epik_cmdline>  (206) 
J2VwaWtfcHl0aG9uJywgJy1waHQnLCAnMi4wJywgJy1waCcsICc3LjAnLCAnLXRuJywgJzgnLCAnLW1hJywgJzIwMCcsICctaW1hZScsICc8aW5maWxlLm1hZT4nLCAnLW9tYWUnLCAnPG91dGZpbGUubWFlPic=

>  <r_epik_Ionization_Penalty>  (206) 
1.3687

>  <r_epik_Ionization_Penalty_Charging>  (206) 
1.3687

>  <r_epik_Ionization_Penalty_Neutral>  (206) 
0

>  <r_epik_State_Penalty>  (206) 
1.30334

>  <r_epik_Charging_Adjusted_Penalty>  (206) 
2.67204

>  <i_epik_Tot_Q>  (206) 
2

>  <i_epik_Tot_abs_Q>  (206) 
2

>  <s_lp_Force_Field>  (206) 
OPLS3e

>  <r_lp_Energy>  (206) 
642.021

>  <b_lp_Chiralities_Consistent>  (206) 
1

>  <s_lp_Variant>  (206) 
68:0-2

>  <s_i_glide_gridfile>  (206) 
pfpi4k_grid

>  <i_i_glide_lignum>  (206) 
16

>  <i_i_glide_rotatable_bonds>  (206) 
0

>  <r_i_docking_score>  (206) 
-3.84959

>  <r_i_glide_ligand_efficiency>  (206) 
-0.192479

>  <r_i_glide_ligand_efficiency_sa>  (206) 
-0.522469

>  <r_i_glide_ligand_efficiency_ln>  (206) 
-0.963424

>  <r_i_glide_gscore>  (206) 
-3.84959

>  <r_i_glide_lipo>  (206) 
-0.732478

>  <r_i_glide_hbond>  (206) 
-0.051399

>  <r_i_glide_metal>  (206) 
-0

>  <r_i_glide_rewards>  (206) 
-1.55163

>  <r_i_glide_evdw>  (206) 
-13.3068

>  <r_i_glide_ecoul>  (206) 
-5.24084

>  <r_i_glide_erotb>  (206) 
0

>  <r_i_glide_esite>  (206) 
-0.0626188

>  <r_i_glide_emodel>  (206) 
-23.9269

>  <r_i_glide_energy>  (206) 
-18.5476

>  <r_i_glide_einternal>  (206) 
0

>  <r_i_glide_intrahb_reward>  (206) 
-0

>  <i_i_glide_confnum>  (206) 
1

>  <i_i_glide_posenum>  (206) 
27

>  <r_i_glide_eff_state_penalty>  (206) 
0

>  <ligand_id>  (206) 
68

>  <original_smiles>  (206) 
CN1C2CC3C4CNC2C2C5CC3CC3C(C4)C(C32)C51

>  <smiles>  (206) 
[H]C1([H])C2([H])C([H])([H])C3([H])C4([H])C5([H])C1([H])C1([H])C([H])([H])C6([H])C2([H])C([H])([H])C([H])(C4([H])[N+]([H])([H])C6([H])[H])[N+]([H])(C([H])([H])[H])C3([H])C15[H]

$$$$
68:1:2
     RDKit          3D

 48 54  0  0  1  0  0  0  0  0999 V2000
    4.0575   -1.4306   -4.0469 C   0  0  0  0  0  0  0  0  0  0  0  0
    3.5478   -1.4122   -2.6526 N   0  0  2  0  0  0  0  0  0  0  0  0
    4.5714   -0.8830   -1.6100 C   0  0  2  0  0  0  0  0  0  0  0  0
    5.9503   -1.6141   -0.9522 C   0  0  0  0  0  0  0  0  0  0  0  0
    6.0453   -2.5151    0.5011 C   0  0  1  0  0  0  0  0  0  0  0  0
    5.0935   -1.9308    1.7321 C   0  0  1  0  0  0  0  0  0  0  0  0
    5.0283   -0.4517    1.5252 C   0  0  0  0  0  0  0  0  0  0  0  0
    3.9092   -0.2167    0.6071 N   0  0  0  0  0  0  0  0  0  0  0  0
    3.6318   -1.1193   -0.5653 C   0  0  2  0  0  0  0  0  0  0  0  0
    3.6576   -2.9011   -0.8497 C   0  0  2  0  0  0  0  0  0  0  0  0
    4.2654   -3.4862   -2.0731 C   0  0  2  0  0  0  0  0  0  0  0  0
    5.2617   -4.3990   -1.2198 C   0  0  0  0  0  0  0  0  0  0  0  0
    5.7033   -4.1075    0.2889 C   0  0  2  0  0  0  0  0  0  0  0  0
    4.5620   -4.7635    1.2430 C   0  0  0  0  0  0  0  0  0  0  0  0
    3.0117   -4.4105    1.0052 C   0  0  1  0  0  0  0  0  0  0  0  0
    2.3934   -3.0302    1.2153 C   0  0  1  0  0  0  0  0  0  0  0  0
    3.5084   -2.2945    2.1416 C   0  0  0  0  0  0  0  0  0  0  0  0
    2.0110   -2.9660   -0.5188 C   0  0  2  0  0  0  0  0  0  0  0  0
    2.7838   -4.0450   -0.4032 C   0  0  1  0  0  0  0  0  0  0  0  0
    2.8786   -2.7581   -2.1154 C   0  0  1  0  0  0  0  0  0  0  0  0
    4.9406   -2.0572   -4.1335 H   0  0  0  0  0  0  0  0  0  0  0  0
    4.3283   -0.4250   -4.3622 H   0  0  0  0  0  0  0  0  0  0  0  0
    3.2906   -1.7974   -4.7262 H   0  0  0  0  0  0  0  0  0  0  0  0
    4.7476    0.1406   -1.8557 H   0  0  0  0  0  0  0  0  0  0  0  0
    6.5208   -2.0991   -1.7466 H   0  0  0  0  0  0  0  0  0  0  0  0
    6.5714   -0.7590   -0.7163 H   0  0  0  0  0  0  0  0  0  0  0  0
    7.0831   -2.4449    0.8295 H   0  0  0  0  0  0  0  0  0  0  0  0
    5.6713   -2.0963    2.6374 H   0  0  0  0  0  0  0  0  0  0  0  0
    4.7987    0.0662    2.4548 H   0  0  0  0  0  0  0  0  0  0  0  0
    5.9632   -0.0102    1.1883 H   0  0  0  0  0  0  0  0  0  0  0  0
    3.0637   -0.1937    1.1651 H   0  0  0  0  0  0  0  0  0  0  0  0
    2.6527   -0.6584   -0.7928 H   0  0  0  0  0  0  0  0  0  0  0  0
    4.1114   -2.7571   -0.0608 H   0  0  0  0  0  0  0  0  0  0  0  0
    3.8634   -4.2519   -2.7361 H   0  0  0  0  0  0  0  0  0  0  0  0
    4.9511   -5.4434   -1.3017 H   0  0  0  0  0  0  0  0  0  0  0  0
    6.1632   -4.2505   -1.8051 H   0  0  0  0  0  0  0  0  0  0  0  0
    6.6222   -4.6623    0.4707 H   0  0  0  0  0  0  0  0  0  0  0  0
    4.6492   -5.8408    1.0949 H   0  0  0  0  0  0  0  0  0  0  0  0
    4.8351   -4.6303    2.2887 H   0  0  0  0  0  0  0  0  0  0  0  0
    2.3138   -5.1785    1.3330 H   0  0  0  0  0  0  0  0  0  0  0  0
    1.4587   -3.1156    1.7656 H   0  0  0  0  0  0  0  0  0  0  0  0
    3.6025   -2.9162    3.0291 H   0  0  0  0  0  0  0  0  0  0  0  0
    3.0243   -1.4249    2.5979 H   0  0  0  0  0  0  0  0  0  0  0  0
    1.0117   -3.2258   -0.7346 H   0  0  0  0  0  0  0  0  0  0  0  0
    2.4479   -4.8298   -1.0749 H   0  0  0  0  0  0  0  0  0  0  0  0
    2.2197   -3.1022   -2.9221 H   0  0  0  0  0  0  0  0  0  0  0  0
    2.7887   -0.7418   -2.6694 H   0  0  0  0  0  0  0  0  0  0  0  0
    4.0638    0.7102    0.2353 H   0  0  0  0  0  0  0  0  0  0  0  0
  1  2  1  0
  1 21  1  0
  1 22  1  0
  1 23  1  0
  2 20  1  0
  2  3  1  0
  2 47  1  6
  3  9  1  0
  3  4  1  0
  3 24  1  6
  4  5  1  0
  4 25  1  0
  4 26  1  0
  5 13  1  0
  5  6  1  0
  5 27  1  1
  6 17  1  0
  6  7  1  0
  6 28  1  1
  7  8  1  0
  7 29  1  0
  7 30  1  0
  8  9  1  0
  8 31  1  0
  8 48  1  0
  9 10  1  0
  9 32  1  6
 10 19  1  0
 10 11  1  0
 10 33  1  1
 11 20  1  0
 11 12  1  0
 11 34  1  6
 12 13  1  0
 12 35  1  0
 12 36  1  0
 13 14  1  0
 13 37  1  1
 14 15  1  0
 14 38  1  0
 14 39  1  0
 15 19  1  0
 15 16  1  0
 15 40  1  1
 16 17  1  0
 16 18  1  0
 16 41  1  1
 17 42  1  0
 17 43  1  0
 18 19  1  0
 18 20  1  0
 18 44  1  1
 19 45  1  6
 20 46  1  6
M  CHG  2   2   1   8   1
M  END
>  <i_m_ct_stereo_status>  (207) 
1

>  <s_m_source_file>  (207) 
/var/tmp/pbs.5076255.sched01/tmpzygr1bk5/76dkit4mfj.sdf

>  <i_m_source_file_index>  (207) 
16

>  <i_lp_mmshare_version>  (207) 
48012

>  <i_f3d_flags>  (207) 
0

>  <s_epik_input>  (207) 
W0NAQEhdMTJbQ0BIXTNbQ0BASF00W0NIXTVbQ0BIXShOMVtDSDNdKVtDQEBIXTZbQ0BIXTdbQ0BASF0oW0NASF00NilbQ0gyXVtDQEBIXShbQ0gyXTUpW0NAQEhdKFtDSDJdMilbQ0BIXShbQ0gyXTcpW0NIMl1bTkhdMw==

>  <s_epik_cmdline>  (207) 
J2VwaWtfcHl0aG9uJywgJy1waHQnLCAnMi4wJywgJy1waCcsICc3LjAnLCAnLXRuJywgJzgnLCAnLW1hJywgJzIwMCcsICctaW1hZScsICc8aW5maWxlLm1hZT4nLCAnLW9tYWUnLCAnPG91dGZpbGUubWFlPic=

>  <r_epik_Ionization_Penalty>  (207) 
1.3687

>  <r_epik_Ionization_Penalty_Charging>  (207) 
1.3687

>  <r_epik_Ionization_Penalty_Neutral>  (207) 
0

>  <r_epik_State_Penalty>  (207) 
1.30334

>  <r_epik_Charging_Adjusted_Penalty>  (207) 
2.67204

>  <i_epik_Tot_Q>  (207) 
2

>  <i_epik_Tot_abs_Q>  (207) 
2

>  <s_lp_Force_Field>  (207) 
OPLS3e

>  <r_lp_Energy>  (207) 
642.021

>  <b_lp_Chiralities_Consistent>  (207) 
1

>  <s_lp_Variant>  (207) 
68:0-2

>  <s_i_glide_gridfile>  (207) 
pfpi4k_grid

>  <i_i_glide_lignum>  (207) 
16

>  <i_i_glide_rotatable_bonds>  (207) 
0

>  <r_i_docking_score>  (207) 
-2.89697

>  <r_i_glide_ligand_efficiency>  (207) 
-0.144848

>  <r_i_glide_ligand_efficiency_sa>  (207) 
-0.393179

>  <r_i_glide_ligand_efficiency_ln>  (207) 
-0.725016

>  <r_i_glide_gscore>  (207) 
-2.89697

>  <r_i_glide_lipo>  (207) 
-0.414689

>  <r_i_glide_hbond>  (207) 
0

>  <r_i_glide_metal>  (207) 
-0

>  <r_i_glide_rewards>  (207) 
-1.55163

>  <r_i_glide_evdw>  (207) 
-4.21374

>  <r_i_glide_ecoul>  (207) 
-4.45163

>  <r_i_glide_erotb>  (207) 
0

>  <r_i_glide_esite>  (207) 
-0.0522245

>  <r_i_glide_emodel>  (207) 
-11.5187

>  <r_i_glide_energy>  (207) 
-8.66537

>  <r_i_glide_einternal>  (207) 
0

>  <r_i_glide_intrahb_reward>  (207) 
-0

>  <i_i_glide_confnum>  (207) 
2

>  <i_i_glide_posenum>  (207) 
26

>  <r_i_glide_eff_state_penalty>  (207) 
0

>  <ligand_id>  (207) 
68

>  <original_smiles>  (207) 
CN1C2CC3C4CNC2C2C5CC3CC3C(C4)C(C32)C51

>  <smiles>  (207) 
[H]C1([H])C2([H])C([H])([H])C3([H])C4([H])C5([H])C1([H])C1([H])C([H])([H])C6([H])C2([H])C([H])([H])C([H])(C4([H])[N+]([H])([H])C6([H])[H])[N+]([H])(C([H])([H])[H])C3([H])C15[H]

$$$$
68:2:0
     RDKit          3D

 47 53  0  0  1  0  0  0  0  0999 V2000
    3.2238   -1.1274   -2.8081 C   0  0  0  0  0  0  0  0  0  0  0  0
    3.0805   -1.8724   -1.5455 N   0  0  2  0  0  0  0  0  0  0  0  0
    3.6149   -1.1391   -0.2811 C   0  0  2  0  0  0  0  0  0  0  0  0
    5.1940   -0.8059    0.2098 C   0  0  0  0  0  0  0  0  0  0  0  0
    6.1275   -1.7573    1.2798 C   0  0  1  0  0  0  0  0  0  0  0  0
    5.2462   -2.4321    2.5198 C   0  0  1  0  0  0  0  0  0  0  0  0
    4.1051   -1.4811    2.7904 C   0  0  0  0  0  0  0  0  0  0  0  0
    3.0385   -1.9157    1.9079 N   0  0  0  0  0  0  0  0  0  0  0  0
    3.3331   -2.2873    0.5083 C   0  0  2  0  0  0  0  0  0  0  0  0
    4.5159   -3.3227   -0.3643 C   0  0  2  0  0  0  0  0  0  0  0  0
    5.1248   -2.8979   -1.6566 C   0  0  2  0  0  0  0  0  0  0  0  0
    6.6287   -2.9809   -1.0541 C   0  0  0  0  0  0  0  0  0  0  0  0
    6.9824   -2.9320    0.5060 C   0  0  2  0  0  0  0  0  0  0  0  0
    6.8172   -4.4596    1.0408 C   0  0  0  0  0  0  0  0  0  0  0  0
    5.4464   -5.2728    0.7893 C   0  0  1  0  0  0  0  0  0  0  0  0
    4.0889   -4.9168    1.4152 C   0  0  1  0  0  0  0  0  0  0  0  0
    4.5415   -3.9434    2.6393 C   0  0  0  0  0  0  0  0  0  0  0  0
    3.3899   -4.6199   -0.1944 C   0  0  2  0  0  0  0  0  0  0  0  0
    4.7292   -4.8005   -0.4170 C   0  0  1  0  0  0  0  0  0  0  0  0
    3.6111   -3.3868   -1.5576 C   0  0  1  0  0  0  0  0  0  0  0  0
    4.2586   -0.8513   -3.0401 H   0  0  0  0  0  0  0  0  0  0  0  0
    2.6430   -0.1996   -2.7534 H   0  0  0  0  0  0  0  0  0  0  0  0
    2.8209   -1.6921   -3.6581 H   0  0  0  0  0  0  0  0  0  0  0  0
    2.9604   -0.2970   -0.0364 H   0  0  0  0  0  0  0  0  0  0  0  0
    5.7947   -0.4924   -0.6434 H   0  0  0  0  0  0  0  0  0  0  0  0
    5.0929    0.1441    0.7407 H   0  0  0  0  0  0  0  0  0  0  0  0
    6.8545   -1.0796    1.7322 H   0  0  0  0  0  0  0  0  0  0  0  0
    5.8904   -2.3609    3.3930 H   0  0  0  0  0  0  0  0  0  0  0  0
    3.7530   -1.5953    3.8187 H   0  0  0  0  0  0  0  0  0  0  0  0
    4.3729   -0.4312    2.6688 H   0  0  0  0  0  0  0  0  0  0  0  0
    2.2931   -1.2293    1.9345 H   0  0  0  0  0  0  0  0  0  0  0  0
    2.2951   -2.6046    0.3337 H   0  0  0  0  0  0  0  0  0  0  0  0
    4.8879   -3.1512    0.4525 H   0  0  0  0  0  0  0  0  0  0  0  0
    5.3067   -3.5283   -2.5301 H   0  0  0  0  0  0  0  0  0  0  0  0
    7.1245   -3.8497   -1.4770 H   0  0  0  0  0  0  0  0  0  0  0  0
    7.1765   -2.1689   -1.5296 H   0  0  0  0  0  0  0  0  0  0  0  0
    8.0415   -2.6802    0.5978 H   0  0  0  0  0  0  0  0  0  0  0  0
    7.6078   -5.0259    0.5502 H   0  0  0  0  0  0  0  0  0  0  0  0
    7.1156   -4.5105    2.0834 H   0  0  0  0  0  0  0  0  0  0  0  0
    5.5713   -6.3573    0.7770 H   0  0  0  0  0  0  0  0  0  0  0  0
    3.6244   -5.8295    1.8038 H   0  0  0  0  0  0  0  0  0  0  0  0
    5.2448   -4.5236    3.2377 H   0  0  0  0  0  0  0  0  0  0  0  0
    3.7135   -3.8956    3.3476 H   0  0  0  0  0  0  0  0  0  0  0  0
    2.7953   -5.4900   -0.4691 H   0  0  0  0  0  0  0  0  0  0  0  0
    4.9906   -5.3162   -1.3485 H   0  0  0  0  0  0  0  0  0  0  0  0
    3.2710   -3.8345   -2.4965 H   0  0  0  0  0  0  0  0  0  0  0  0
    2.0875   -1.8968   -1.3894 H   0  0  0  0  0  0  0  0  0  0  0  0
  1  2  1  0
  1 21  1  0
  1 22  1  0
  1 23  1  0
  2 20  1  0
  2  3  1  0
  2 47  1  1
  3  9  1  0
  3  4  1  0
  3 24  1  1
  4  5  1  0
  4 25  1  0
  4 26  1  0
  5 13  1  0
  5  6  1  0
  5 27  1  1
  6 17  1  0
  6  7  1  0
  6 28  1  1
  7  8  1  0
  7 29  1  0
  7 30  1  0
  8  9  1  0
  8 31  1  0
  9 10  1  0
  9 32  1  6
 10 19  1  0
 10 11  1  0
 10 33  1  1
 11 20  1  0
 11 12  1  0
 11 34  1  1
 12 13  1  0
 12 35  1  0
 12 36  1  0
 13 14  1  0
 13 37  1  6
 14 15  1  0
 14 38  1  0
 14 39  1  0
 15 19  1  0
 15 16  1  0
 15 40  1  6
 16 17  1  0
 16 18  1  0
 16 41  1  1
 17 42  1  0
 17 43  1  0
 18 19  1  0
 18 20  1  0
 18 44  1  6
 19 45  1  6
 20 46  1  6
M  CHG  1   2   1
M  END
>  <i_m_ct_stereo_status>  (208) 
1

>  <s_m_source_file>  (208) 
/var/tmp/pbs.5076255.sched01/tmpzygr1bk5/76dkit4mfj.sdf

>  <i_m_source_file_index>  (208) 
17

>  <i_lp_mmshare_version>  (208) 
48012

>  <i_f3d_flags>  (208) 
0

>  <s_epik_input>  (208) 
W0NAQEhdMTJbQ0BIXTNbQ0BASF00W0NIXTVbQ0BIXShOMVtDSDNdKVtDQEBIXTZbQ0BIXTdbQ0BASF0oW0NASF00NilbQ0gyXVtDQEBIXShbQ0gyXTUpW0NAQEhdKFtDSDJdMilbQ0BIXShbQ0gyXTcpW0NIMl1bTkhdMw==

>  <s_epik_cmdline>  (208) 
J2VwaWtfcHl0aG9uJywgJy1waHQnLCAnMi4wJywgJy1waCcsICc3LjAnLCAnLXRuJywgJzgnLCAnLW1hJywgJzIwMCcsICctaW1hZScsICc8aW5maWxlLm1hZT4nLCAnLW9tYWUnLCAnPG91dGZpbGUubWFlPic=

>  <r_epik_Ionization_Penalty>  (208) 
0.887593

>  <r_epik_Ionization_Penalty_Charging>  (208) 
0.000711852

>  <r_epik_Ionization_Penalty_Neutral>  (208) 
0.886881

>  <r_epik_State_Penalty>  (208) 
2.08952

>  <r_epik_Charging_Adjusted_Penalty>  (208) 
2.09023

>  <i_epik_Tot_Q>  (208) 
1

>  <i_epik_Tot_abs_Q>  (208) 
1

>  <s_lp_Force_Field>  (208) 
OPLS3e

>  <r_lp_Energy>  (208) 
628.079

>  <b_lp_Chiralities_Consistent>  (208) 
1

>  <s_lp_Variant>  (208) 
68:0-3

>  <s_i_glide_gridfile>  (208) 
pfpi4k_grid

>  <i_i_glide_lignum>  (208) 
17

>  <i_i_glide_rotatable_bonds>  (208) 
0

>  <r_i_docking_score>  (208) 
-4.23733

>  <r_i_glide_ligand_efficiency>  (208) 
-0.211867

>  <r_i_glide_ligand_efficiency_sa>  (208) 
-0.575094

>  <r_i_glide_ligand_efficiency_ln>  (208) 
-1.06046

>  <r_i_glide_gscore>  (208) 
-4.23733

>  <r_i_glide_lipo>  (208) 
-0.779439

>  <r_i_glide_hbond>  (208) 
-0.182029

>  <r_i_glide_metal>  (208) 
-0

>  <r_i_glide_rewards>  (208) 
-1.5585

>  <r_i_glide_evdw>  (208) 
-15.7987

>  <r_i_glide_ecoul>  (208) 
-5.5254

>  <r_i_glide_erotb>  (208) 
0

>  <r_i_glide_esite>  (208) 
-0.0986191

>  <r_i_glide_emodel>  (208) 
-28.1225

>  <r_i_glide_energy>  (208) 
-21.3241

>  <r_i_glide_einternal>  (208) 
0

>  <r_i_glide_intrahb_reward>  (208) 
-0

>  <i_i_glide_confnum>  (208) 
1

>  <i_i_glide_posenum>  (208) 
13

>  <r_i_glide_eff_state_penalty>  (208) 
0

>  <ligand_id>  (208) 
68

>  <original_smiles>  (208) 
CN1C2CC3C4CNC2C2C5CC3CC3C(C4)C(C32)C51

>  <smiles>  (208) 
[H]N1C([H])([H])C2([H])C([H])([H])C3([H])C4([H])C([H])([H])C5([H])C([H])([H])C6([H])C7([H])C1([H])C([H])(C([H])([H])C25[H])[N+]([H])(C([H])([H])[H])C6([H])C3([H])C47[H]

$$$$
68:2:1
     RDKit          3D

 47 53  0  0  1  0  0  0  0  0999 V2000
    3.4038   -2.1108   -2.7361 C   0  0  0  0  0  0  0  0  0  0  0  0
    3.0898   -2.2445   -1.2898 N   0  0  2  0  0  0  0  0  0  0  0  0
    3.8658   -1.2748   -0.3555 C   0  0  2  0  0  0  0  0  0  0  0  0
    5.4805   -1.2779    0.0900 C   0  0  0  0  0  0  0  0  0  0  0  0
    6.1106   -1.9670    1.5188 C   0  0  1  0  0  0  0  0  0  0  0  0
    5.1136   -1.8232    2.8434 C   0  0  1  0  0  0  0  0  0  0  0  0
    4.3323   -0.5496    2.6357 C   0  0  0  0  0  0  0  0  0  0  0  0
    3.1615   -0.9465    1.8851 N   0  0  0  0  0  0  0  0  0  0  0  0
    3.2785   -1.9043    0.7725 C   0  0  2  0  0  0  0  0  0  0  0  0
    4.0532   -3.4899    0.4379 C   0  0  2  0  0  0  0  0  0  0  0  0
    4.7126   -3.7931   -0.8557 C   0  0  2  0  0  0  0  0  0  0  0  0
    6.1319   -4.0888   -0.1289 C   0  0  0  0  0  0  0  0  0  0  0  0
    6.5391   -3.5488    1.3273 C   0  0  2  0  0  0  0  0  0  0  0  0
    5.9252   -4.6257    2.3782 C   0  0  0  0  0  0  0  0  0  0  0  0
    4.3600   -5.0258    2.3212 C   0  0  1  0  0  0  0  0  0  0  0  0
    3.1996   -4.0737    2.6416 C   0  0  1  0  0  0  0  0  0  0  0  0
    3.9717   -2.8866    3.4545 C   0  0  0  0  0  0  0  0  0  0  0  0
    2.5801   -4.2255    0.9796 C   0  0  2  0  0  0  0  0  0  0  0  0
    3.7962   -4.8618    0.9675 C   0  0  1  0  0  0  0  0  0  0  0  0
    3.1252   -3.7162   -0.7104 C   0  0  1  0  0  0  0  0  0  0  0  0
    4.4564   -2.2795   -2.9623 H   0  0  0  0  0  0  0  0  0  0  0  0
    3.1560   -1.1164   -3.0882 H   0  0  0  0  0  0  0  0  0  0  0  0
    2.8261   -2.8149   -3.3396 H   0  0  0  0  0  0  0  0  0  0  0  0
    3.5455   -0.2594   -0.5208 H   0  0  0  0  0  0  0  0  0  0  0  0
    6.1244   -1.5129   -0.7590 H   0  0  0  0  0  0  0  0  0  0  0  0
    5.6970   -0.2193    0.2184 H   0  0  0  0  0  0  0  0  0  0  0  0
    7.0176   -1.4046    1.7386 H   0  0  0  0  0  0  0  0  0  0  0  0
    5.7931   -1.6286    3.6700 H   0  0  0  0  0  0  0  0  0  0  0  0
    3.9921   -0.1494    3.5956 H   0  0  0  0  0  0  0  0  0  0  0  0
    4.9105    0.2411    2.1499 H   0  0  0  0  0  0  0  0  0  0  0  0
    2.6419   -0.1285    1.6043 H   0  0  0  0  0  0  0  0  0  0  0  0
    2.1881   -1.9371    0.6391 H   0  0  0  0  0  0  0  0  0  0  0  0
    4.4834   -3.1344    1.1745 H   0  0  0  0  0  0  0  0  0  0  0  0
    4.6525   -4.7297   -1.4063 H   0  0  0  0  0  0  0  0  0  0  0  0
    6.3018   -5.1681   -0.1333 H   0  0  0  0  0  0  0  0  0  0  0  0
    6.8903   -3.7105   -0.8154 H   0  0  0  0  0  0  0  0  0  0  0  0
    7.6215   -3.6070    1.4070 H   0  0  0  0  0  0  0  0  0  0  0  0
    6.4869   -5.5434    2.2114 H   0  0  0  0  0  0  0  0  0  0  0  0
    6.2055   -4.3618    3.3955 H   0  0  0  0  0  0  0  0  0  0  0  0
    4.1347   -6.0119    2.7217 H   0  0  0  0  0  0  0  0  0  0  0  0
    2.4961   -4.5910    3.2882 H   0  0  0  0  0  0  0  0  0  0  0  0
    4.4805   -3.3720    4.2870 H   0  0  0  0  0  0  0  0  0  0  0  0
    3.2239   -2.3211    4.0168 H   0  0  0  0  0  0  0  0  0  0  0  0
    1.7920   -4.9706    0.9898 H   0  0  0  0  0  0  0  0  0  0  0  0
    3.8428   -5.7386    0.3282 H   0  0  0  0  0  0  0  0  0  0  0  0
    2.5939   -4.3028   -1.4458 H   0  0  0  0  0  0  0  0  0  0  0  0
    2.1269   -1.9311   -1.2027 H   0  0  0  0  0  0  0  0  0  0  0  0
  1  2  1  0
  1 21  1  0
  1 22  1  0
  1 23  1  0
  2 20  1  0
  2  3  1  0
  2 47  1  6
  3  9  1  0
  3  4  1  0
  3 24  1  6
  4  5  1  0
  4 25  1  0
  4 26  1  0
  5 13  1  0
  5  6  1  0
  5 27  1  1
  6 17  1  0
  6  7  1  0
  6 28  1  1
  7  8  1  0
  7 29  1  0
  7 30  1  0
  8  9  1  0
  8 31  1  0
  9 10  1  0
  9 32  1  6
 10 19  1  0
 10 11  1  0
 10 33  1  1
 11 20  1  0
 11 12  1  0
 11 34  1  6
 12 13  1  0
 12 35  1  0
 12 36  1  0
 13 14  1  0
 13 37  1  6
 14 15  1  0
 14 38  1  0
 14 39  1  0
 15 19  1  0
 15 16  1  0
 15 40  1  1
 16 17  1  0
 16 18  1  0
 16 41  1  1
 17 42  1  0
 17 43  1  0
 18 19  1  0
 18 20  1  0
 18 44  1  1
 19 45  1  6
 20 46  1  6
M  CHG  1   2   1
M  END
>  <i_m_ct_stereo_status>  (209) 
1

>  <s_m_source_file>  (209) 
/var/tmp/pbs.5076255.sched01/tmpzygr1bk5/76dkit4mfj.sdf

>  <i_m_source_file_index>  (209) 
17

>  <i_lp_mmshare_version>  (209) 
48012

>  <i_f3d_flags>  (209) 
0

>  <s_epik_input>  (209) 
W0NAQEhdMTJbQ0BIXTNbQ0BASF00W0NIXTVbQ0BIXShOMVtDSDNdKVtDQEBIXTZbQ0BIXTdbQ0BASF0oW0NASF00NilbQ0gyXVtDQEBIXShbQ0gyXTUpW0NAQEhdKFtDSDJdMilbQ0BIXShbQ0gyXTcpW0NIMl1bTkhdMw==

>  <s_epik_cmdline>  (209) 
J2VwaWtfcHl0aG9uJywgJy1waHQnLCAnMi4wJywgJy1waCcsICc3LjAnLCAnLXRuJywgJzgnLCAnLW1hJywgJzIwMCcsICctaW1hZScsICc8aW5maWxlLm1hZT4nLCAnLW9tYWUnLCAnPG91dGZpbGUubWFlPic=

>  <r_epik_Ionization_Penalty>  (209) 
0.887593

>  <r_epik_Ionization_Penalty_Charging>  (209) 
0.000711852

>  <r_epik_Ionization_Penalty_Neutral>  (209) 
0.886881

>  <r_epik_State_Penalty>  (209) 
2.08952

>  <r_epik_Charging_Adjusted_Penalty>  (209) 
2.09023

>  <i_epik_Tot_Q>  (209) 
1

>  <i_epik_Tot_abs_Q>  (209) 
1

>  <s_lp_Force_Field>  (209) 
OPLS3e

>  <r_lp_Energy>  (209) 
628.079

>  <b_lp_Chiralities_Consistent>  (209) 
1

>  <s_lp_Variant>  (209) 
68:0-3

>  <s_i_glide_gridfile>  (209) 
pfpi4k_grid

>  <i_i_glide_lignum>  (209) 
17

>  <i_i_glide_rotatable_bonds>  (209) 
0

>  <r_i_docking_score>  (209) 
-3.76989

>  <r_i_glide_ligand_efficiency>  (209) 
-0.188494

>  <r_i_glide_ligand_efficiency_sa>  (209) 
-0.511652

>  <r_i_glide_ligand_efficiency_ln>  (209) 
-0.943478

>  <r_i_glide_gscore>  (209) 
-3.76989

>  <r_i_glide_lipo>  (209) 
-0.504528

>  <r_i_glide_hbond>  (209) 
-0.2

>  <r_i_glide_metal>  (209) 
-0

>  <r_i_glide_rewards>  (209) 
-1.5585

>  <r_i_glide_evdw>  (209) 
-12.9826

>  <r_i_glide_ecoul>  (209) 
-5.18094

>  <r_i_glide_erotb>  (209) 
0

>  <r_i_glide_esite>  (209) 
-0.0805903

>  <r_i_glide_emodel>  (209) 
-24.2322

>  <r_i_glide_energy>  (209) 
-18.1635

>  <r_i_glide_einternal>  (209) 
0

>  <r_i_glide_intrahb_reward>  (209) 
-0

>  <i_i_glide_confnum>  (209) 
1

>  <i_i_glide_posenum>  (209) 
10

>  <r_i_glide_eff_state_penalty>  (209) 
0

>  <ligand_id>  (209) 
68

>  <original_smiles>  (209) 
CN1C2CC3C4CNC2C2C5CC3CC3C(C4)C(C32)C51

>  <smiles>  (209) 
[H]N1C([H])([H])C2([H])C([H])([H])C3([H])C4([H])C([H])([H])C5([H])C([H])([H])C6([H])C7([H])C1([H])C([H])(C([H])([H])C25[H])[N+]([H])(C([H])([H])[H])C6([H])C3([H])C47[H]

$$$$
68:2:2
     RDKit          3D

 47 53  0  0  1  0  0  0  0  0999 V2000
    4.5640   -1.8935   -3.4267 C   0  0  0  0  0  0  0  0  0  0  0  0
    3.8850   -1.8781   -2.1115 N   0  0  2  0  0  0  0  0  0  0  0  0
    4.5829   -1.0275   -1.0175 C   0  0  2  0  0  0  0  0  0  0  0  0
    5.9901   -1.3369   -0.1589 C   0  0  0  0  0  0  0  0  0  0  0  0
    6.0782   -2.0633    1.3828 C   0  0  1  0  0  0  0  0  0  0  0  0
    4.8368   -1.6460    2.4072 C   0  0  1  0  0  0  0  0  0  0  0  0
    4.4310   -0.2533    2.0055 C   0  0  0  0  0  0  0  0  0  0  0  0
    3.4400   -0.4443    0.9764 N   0  0  0  0  0  0  0  0  0  0  0  0
    3.6207   -1.4637   -0.0753 C   0  0  2  0  0  0  0  0  0  0  0  0
    4.0923   -3.1909   -0.1890 C   0  0  2  0  0  0  0  0  0  0  0  0
    4.9774   -3.6948   -1.2689 C   0  0  2  0  0  0  0  0  0  0  0  0
    6.0680   -4.2335   -0.1979 C   0  0  0  0  0  0  0  0  0  0  0  0
    6.1968   -3.7057    1.3109 C   0  0  2  0  0  0  0  0  0  0  0  0
    5.1292   -4.5711    2.1742 C   0  0  0  0  0  0  0  0  0  0  0  0
    3.5801   -4.6415    1.7137 C   0  0  1  0  0  0  0  0  0  0  0  0
    2.6041   -3.4567    1.7101 C   0  0  1  0  0  0  0  0  0  0  0  0
    3.3792   -2.4128    2.6997 C   0  0  0  0  0  0  0  0  0  0  0  0
    2.4104   -3.5754   -0.0609 C   0  0  2  0  0  0  0  0  0  0  0  0
    3.4230   -4.4440    0.2587 C   0  0  1  0  0  0  0  0  0  0  0  0
    3.4655   -3.2906   -1.5415 C   0  0  1  0  0  0  0  0  0  0  0  0
    5.5701   -2.2938   -3.3652 H   0  0  0  0  0  0  0  0  0  0  0  0
    4.6218   -0.8936   -3.8383 H   0  0  0  0  0  0  0  0  0  0  0  0
    4.0268   -2.4959   -4.1574 H   0  0  0  0  0  0  0  0  0  0  0  0
    4.5263    0.0133   -1.3119 H   0  0  0  0  0  0  0  0  0  0  0  0
    6.7640   -1.7515   -0.8058 H   0  0  0  0  0  0  0  0  0  0  0  0
    6.3854   -0.3422    0.0309 H   0  0  0  0  0  0  0  0  0  0  0  0
    6.9980   -1.6884    1.8250 H   0  0  0  0  0  0  0  0  0  0  0  0
    5.3117   -1.5483    3.3790 H   0  0  0  0  0  0  0  0  0  0  0  0
    3.9430    0.2647    2.8375 H   0  0  0  0  0  0  0  0  0  0  0  0
    5.2644    0.3697    1.6764 H   0  0  0  0  0  0  0  0  0  0  0  0
    3.1711    0.4418    0.5859 H   0  0  0  0  0  0  0  0  0  0  0  0
    2.6194   -1.2827   -0.4806 H   0  0  0  0  0  0  0  0  0  0  0  0
    4.3808   -2.8920    0.6276 H   0  0  0  0  0  0  0  0  0  0  0  0
    4.8578   -4.6296   -1.8111 H   0  0  0  0  0  0  0  0  0  0  0  0
    6.0058   -5.3227   -0.1623 H   0  0  0  0  0  0  0  0  0  0  0  0
    7.0340   -4.0473   -0.6643 H   0  0  0  0  0  0  0  0  0  0  0  0
    7.1848   -3.9775    1.6709 H   0  0  0  0  0  0  0  0  0  0  0  0
    5.5043   -5.5930    2.1530 H   0  0  0  0  0  0  0  0  0  0  0  0
    5.2159   -4.3149    3.2267 H   0  0  0  0  0  0  0  0  0  0  0  0
    3.0565   -5.5369    2.0426 H   0  0  0  0  0  0  0  0  0  0  0  0
    1.6740   -3.7846    2.1626 H   0  0  0  0  0  0  0  0  0  0  0  0
    3.5450   -2.9468    3.6340 H   0  0  0  0  0  0  0  0  0  0  0  0
    2.6507   -1.6759    3.0477 H   0  0  0  0  0  0  0  0  0  0  0  0
    1.5138   -4.1289   -0.3125 H   0  0  0  0  0  0  0  0  0  0  0  0
    3.4459   -5.3545   -0.3316 H   0  0  0  0  0  0  0  0  0  0  0  0
    3.0303   -3.8238   -2.3844 H   0  0  0  0  0  0  0  0  0  0  0  0
    3.0095   -1.4219   -2.2843 H   0  0  0  0  0  0  0  0  0  0  0  0
  1  2  1  0
  1 21  1  0
  1 22  1  0
  1 23  1  0
  2 20  1  0
  2  3  1  0
  2 47  1  6
  3  9  1  0
  3  4  1  0
  3 24  1  6
  4  5  1  0
  4 25  1  0
  4 26  1  0
  5 13  1  0
  5  6  1  0
  5 27  1  1
  6 17  1  0
  6  7  1  0
  6 28  1  1
  7  8  1  0
  7 29  1  0
  7 30  1  0
  8  9  1  0
  8 31  1  0
  9 10  1  0
  9 32  1  6
 10 19  1  0
 10 11  1  0
 10 33  1  1
 11 20  1  0
 11 12  1  0
 11 34  1  6
 12 13  1  0
 12 35  1  0
 12 36  1  0
 13 14  1  0
 13 37  1  1
 14 15  1  0
 14 38  1  0
 14 39  1  0
 15 19  1  0
 15 16  1  0
 15 40  1  6
 16 17  1  0
 16 18  1  0
 16 41  1  1
 17 42  1  0
 17 43  1  0
 18 19  1  0
 18 20  1  0
 18 44  1  6
 19 45  1  6
 20 46  1  6
M  CHG  1   2   1
M  END
>  <i_m_ct_stereo_status>  (210) 
1

>  <s_m_source_file>  (210) 
/var/tmp/pbs.5076255.sched01/tmpzygr1bk5/76dkit4mfj.sdf

>  <i_m_source_file_index>  (210) 
17

>  <i_lp_mmshare_version>  (210) 
48012

>  <i_f3d_flags>  (210) 
0

>  <s_epik_input>  (210) 
W0NAQEhdMTJbQ0BIXTNbQ0BASF00W0NIXTVbQ0BIXShOMVtDSDNdKVtDQEBIXTZbQ0BIXTdbQ0BASF0oW0NASF00NilbQ0gyXVtDQEBIXShbQ0gyXTUpW0NAQEhdKFtDSDJdMilbQ0BIXShbQ0gyXTcpW0NIMl1bTkhdMw==

>  <s_epik_cmdline>  (210) 
J2VwaWtfcHl0aG9uJywgJy1waHQnLCAnMi4wJywgJy1waCcsICc3LjAnLCAnLXRuJywgJzgnLCAnLW1hJywgJzIwMCcsICctaW1hZScsICc8aW5maWxlLm1hZT4nLCAnLW9tYWUnLCAnPG91dGZpbGUubWFlPic=

>  <r_epik_Ionization_Penalty>  (210) 
0.887593

>  <r_epik_Ionization_Penalty_Charging>  (210) 
0.000711852

>  <r_epik_Ionization_Penalty_Neutral>  (210) 
0.886881

>  <r_epik_State_Penalty>  (210) 
2.08952

>  <r_epik_Charging_Adjusted_Penalty>  (210) 
2.09023

>  <i_epik_Tot_Q>  (210) 
1

>  <i_epik_Tot_abs_Q>  (210) 
1

>  <s_lp_Force_Field>  (210) 
OPLS3e

>  <r_lp_Energy>  (210) 
628.079

>  <b_lp_Chiralities_Consistent>  (210) 
1

>  <s_lp_Variant>  (210) 
68:0-3

>  <s_i_glide_gridfile>  (210) 
pfpi4k_grid

>  <i_i_glide_lignum>  (210) 
17

>  <i_i_glide_rotatable_bonds>  (210) 
0

>  <r_i_docking_score>  (210) 
-3.18267

>  <r_i_glide_ligand_efficiency>  (210) 
-0.159133

>  <r_i_glide_ligand_efficiency_sa>  (210) 
-0.431954

>  <r_i_glide_ligand_efficiency_ln>  (210) 
-0.796517

>  <r_i_glide_gscore>  (210) 
-3.18267

>  <r_i_glide_lipo>  (210) 
-0.638338

>  <r_i_glide_hbond>  (210) 
0

>  <r_i_glide_metal>  (210) 
-0

>  <r_i_glide_rewards>  (210) 
-1.5585

>  <r_i_glide_evdw>  (210) 
-15.0809

>  <r_i_glide_ecoul>  (210) 
-1.32916

>  <r_i_glide_erotb>  (210) 
0

>  <r_i_glide_esite>  (210) 
-0.0324157

>  <r_i_glide_emodel>  (210) 
-21.5069

>  <r_i_glide_energy>  (210) 
-16.41

>  <r_i_glide_einternal>  (210) 
0

>  <r_i_glide_intrahb_reward>  (210) 
-0

>  <i_i_glide_confnum>  (210) 
1

>  <i_i_glide_posenum>  (210) 
23

>  <r_i_glide_eff_state_penalty>  (210) 
0

>  <ligand_id>  (210) 
68

>  <original_smiles>  (210) 
CN1C2CC3C4CNC2C2C5CC3CC3C(C4)C(C32)C51

>  <smiles>  (210) 
[H]N1C([H])([H])C2([H])C([H])([H])C3([H])C4([H])C([H])([H])C5([H])C([H])([H])C6([H])C7([H])C1([H])C([H])(C([H])([H])C25[H])[N+]([H])(C([H])([H])[H])C6([H])C3([H])C47[H]

$$$$
69:0:0
     RDKit          3D

 56 60  0  0  1  0  0  0  0  0999 V2000
    1.8869   -1.7672    5.7698 C   0  0  0  0  0  0  0  0  0  0  0  0
    0.9826   -2.1429    4.5735 C   0  0  1  0  0  0  0  0  0  0  0  0
   -0.4861   -1.7294    4.8873 C   0  0  0  0  0  0  0  0  0  0  0  0
   -0.7222   -0.2155    4.9896 C   0  0  0  0  0  0  0  0  0  0  0  0
   -0.2115    0.4818    3.7407 C   0  0  0  0  0  0  0  0  0  0  0  0
   -0.9044    1.3017    3.1409 O   0  0  0  0  0  0  0  0  0  0  0  0
    1.2103    0.1494    3.3117 C   0  0  0  0  0  0  0  0  0  0  0  0
    1.4956   -1.3527    3.3531 C   0  0  0  0  0  0  0  0  0  0  0  0
    2.2078   -1.9208    2.3651 C   0  0  0  0  0  0  0  0  0  0  0  0
    2.6347   -3.3724    2.3179 C   0  0  0  0  0  0  0  0  0  0  0  0
    2.3227   -4.1686    3.6056 C   0  0  1  0  0  0  0  0  0  0  0  0
    1.0148   -3.6931    4.2901 C   0  0  1  0  0  0  0  0  0  0  0  0
    0.7233   -4.5664    5.5343 C   0  0  0  0  0  0  0  0  0  0  0  0
    0.6841   -6.0644    5.1949 C   0  0  0  0  0  0  0  0  0  0  0  0
    2.0012   -6.5939    4.5618 C   0  0  2  0  0  0  0  0  0  0  0  0
    3.1267   -6.6131    5.6290 C   0  0  0  0  0  0  0  0  0  0  0  0
    2.3717   -5.7051    3.3502 C   0  0  1  0  0  0  0  0  0  0  0  0
    1.5083   -6.2269    2.1872 C   0  0  0  0  0  0  0  0  0  0  0  0
    1.0858   -7.6520    2.5521 C   0  0  0  0  0  0  0  0  0  0  0  0
    1.7845   -7.9929    3.8883 C   0  0  2  0  0  0  0  0  0  0  0  0
    0.9796   -9.0233    4.7181 C   0  0  0  0  0  0  0  0  0  0  0  0
    1.1087  -10.3931    4.0891 C   0  0  0  0  0  0  0  0  0  0  0  0
    2.1605  -10.7390    3.3284 C   0  0  0  0  0  0  0  0  0  0  0  0
    3.2759   -9.7966    3.0927 C   0  0  0  0  0  0  0  0  0  0  0  0
    4.3319  -10.1243    2.5568 O   0  0  0  0  0  0  0  0  0  0  0  0
    3.0755   -8.5263    3.5552 O   0  0  0  0  0  0  0  0  0  0  0  0
    1.5183   -2.1826    6.7087 H   0  0  0  0  0  0  0  0  0  0  0  0
    1.9487   -0.6853    5.9037 H   0  0  0  0  0  0  0  0  0  0  0  0
    2.9076   -2.1232    5.6157 H   0  0  0  0  0  0  0  0  0  0  0  0
   -1.1368   -2.1087    4.1027 H   0  0  0  0  0  0  0  0  0  0  0  0
   -0.8334   -2.1900    5.8133 H   0  0  0  0  0  0  0  0  0  0  0  0
   -1.7821    0.0028    5.1197 H   0  0  0  0  0  0  0  0  0  0  0  0
   -0.2016    0.2007    5.8503 H   0  0  0  0  0  0  0  0  0  0  0  0
    1.3860    0.5380    2.3090 H   0  0  0  0  0  0  0  0  0  0  0  0
    1.8958    0.6644    3.9808 H   0  0  0  0  0  0  0  0  0  0  0  0
    2.5384   -1.3199    1.5258 H   0  0  0  0  0  0  0  0  0  0  0  0
    2.1562   -3.8058    1.4412 H   0  0  0  0  0  0  0  0  0  0  0  0
    3.7080   -3.4036    2.1336 H   0  0  0  0  0  0  0  0  0  0  0  0
    3.1317   -3.9508    4.3046 H   0  0  0  0  0  0  0  0  0  0  0  0
    0.2096   -3.8880    3.5847 H   0  0  0  0  0  0  0  0  0  0  0  0
    1.4705   -4.3971    6.3084 H   0  0  0  0  0  0  0  0  0  0  0  0
   -0.2365   -4.2992    5.9711 H   0  0  0  0  0  0  0  0  0  0  0  0
    0.4612   -6.6241    6.1026 H   0  0  0  0  0  0  0  0  0  0  0  0
   -0.1553   -6.2332    4.5229 H   0  0  0  0  0  0  0  0  0  0  0  0
    4.0778   -6.9396    5.2145 H   0  0  0  0  0  0  0  0  0  0  0  0
    2.8848   -7.2796    6.4532 H   0  0  0  0  0  0  0  0  0  0  0  0
    3.3108   -5.6275    6.0512 H   0  0  0  0  0  0  0  0  0  0  0  0
    3.4014   -5.9438    3.0852 H   0  0  0  0  0  0  0  0  0  0  0  0
    0.6133   -5.6198    2.0612 H   0  0  0  0  0  0  0  0  0  0  0  0
    2.0627   -6.2139    1.2466 H   0  0  0  0  0  0  0  0  0  0  0  0
    0.0024   -7.6737    2.6702 H   0  0  0  0  0  0  0  0  0  0  0  0
    1.3154   -8.3568    1.7517 H   0  0  0  0  0  0  0  0  0  0  0  0
    1.3230   -9.0843    5.7513 H   0  0  0  0  0  0  0  0  0  0  0  0
   -0.0789   -8.7598    4.7535 H   0  0  0  0  0  0  0  0  0  0  0  0
    0.3073  -11.0939    4.2770 H   0  0  0  0  0  0  0  0  0  0  0  0
    2.2261  -11.7263    2.8927 H   0  0  0  0  0  0  0  0  0  0  0  0
  2  1  1  1
  1 27  1  0
  1 28  1  0
  1 29  1  0
  2  8  1  0
  2 12  1  0
  2  3  1  0
  3  4  1  0
  3 30  1  0
  3 31  1  0
  4  5  1  0
  4 32  1  0
  4 33  1  0
  5  6  2  0
  5  7  1  0
  7  8  1  0
  7 34  1  0
  7 35  1  0
  8  9  2  0
  9 10  1  0
  9 36  1  0
 10 11  1  0
 10 37  1  0
 10 38  1  0
 11 17  1  0
 11 12  1  0
 11 39  1  1
 12 13  1  0
 12 40  1  6
 13 14  1  0
 13 41  1  0
 13 42  1  0
 14 15  1  0
 14 43  1  0
 14 44  1  0
 15 20  1  0
 15 16  1  1
 15 17  1  0
 16 45  1  0
 16 46  1  0
 16 47  1  0
 17 18  1  0
 17 48  1  6
 18 19  1  0
 18 49  1  0
 18 50  1  0
 19 20  1  0
 19 51  1  0
 19 52  1  0
 20 26  1  6
 20 21  1  0
 21 22  1  0
 21 53  1  0
 21 54  1  0
 22 23  2  0
 22 55  1  0
 23 24  1  0
 23 56  1  0
 24 25  2  0
 24 26  1  0
M  END
>  <i_m_ct_stereo_status>  (211) 
1

>  <s_m_source_file>  (211) 
/var/tmp/pbs.5076255.sched01/tmpzygr1bk5/76dkit4mfj.sdf

>  <i_m_source_file_index>  (211) 
18

>  <i_lp_mmshare_version>  (211) 
48012

>  <i_f3d_flags>  (211) 
0

>  <s_epik_input>  (211) 
W0NIMl0xW0NIMl1DKD1PKVtDSDJdQyg9W0NIXVtDSDJdMilbQ0BdMShbQ0gzXSlbQ0BIXShbQ0gyXVtDSDJdMylbQ0BIXTJbQ0BIXShbQ0gyXVtDSDJdNClbQ0BdMyhbQ0gzXSlbQ0BAXTQ1W0NIMl1bQ0hdPVtDSF1DKD1PKU81

>  <s_epik_cmdline>  (211) 
J2VwaWtfcHl0aG9uJywgJy1waHQnLCAnMi4wJywgJy1waCcsICc3LjAnLCAnLXRuJywgJzgnLCAnLW1hJywgJzIwMCcsICctaW1hZScsICc8aW5maWxlLm1hZT4nLCAnLW9tYWUnLCAnPG91dGZpbGUubWFlPic=

>  <r_lp_tautomer_probability>  (211) 
1

>  <r_epik_Ionization_Penalty>  (211) 
1.7943e-09

>  <r_epik_Ionization_Penalty_Charging>  (211) 
0

>  <r_epik_Ionization_Penalty_Neutral>  (211) 
1.7943e-09

>  <r_epik_State_Penalty>  (211) 
-0

>  <r_epik_Charging_Adjusted_Penalty>  (211) 
0

>  <i_epik_Tot_Q>  (211) 
0

>  <i_epik_Tot_abs_Q>  (211) 
0

>  <s_epik_Chemistry_Notes>  (211) 
This compound has an ester and may undergo hydrolysis at high or low pH.

>  <s_lp_Force_Field>  (211) 
OPLS3e

>  <r_lp_Energy>  (211) 
45.4906

>  <b_lp_Chiralities_Consistent>  (211) 
1

>  <s_lp_Variant>  (211) 
69:0-1

>  <s_i_glide_gridfile>  (211) 
pfpi4k_grid

>  <i_i_glide_lignum>  (211) 
18

>  <i_i_glide_rotatable_bonds>  (211) 
0

>  <r_i_docking_score>  (211) 
-2.28702

>  <r_i_glide_ligand_efficiency>  (211) 
-0.0879625

>  <r_i_glide_ligand_efficiency_sa>  (211) 
-0.260588

>  <r_i_glide_ligand_efficiency_ln>  (211) 
-0.5371

>  <r_i_glide_gscore>  (211) 
-2.28702

>  <r_i_glide_lipo>  (211) 
-0.0897831

>  <r_i_glide_hbond>  (211) 
0

>  <r_i_glide_metal>  (211) 
-0

>  <r_i_glide_rewards>  (211) 
-0.992165

>  <r_i_glide_evdw>  (211) 
-24.8994

>  <r_i_glide_ecoul>  (211) 
0.552962

>  <r_i_glide_erotb>  (211) 
0

>  <r_i_glide_esite>  (211) 
-0.0430508

>  <r_i_glide_emodel>  (211) 
-27.4218

>  <r_i_glide_energy>  (211) 
-24.3464

>  <r_i_glide_einternal>  (211) 
0

>  <r_i_glide_intrahb_reward>  (211) 
-0

>  <i_i_glide_confnum>  (211) 
2

>  <i_i_glide_posenum>  (211) 
6

>  <r_i_glide_eff_state_penalty>  (211) 
0

>  <ligand_id>  (211) 
69

>  <original_smiles>  (211) 
CC12CCC(=O)CC1=CCC1C2CCC2(C)C1CCC21CC=CC(=O)O1

>  <smiles>  (211) 
[H]C1=C([H])C([H])([H])C2(OC1=O)C([H])([H])C([H])([H])C1([H])C3([H])C([H])([H])C([H])=C4C([H])([H])C(=O)C([H])([H])C([H])([H])C4(C([H])([H])[H])C3([H])C([H])([H])C([H])([H])C12C([H])([H])[H]

$$$$
69:0:1
     RDKit          3D

 56 60  0  0  1  0  0  0  0  0999 V2000
    2.3721   -2.4771    7.5346 C   0  0  0  0  0  0  0  0  0  0  0  0
    2.9172   -2.1833    6.1157 C   0  0  1  0  0  0  0  0  0  0  0  0
    4.4524   -1.9180    6.1937 C   0  0  0  0  0  0  0  0  0  0  0  0
    5.2930   -3.1348    6.6078 C   0  0  0  0  0  0  0  0  0  0  0  0
    4.9855   -4.3192    5.7080 C   0  0  0  0  0  0  0  0  0  0  0  0
    5.8819   -4.9827    5.1897 O   0  0  0  0  0  0  0  0  0  0  0  0
    3.5155   -4.6711    5.5311 C   0  0  0  0  0  0  0  0  0  0  0  0
    2.6494   -3.4430    5.2659 C   0  0  0  0  0  0  0  0  0  0  0  0
    1.6670   -3.5027    4.3500 C   0  0  0  0  0  0  0  0  0  0  0  0
    0.6858   -2.3932    4.0456 C   0  0  0  0  0  0  0  0  0  0  0  0
    0.7707   -1.1873    5.0051 C   0  0  1  0  0  0  0  0  0  0  0  0
    2.2218   -0.9204    5.4780 C   0  0  1  0  0  0  0  0  0  0  0  0
    2.2524    0.3333    6.3860 C   0  0  0  0  0  0  0  0  0  0  0  0
    1.6368    1.5590    5.6986 C   0  0  0  0  0  0  0  0  0  0  0  0
    0.1627    1.3487    5.2565 C   0  0  2  0  0  0  0  0  0  0  0  0
   -0.7595    1.2849    6.5031 C   0  0  0  0  0  0  0  0  0  0  0  0
    0.0698    0.0625    4.4002 C   0  0  1  0  0  0  0  0  0  0  0  0
    0.5263    0.4797    2.9886 C   0  0  0  0  0  0  0  0  0  0  0  0
    0.3593    1.9963    2.9074 C   0  0  0  0  0  0  0  0  0  0  0  0
   -0.2848    2.4475    4.2394 C   0  0  2  0  0  0  0  0  0  0  0  0
    0.1138    3.9006    4.6082 C   0  0  0  0  0  0  0  0  0  0  0  0
   -0.6185    4.8628    3.7053 C   0  0  0  0  0  0  0  0  0  0  0  0
   -1.7857    4.5435    3.1243 C   0  0  0  0  0  0  0  0  0  0  0  0
   -2.4443    3.2525    3.3567 C   0  0  0  0  0  0  0  0  0  0  0  0
   -3.5907    3.0300    2.9824 O   0  0  0  0  0  0  0  0  0  0  0  0
   -1.7117    2.3467    4.0736 O   0  0  0  0  0  0  0  0  0  0  0  0
    2.6310   -1.6909    8.2452 H   0  0  0  0  0  0  0  0  0  0  0  0
    2.7742   -3.4092    7.9366 H   0  0  0  0  0  0  0  0  0  0  0  0
    1.2864   -2.5850    7.5243 H   0  0  0  0  0  0  0  0  0  0  0  0
    4.8159   -1.5776    5.2232 H   0  0  0  0  0  0  0  0  0  0  0  0
    4.6688   -1.1086    6.8921 H   0  0  0  0  0  0  0  0  0  0  0  0
    6.3563   -2.9021    6.5636 H   0  0  0  0  0  0  0  0  0  0  0  0
    5.0765   -3.4224    7.6352 H   0  0  0  0  0  0  0  0  0  0  0  0
    3.4143   -5.3857    4.7154 H   0  0  0  0  0  0  0  0  0  0  0  0
    3.1755   -5.1660    6.4373 H   0  0  0  0  0  0  0  0  0  0  0  0
    1.5237   -4.4115    3.7779 H   0  0  0  0  0  0  0  0  0  0  0  0
    0.8621   -2.1038    3.0091 H   0  0  0  0  0  0  0  0  0  0  0  0
   -0.3215   -2.8084    4.0896 H   0  0  0  0  0  0  0  0  0  0  0  0
    0.2015   -1.4611    5.8940 H   0  0  0  0  0  0  0  0  0  0  0  0
    2.7953   -0.6734    4.5849 H   0  0  0  0  0  0  0  0  0  0  0  0
    1.7263    0.1473    7.3220 H   0  0  0  0  0  0  0  0  0  0  0  0
    3.2768    0.5813    6.6581 H   0  0  0  0  0  0  0  0  0  0  0  0
    1.7053    2.4112    6.3731 H   0  0  0  0  0  0  0  0  0  0  0  0
    2.2613    1.8046    4.8409 H   0  0  0  0  0  0  0  0  0  0  0  0
   -1.7987    1.1036    6.2354 H   0  0  0  0  0  0  0  0  0  0  0  0
   -0.7254    2.2138    7.0702 H   0  0  0  0  0  0  0  0  0  0  0  0
   -0.4733    0.4830    7.1792 H   0  0  0  0  0  0  0  0  0  0  0  0
   -0.9887   -0.1805    4.3093 H   0  0  0  0  0  0  0  0  0  0  0  0
    1.5710    0.2282    2.8050 H   0  0  0  0  0  0  0  0  0  0  0  0
   -0.0684   -0.0098    2.2165 H   0  0  0  0  0  0  0  0  0  0  0  0
    1.3436    2.4492    2.7742 H   0  0  0  0  0  0  0  0  0  0  0  0
   -0.2218    2.2840    2.0311 H   0  0  0  0  0  0  0  0  0  0  0  0
   -0.1092    4.1462    5.6481 H   0  0  0  0  0  0  0  0  0  0  0  0
    1.1842    4.0620    4.4669 H   0  0  0  0  0  0  0  0  0  0  0  0
   -0.1638    5.8230    3.5158 H   0  0  0  0  0  0  0  0  0  0  0  0
   -2.2786    5.2380    2.4620 H   0  0  0  0  0  0  0  0  0  0  0  0
  2  1  1  1
  1 27  1  0
  1 28  1  0
  1 29  1  0
  2  8  1  0
  2 12  1  0
  2  3  1  0
  3  4  1  0
  3 30  1  0
  3 31  1  0
  4  5  1  0
  4 32  1  0
  4 33  1  0
  5  6  2  0
  5  7  1  0
  7  8  1  0
  7 34  1  0
  7 35  1  0
  8  9  2  0
  9 10  1  0
  9 36  1  0
 10 11  1  0
 10 37  1  0
 10 38  1  0
 11 17  1  0
 11 12  1  0
 11 39  1  1
 12 13  1  0
 12 40  1  6
 13 14  1  0
 13 41  1  0
 13 42  1  0
 14 15  1  0
 14 43  1  0
 14 44  1  0
 15 20  1  0
 15 16  1  1
 15 17  1  0
 16 45  1  0
 16 46  1  0
 16 47  1  0
 17 18  1  0
 17 48  1  6
 18 19  1  0
 18 49  1  0
 18 50  1  0
 19 20  1  0
 19 51  1  0
 19 52  1  0
 20 26  1  6
 20 21  1  0
 21 22  1  0
 21 53  1  0
 21 54  1  0
 22 23  2  0
 22 55  1  0
 23 24  1  0
 23 56  1  0
 24 25  2  0
 24 26  1  0
M  END
>  <i_m_ct_stereo_status>  (212) 
1

>  <s_m_source_file>  (212) 
/var/tmp/pbs.5076255.sched01/tmpzygr1bk5/76dkit4mfj.sdf

>  <i_m_source_file_index>  (212) 
18

>  <i_lp_mmshare_version>  (212) 
48012

>  <i_f3d_flags>  (212) 
0

>  <s_epik_input>  (212) 
W0NIMl0xW0NIMl1DKD1PKVtDSDJdQyg9W0NIXVtDSDJdMilbQ0BdMShbQ0gzXSlbQ0BIXShbQ0gyXVtDSDJdMylbQ0BIXTJbQ0BIXShbQ0gyXVtDSDJdNClbQ0BdMyhbQ0gzXSlbQ0BAXTQ1W0NIMl1bQ0hdPVtDSF1DKD1PKU81

>  <s_epik_cmdline>  (212) 
J2VwaWtfcHl0aG9uJywgJy1waHQnLCAnMi4wJywgJy1waCcsICc3LjAnLCAnLXRuJywgJzgnLCAnLW1hJywgJzIwMCcsICctaW1hZScsICc8aW5maWxlLm1hZT4nLCAnLW9tYWUnLCAnPG91dGZpbGUubWFlPic=

>  <r_lp_tautomer_probability>  (212) 
1

>  <r_epik_Ionization_Penalty>  (212) 
1.7943e-09

>  <r_epik_Ionization_Penalty_Charging>  (212) 
0

>  <r_epik_Ionization_Penalty_Neutral>  (212) 
1.7943e-09

>  <r_epik_State_Penalty>  (212) 
-0

>  <r_epik_Charging_Adjusted_Penalty>  (212) 
0

>  <i_epik_Tot_Q>  (212) 
0

>  <i_epik_Tot_abs_Q>  (212) 
0

>  <s_epik_Chemistry_Notes>  (212) 
This compound has an ester and may undergo hydrolysis at high or low pH.

>  <s_lp_Force_Field>  (212) 
OPLS3e

>  <r_lp_Energy>  (212) 
45.4906

>  <b_lp_Chiralities_Consistent>  (212) 
1

>  <s_lp_Variant>  (212) 
69:0-1

>  <s_i_glide_gridfile>  (212) 
pfpi4k_grid

>  <i_i_glide_lignum>  (212) 
18

>  <i_i_glide_rotatable_bonds>  (212) 
0

>  <r_i_docking_score>  (212) 
-2.06319

>  <r_i_glide_ligand_efficiency>  (212) 
-0.0793535

>  <r_i_glide_ligand_efficiency_sa>  (212) 
-0.235085

>  <r_i_glide_ligand_efficiency_ln>  (212) 
-0.484534

>  <r_i_glide_gscore>  (212) 
-2.06319

>  <r_i_glide_lipo>  (212) 
-0.0569707

>  <r_i_glide_hbond>  (212) 
0

>  <r_i_glide_metal>  (212) 
-0

>  <r_i_glide_rewards>  (212) 
-0.992604

>  <r_i_glide_evdw>  (212) 
-20.8978

>  <r_i_glide_ecoul>  (212) 
0.580314

>  <r_i_glide_erotb>  (212) 
0

>  <r_i_glide_esite>  (212) 
-0.0557724

>  <r_i_glide_emodel>  (212) 
-23.0592

>  <r_i_glide_energy>  (212) 
-20.3175

>  <r_i_glide_einternal>  (212) 
0

>  <r_i_glide_intrahb_reward>  (212) 
-0

>  <i_i_glide_confnum>  (212) 
1

>  <i_i_glide_posenum>  (212) 
2

>  <r_i_glide_eff_state_penalty>  (212) 
0

>  <ligand_id>  (212) 
69

>  <original_smiles>  (212) 
CC12CCC(=O)CC1=CCC1C2CCC2(C)C1CCC21CC=CC(=O)O1

>  <smiles>  (212) 
[H]C1=C([H])C([H])([H])C2(OC1=O)C([H])([H])C([H])([H])C1([H])C3([H])C([H])([H])C([H])=C4C([H])([H])C(=O)C([H])([H])C([H])([H])C4(C([H])([H])[H])C3([H])C([H])([H])C([H])([H])C12C([H])([H])[H]

$$$$
69:0:2
     RDKit          3D

 56 60  0  0  1  0  0  0  0  0999 V2000
    1.2947   -2.0524    8.3773 C   0  0  0  0  0  0  0  0  0  0  0  0
    2.1342   -1.8131    7.0982 C   0  0  1  0  0  0  0  0  0  0  0  0
    3.6133   -1.5323    7.4967 C   0  0  0  0  0  0  0  0  0  0  0  0
    4.3424   -2.7274    8.1278 C   0  0  0  0  0  0  0  0  0  0  0  0
    4.2315   -3.9457    7.2301 C   0  0  0  0  0  0  0  0  0  0  0  0
    5.2197   -4.6193    6.9385 O   0  0  0  0  0  0  0  0  0  0  0  0
    2.8348   -4.3209    6.7570 C   0  0  0  0  0  0  0  0  0  0  0  0
    2.0475   -3.1059    6.2639 C   0  0  0  0  0  0  0  0  0  0  0  0
    1.2963   -3.2103    5.1569 C   0  0  0  0  0  0  0  0  0  0  0  0
    0.4095   -2.1180    4.6003 C   0  0  0  0  0  0  0  0  0  0  0  0
    0.2873   -0.8765    5.5118 C   0  0  1  0  0  0  0  0  0  0  0  0
    1.5972   -0.5824    6.2795 C   0  0  1  0  0  0  0  0  0  0  0  0
    1.4376    0.7062    7.1212 C   0  0  0  0  0  0  0  0  0  0  0  0
    0.9870    1.9030    6.2689 C   0  0  0  0  0  0  0  0  0  0  0  0
   -0.3553    1.6658    5.5266 C   0  0  2  0  0  0  0  0  0  0  0  0
   -1.5208    1.6524    6.5482 C   0  0  0  0  0  0  0  0  0  0  0  0
   -0.2636    0.3470    4.7249 C   0  0  1  0  0  0  0  0  0  0  0  0
    0.4847    0.7055    3.4266 C   0  0  0  0  0  0  0  0  0  0  0  0
    0.3452    2.2166    3.2511 C   0  0  0  0  0  0  0  0  0  0  0  0
   -0.5694    2.7172    4.3939 C   0  0  2  0  0  0  0  0  0  0  0  0
   -0.2540    4.1833    4.7765 C   0  0  0  0  0  0  0  0  0  0  0  0
   -0.7493    5.0877    3.6792 C   0  0  0  0  0  0  0  0  0  0  0  0
   -1.7804    4.7590    2.8816 C   0  0  0  0  0  0  0  0  0  0  0  0
   -2.5000    3.4835    3.0511 C   0  0  0  0  0  0  0  0  0  0  0  0
   -3.5755    3.2621    2.4948 O   0  0  0  0  0  0  0  0  0  0  0  0
   -1.9289    2.6102    3.9324 O   0  0  0  0  0  0  0  0  0  0  0  0
    1.4013   -1.2355    9.0954 H   0  0  0  0  0  0  0  0  0  0  0  0
    1.6005   -2.9672    8.8928 H   0  0  0  0  0  0  0  0  0  0  0  0
    0.2363   -2.1674    8.1351 H   0  0  0  0  0  0  0  0  0  0  0  0
    4.1810   -1.2296    6.6171 H   0  0  0  0  0  0  0  0  0  0  0  0
    3.6809   -0.6941    8.1936 H   0  0  0  0  0  0  0  0  0  0  0  0
    5.3919   -2.4903    8.3035 H   0  0  0  0  0  0  0  0  0  0  0  0
    3.9123   -2.9765    9.0957 H   0  0  0  0  0  0  0  0  0  0  0  0
    2.9135   -5.0617    5.9646 H   0  0  0  0  0  0  0  0  0  0  0  0
    2.3122   -4.7859    7.5883 H   0  0  0  0  0  0  0  0  0  0  0  0
    1.2775   -4.1373    4.5952 H   0  0  0  0  0  0  0  0  0  0  0  0
    0.8117   -1.8674    3.6168 H   0  0  0  0  0  0  0  0  0  0  0  0
   -0.5808   -2.5430    4.4433 H   0  0  0  0  0  0  0  0  0  0  0  0
   -0.4645   -1.1180    6.2640 H   0  0  0  0  0  0  0  0  0  0  0  0
    2.3554   -0.3665    5.5270 H   0  0  0  0  0  0  0  0  0  0  0  0
    0.7189    0.5583    7.9275 H   0  0  0  0  0  0  0  0  0  0  0  0
    2.3817    0.9731    7.5954 H   0  0  0  0  0  0  0  0  0  0  0  0
    0.9083    2.7782    6.9144 H   0  0  0  0  0  0  0  0  0  0  0  0
    1.7835    2.1217    5.5580 H   0  0  0  0  0  0  0  0  0  0  0  0
   -2.4772    1.4515    6.0724 H   0  0  0  0  0  0  0  0  0  0  0  0
   -1.6093    2.6039    7.0670 H   0  0  0  0  0  0  0  0  0  0  0  0
   -1.3906    0.8823    7.3047 H   0  0  0  0  0  0  0  0  0  0  0  0
   -1.2795    0.0985    4.4164 H   0  0  0  0  0  0  0  0  0  0  0  0
    1.5467    0.4567    3.4882 H   0  0  0  0  0  0  0  0  0  0  0  0
    0.0704    0.1748    2.5673 H   0  0  0  0  0  0  0  0  0  0  0  0
    1.3377    2.6615    3.3202 H   0  0  0  0  0  0  0  0  0  0  0  0
   -0.0262    2.4677    2.2566 H   0  0  0  0  0  0  0  0  0  0  0  0
   -0.7076    4.4803    5.7234 H   0  0  0  0  0  0  0  0  0  0  0  0
    0.8194    4.3504    4.8798 H   0  0  0  0  0  0  0  0  0  0  0  0
   -0.2417    6.0344    3.5466 H   0  0  0  0  0  0  0  0  0  0  0  0
   -2.1114    5.4291    2.0988 H   0  0  0  0  0  0  0  0  0  0  0  0
  2  1  1  1
  1 27  1  0
  1 28  1  0
  1 29  1  0
  2  8  1  0
  2 12  1  0
  2  3  1  0
  3  4  1  0
  3 30  1  0
  3 31  1  0
  4  5  1  0
  4 32  1  0
  4 33  1  0
  5  6  2  0
  5  7  1  0
  7  8  1  0
  7 34  1  0
  7 35  1  0
  8  9  2  0
  9 10  1  0
  9 36  1  0
 10 11  1  0
 10 37  1  0
 10 38  1  0
 11 17  1  0
 11 12  1  0
 11 39  1  1
 12 13  1  0
 12 40  1  6
 13 14  1  0
 13 41  1  0
 13 42  1  0
 14 15  1  0
 14 43  1  0
 14 44  1  0
 15 20  1  0
 15 16  1  1
 15 17  1  0
 16 45  1  0
 16 46  1  0
 16 47  1  0
 17 18  1  0
 17 48  1  6
 18 19  1  0
 18 49  1  0
 18 50  1  0
 19 20  1  0
 19 51  1  0
 19 52  1  0
 20 26  1  6
 20 21  1  0
 21 22  1  0
 21 53  1  0
 21 54  1  0
 22 23  2  0
 22 55  1  0
 23 24  1  0
 23 56  1  0
 24 25  2  0
 24 26  1  0
M  END
>  <i_m_ct_stereo_status>  (213) 
1

>  <s_m_source_file>  (213) 
/var/tmp/pbs.5076255.sched01/tmpzygr1bk5/76dkit4mfj.sdf

>  <i_m_source_file_index>  (213) 
18

>  <i_lp_mmshare_version>  (213) 
48012

>  <i_f3d_flags>  (213) 
0

>  <s_epik_input>  (213) 
W0NIMl0xW0NIMl1DKD1PKVtDSDJdQyg9W0NIXVtDSDJdMilbQ0BdMShbQ0gzXSlbQ0BIXShbQ0gyXVtDSDJdMylbQ0BIXTJbQ0BIXShbQ0gyXVtDSDJdNClbQ0BdMyhbQ0gzXSlbQ0BAXTQ1W0NIMl1bQ0hdPVtDSF1DKD1PKU81

>  <s_epik_cmdline>  (213) 
J2VwaWtfcHl0aG9uJywgJy1waHQnLCAnMi4wJywgJy1waCcsICc3LjAnLCAnLXRuJywgJzgnLCAnLW1hJywgJzIwMCcsICctaW1hZScsICc8aW5maWxlLm1hZT4nLCAnLW9tYWUnLCAnPG91dGZpbGUubWFlPic=

>  <r_lp_tautomer_probability>  (213) 
1

>  <r_epik_Ionization_Penalty>  (213) 
1.7943e-09

>  <r_epik_Ionization_Penalty_Charging>  (213) 
0

>  <r_epik_Ionization_Penalty_Neutral>  (213) 
1.7943e-09

>  <r_epik_State_Penalty>  (213) 
-0

>  <r_epik_Charging_Adjusted_Penalty>  (213) 
0

>  <i_epik_Tot_Q>  (213) 
0

>  <i_epik_Tot_abs_Q>  (213) 
0

>  <s_epik_Chemistry_Notes>  (213) 
This compound has an ester and may undergo hydrolysis at high or low pH.

>  <s_lp_Force_Field>  (213) 
OPLS3e

>  <r_lp_Energy>  (213) 
45.4906

>  <b_lp_Chiralities_Consistent>  (213) 
1

>  <s_lp_Variant>  (213) 
69:0-1

>  <s_i_glide_gridfile>  (213) 
pfpi4k_grid

>  <i_i_glide_lignum>  (213) 
18

>  <i_i_glide_rotatable_bonds>  (213) 
0

>  <r_i_docking_score>  (213) 
-1.99002

>  <r_i_glide_ligand_efficiency>  (213) 
-0.0765392

>  <r_i_glide_ligand_efficiency_sa>  (213) 
-0.226747

>  <r_i_glide_ligand_efficiency_ln>  (213) 
-0.467349

>  <r_i_glide_gscore>  (213) 
-1.99002

>  <r_i_glide_lipo>  (213) 
-0.0310108

>  <r_i_glide_hbond>  (213) 
0

>  <r_i_glide_metal>  (213) 
-0

>  <r_i_glide_rewards>  (213) 
-0.992165

>  <r_i_glide_evdw>  (213) 
-19.0441

>  <r_i_glide_ecoul>  (213) 
0.306191

>  <r_i_glide_erotb>  (213) 
0

>  <r_i_glide_esite>  (213) 
-0.0605652

>  <r_i_glide_emodel>  (213) 
-21.3411

>  <r_i_glide_energy>  (213) 
-18.7379

>  <r_i_glide_einternal>  (213) 
0

>  <r_i_glide_intrahb_reward>  (213) 
-0

>  <i_i_glide_confnum>  (213) 
2

>  <i_i_glide_posenum>  (213) 
4

>  <r_i_glide_eff_state_penalty>  (213) 
0

>  <ligand_id>  (213) 
69

>  <original_smiles>  (213) 
CC12CCC(=O)CC1=CCC1C2CCC2(C)C1CCC21CC=CC(=O)O1

>  <smiles>  (213) 
[H]C1=C([H])C([H])([H])C2(OC1=O)C([H])([H])C([H])([H])C1([H])C3([H])C([H])([H])C([H])=C4C([H])([H])C(=O)C([H])([H])C([H])([H])C4(C([H])([H])[H])C3([H])C([H])([H])C([H])([H])C12C([H])([H])[H]

$$$$
70:0:0
     RDKit          3D

 47 50  0  0  1  0  0  0  0  0999 V2000
    3.9847   -0.6864   -3.3462 C   0  0  0  0  0  0  0  0  0  0  0  0
    4.4002   -1.9796   -3.7598 O   0  0  0  0  0  0  0  0  0  0  0  0
    4.7535   -2.8807   -2.7131 C   0  0  1  0  0  0  0  0  0  0  0  0
    4.7207   -4.2229   -3.4753 C   0  0  0  0  0  0  0  0  0  0  0  0
    6.2081   -2.5479   -2.2314 C   0  0  0  0  0  0  0  0  0  0  0  0
    6.4874   -3.2526   -0.9150 C   0  0  2  0  0  0  0  0  0  0  0  0
    5.6289   -2.6512    0.2051 C   0  0  0  0  0  0  0  0  0  0  0  0
    4.5998   -3.7277    0.5256 C   0  0  2  0  0  0  0  0  0  0  0  0
    3.5721   -3.2879    1.5744 C   0  0  0  0  0  0  0  0  0  0  0  0
    3.0618   -4.5931    2.1729 C   0  0  0  0  0  0  0  0  0  0  0  0
    4.2931   -5.5098    2.2155 C   0  0  1  0  0  0  0  0  0  0  0  0
    3.9155   -6.9956    2.0846 C   0  0  0  0  0  0  0  0  0  0  0  0
    5.2682   -5.0176    1.1107 C   0  0  2  0  0  0  0  0  0  0  0  0
    6.7312   -4.8613    1.6635 C   0  0  0  0  0  0  0  0  0  0  0  0
    7.9129   -4.6985    0.6423 C   0  0  2  0  0  0  0  0  0  0  0  0
    8.5168   -6.0495    0.2968 C   0  0  0  0  0  0  0  0  0  0  0  0
    8.9528   -3.9056    1.2585 O   0  0  0  0  0  0  0  0  0  0  0  0
    8.5376   -2.7238    0.4104 O   0  0  0  0  0  0  0  0  0  0  0  0
    7.8666   -3.6483   -0.4659 C   0  0  2  0  0  0  0  0  0  0  0  0
    3.9293   -4.0875   -0.7038 O   0  0  0  0  0  0  0  0  0  0  0  0
    3.7769   -2.8774   -1.6344 O   0  0  0  0  0  0  0  0  0  0  0  0
    3.7552   -0.1009   -4.2370 H   0  0  0  0  0  0  0  0  0  0  0  0
    4.7524   -0.1522   -2.7843 H   0  0  0  0  0  0  0  0  0  0  0  0
    3.0774   -0.7344   -2.7396 H   0  0  0  0  0  0  0  0  0  0  0  0
    3.7357   -4.4090   -3.9082 H   0  0  0  0  0  0  0  0  0  0  0  0
    5.0108   -5.0630   -2.8441 H   0  0  0  0  0  0  0  0  0  0  0  0
    5.4127   -4.2075   -4.3159 H   0  0  0  0  0  0  0  0  0  0  0  0
    6.9234   -2.8812   -2.9811 H   0  0  0  0  0  0  0  0  0  0  0  0
    6.3362   -1.4775   -2.0922 H   0  0  0  0  0  0  0  0  0  0  0  0
    6.1429   -4.2524   -1.1722 H   0  0  0  0  0  0  0  0  0  0  0  0
    6.2044   -2.3533    1.0819 H   0  0  0  0  0  0  0  0  0  0  0  0
    5.1445   -1.7216   -0.0986 H   0  0  0  0  0  0  0  0  0  0  0  0
    4.0701   -2.7173    2.3620 H   0  0  0  0  0  0  0  0  0  0  0  0
    2.7721   -2.6642    1.1674 H   0  0  0  0  0  0  0  0  0  0  0  0
    2.6196   -4.4476    3.1626 H   0  0  0  0  0  0  0  0  0  0  0  0
    2.2882   -5.0042    1.5221 H   0  0  0  0  0  0  0  0  0  0  0  0
    4.7610   -5.3648    3.1917 H   0  0  0  0  0  0  0  0  0  0  0  0
    3.4251   -7.1994    1.1300 H   0  0  0  0  0  0  0  0  0  0  0  0
    3.2333   -7.3050    2.8800 H   0  0  0  0  0  0  0  0  0  0  0  0
    4.8023   -7.6279    2.1450 H   0  0  0  0  0  0  0  0  0  0  0  0
    5.3016   -5.7747    0.3240 H   0  0  0  0  0  0  0  0  0  0  0  0
    6.7000   -4.0324    2.3673 H   0  0  0  0  0  0  0  0  0  0  0  0
    6.9451   -5.7232    2.2952 H   0  0  0  0  0  0  0  0  0  0  0  0
    7.8207   -6.6560   -0.2603 H   0  0  0  0  0  0  0  0  0  0  0  0
    8.7984   -6.5988    1.1885 H   0  0  0  0  0  0  0  0  0  0  0  0
    9.4081   -5.9365   -0.3170 H   0  0  0  0  0  0  0  0  0  0  0  0
    8.5209   -3.9298   -1.2911 H   0  0  0  0  0  0  0  0  0  0  0  0
  1  2  1  0
  1 22  1  0
  1 23  1  0
  1 24  1  0
  3  2  1  6
  3 21  1  0
  3  4  1  0
  3  5  1  0
  4 25  1  0
  4 26  1  0
  4 27  1  0
  5  6  1  0
  5 28  1  0
  5 29  1  0
  6 19  1  0
  6  7  1  0
  6 30  1  6
  7  8  1  0
  7 31  1  0
  7 32  1  0
  8 13  1  0
  8  9  1  0
  8 20  1  6
  9 10  1  0
  9 33  1  0
  9 34  1  0
 10 11  1  0
 10 35  1  0
 10 36  1  0
 11 12  1  0
 11 13  1  0
 11 37  1  1
 12 38  1  0
 12 39  1  0
 12 40  1  0
 13 14  1  0
 13 41  1  6
 14 15  1  0
 14 42  1  0
 14 43  1  0
 15 19  1  0
 15 16  1  6
 15 17  1  0
 16 44  1  0
 16 45  1  0
 16 46  1  0
 17 18  1  0
 18 19  1  0
 19 47  1  6
 20 21  1  0
M  END
>  <i_m_ct_stereo_status>  (214) 
1

>  <s_m_source_file>  (214) 
/var/tmp/pbs.5076255.sched01/tmpzygr1bk5/76dkit4mfj.sdf

>  <i_m_source_file_index>  (214) 
19

>  <i_lp_mmshare_version>  (214) 
48012

>  <i_f3d_flags>  (214) 
0

>  <s_epik_input>  (214) 
W0NIM11PW0NAXShbQ0gzXSkoT08xKVtDSDJdW0NASF0oW0NIMl0yKVtDQEBIXShPTzMpW0NAXTMoW0NIM10pW0NIMl1bQ0BIXShbQ0BdMTI0KVtDQEhdKFtDSDNdKVtDSDJdW0NIMl00

>  <s_epik_cmdline>  (214) 
J2VwaWtfcHl0aG9uJywgJy1waHQnLCAnMi4wJywgJy1waCcsICc3LjAnLCAnLXRuJywgJzgnLCAnLW1hJywgJzIwMCcsICctaW1hZScsICc8aW5maWxlLm1hZT4nLCAnLW9tYWUnLCAnPG91dGZpbGUubWFlPic=

>  <r_lp_tautomer_probability>  (214) 
1

>  <r_epik_Ionization_Penalty>  (214) 
8.41973e-14

>  <r_epik_Ionization_Penalty_Charging>  (214) 
0

>  <r_epik_Ionization_Penalty_Neutral>  (214) 
8.41973e-14

>  <r_epik_State_Penalty>  (214) 
-0

>  <r_epik_Charging_Adjusted_Penalty>  (214) 
0

>  <i_epik_Tot_Q>  (214) 
0

>  <i_epik_Tot_abs_Q>  (214) 
0

>  <s_lp_Force_Field>  (214) 
OPLS3e

>  <r_lp_Energy>  (214) 
51.3435

>  <b_lp_Chiralities_Consistent>  (214) 
1

>  <s_lp_Variant>  (214) 
70:0-1

>  <s_i_glide_gridfile>  (214) 
pfpi4k_grid

>  <i_i_glide_lignum>  (214) 
19

>  <i_i_glide_rotatable_bonds>  (214) 
1

>  <r_i_docking_score>  (214) 
-3.4803

>  <r_i_glide_ligand_efficiency>  (214) 
-0.165728

>  <r_i_glide_ligand_efficiency_sa>  (214) 
-0.457232

>  <r_i_glide_ligand_efficiency_ln>  (214) 
-0.860497

>  <r_i_glide_gscore>  (214) 
-3.4803

>  <r_i_glide_lipo>  (214) 
-0.854448

>  <r_i_glide_hbond>  (214) 
-0.00502739

>  <r_i_glide_metal>  (214) 
-0

>  <r_i_glide_rewards>  (214) 
-1.54309

>  <r_i_glide_evdw>  (214) 
-19.7937

>  <r_i_glide_ecoul>  (214) 
-0.586973

>  <r_i_glide_erotb>  (214) 
0

>  <r_i_glide_esite>  (214) 
0

>  <r_i_glide_emodel>  (214) 
-24.7506

>  <r_i_glide_energy>  (214) 
-20.3807

>  <r_i_glide_einternal>  (214) 
0.157362

>  <r_i_glide_intrahb_reward>  (214) 
-0

>  <i_i_glide_confnum>  (214) 
1

>  <i_i_glide_posenum>  (214) 
9

>  <r_i_glide_eff_state_penalty>  (214) 
0

>  <ligand_id>  (214) 
70

>  <original_smiles>  (214) 
COC1(C)CC2CC3(CCC(C)C3CC3(C)OOC23)OO1

>  <smiles>  (214) 
[H]C([H])([H])OC1(C([H])([H])[H])OOC23C([H])([H])C([H])([H])C([H])(C([H])([H])[H])C2([H])C([H])([H])C2(C([H])([H])[H])OOC2([H])C([H])(C1([H])[H])C3([H])[H]

$$$$
70:0:1
     RDKit          3D

 47 50  0  0  1  0  0  0  0  0999 V2000
    0.0998   -6.9031    1.2145 C   0  0  0  0  0  0  0  0  0  0  0  0
    0.6531   -6.1886    2.3057 O   0  0  0  0  0  0  0  0  0  0  0  0
    2.0267   -5.7938    2.1892 C   0  0  1  0  0  0  0  0  0  0  0  0
    2.1974   -4.9209    3.4581 C   0  0  0  0  0  0  0  0  0  0  0  0
    2.9412   -7.0717    2.2625 C   0  0  0  0  0  0  0  0  0  0  0  0
    4.3387   -6.7012    1.7997 C   0  0  2  0  0  0  0  0  0  0  0  0
    4.3369   -6.3527    0.3006 C   0  0  0  0  0  0  0  0  0  0  0  0
    4.5748   -4.8545    0.2373 C   0  0  2  0  0  0  0  0  0  0  0  0
    4.5272   -4.2838   -1.1879 C   0  0  0  0  0  0  0  0  0  0  0  0
    5.3476   -3.0095   -1.1239 C   0  0  0  0  0  0  0  0  0  0  0  0
    6.4884   -3.3409   -0.1571 C   0  0  1  0  0  0  0  0  0  0  0  0
    6.9756   -2.0969    0.6059 C   0  0  0  0  0  0  0  0  0  0  0  0
    5.9952   -4.4770    0.7812 C   0  0  2  0  0  0  0  0  0  0  0  0
    7.0503   -5.6372    0.8930 C   0  0  0  0  0  0  0  0  0  0  0  0
    6.8745   -6.7098    2.0128 C   0  0  2  0  0  0  0  0  0  0  0  0
    7.6472   -6.3139    3.2610 C   0  0  0  0  0  0  0  0  0  0  0  0
    7.4256   -7.9407    1.4830 O   0  0  0  0  0  0  0  0  0  0  0  0
    6.0175   -8.4837    1.3261 O   0  0  0  0  0  0  0  0  0  0  0  0
    5.5680   -7.4494    2.2179 C   0  0  2  0  0  0  0  0  0  0  0  0
    3.5721   -4.2193    1.0645 O   0  0  0  0  0  0  0  0  0  0  0  0
    2.2483   -4.9904    0.9974 O   0  0  0  0  0  0  0  0  0  0  0  0
   -0.9450   -7.1217    1.4461 H   0  0  0  0  0  0  0  0  0  0  0  0
    0.5764   -7.8640    1.0300 H   0  0  0  0  0  0  0  0  0  0  0  0
    0.1259   -6.3181    0.2907 H   0  0  0  0  0  0  0  0  0  0  0  0
    1.5097   -4.0755    3.4666 H   0  0  0  0  0  0  0  0  0  0  0  0
    3.2076   -4.5173    3.5876 H   0  0  0  0  0  0  0  0  0  0  0  0
    1.9842   -5.5086    4.3531 H   0  0  0  0  0  0  0  0  0  0  0  0
    2.9661   -7.4458    3.2900 H   0  0  0  0  0  0  0  0  0  0  0  0
    2.5947   -7.8957    1.6414 H   0  0  0  0  0  0  0  0  0  0  0  0
    4.5048   -5.8117    2.4003 H   0  0  0  0  0  0  0  0  0  0  0  0
    5.0410   -6.9264   -0.2912 H   0  0  0  0  0  0  0  0  0  0  0  0
    3.3950   -6.6139   -0.1794 H   0  0  0  0  0  0  0  0  0  0  0  0
    5.0136   -4.9767   -1.8795 H   0  0  0  0  0  0  0  0  0  0  0  0
    3.5096   -4.1052   -1.5411 H   0  0  0  0  0  0  0  0  0  0  0  0
    5.7123   -2.6991   -2.1072 H   0  0  0  0  0  0  0  0  0  0  0  0
    4.7209   -2.2035   -0.7364 H   0  0  0  0  0  0  0  0  0  0  0  0
    7.3217   -3.7131   -0.7584 H   0  0  0  0  0  0  0  0  0  0  0  0
    6.1848   -1.6709    1.2292 H   0  0  0  0  0  0  0  0  0  0  0  0
    7.3152   -1.3121   -0.0730 H   0  0  0  0  0  0  0  0  0  0  0  0
    7.8116   -2.3659    1.2551 H   0  0  0  0  0  0  0  0  0  0  0  0
    5.8690   -4.0632    1.7807 H   0  0  0  0  0  0  0  0  0  0  0  0
    7.1139   -6.1500   -0.0595 H   0  0  0  0  0  0  0  0  0  0  0  0
    8.0385   -5.1840    0.9976 H   0  0  0  0  0  0  0  0  0  0  0  0
    7.1887   -5.4521    3.7341 H   0  0  0  0  0  0  0  0  0  0  0  0
    8.6855   -6.0762    3.0400 H   0  0  0  0  0  0  0  0  0  0  0  0
    7.6514   -7.1243    3.9928 H   0  0  0  0  0  0  0  0  0  0  0  0
    5.5104   -7.8203    3.2438 H   0  0  0  0  0  0  0  0  0  0  0  0
  1  2  1  0
  1 22  1  0
  1 23  1  0
  1 24  1  0
  3  2  1  6
  3 21  1  0
  3  4  1  0
  3  5  1  0
  4 25  1  0
  4 26  1  0
  4 27  1  0
  5  6  1  0
  5 28  1  0
  5 29  1  0
  6 19  1  0
  6  7  1  0
  6 30  1  1
  7  8  1  0
  7 31  1  0
  7 32  1  0
  8 13  1  0
  8  9  1  0
  8 20  1  1
  9 10  1  0
  9 33  1  0
  9 34  1  0
 10 11  1  0
 10 35  1  0
 10 36  1  0
 11 12  1  0
 11 13  1  0
 11 37  1  6
 12 38  1  0
 12 39  1  0
 12 40  1  0
 13 14  1  0
 13 41  1  1
 14 15  1  0
 14 42  1  0
 14 43  1  0
 15 19  1  0
 15 16  1  1
 15 17  1  0
 16 44  1  0
 16 45  1  0
 16 46  1  0
 17 18  1  0
 18 19  1  0
 19 47  1  1
 20 21  1  0
M  END
>  <i_m_ct_stereo_status>  (215) 
1

>  <s_m_source_file>  (215) 
/var/tmp/pbs.5076255.sched01/tmpzygr1bk5/76dkit4mfj.sdf

>  <i_m_source_file_index>  (215) 
19

>  <i_lp_mmshare_version>  (215) 
48012

>  <i_f3d_flags>  (215) 
0

>  <s_epik_input>  (215) 
W0NIM11PW0NAXShbQ0gzXSkoT08xKVtDSDJdW0NASF0oW0NIMl0yKVtDQEBIXShPTzMpW0NAXTMoW0NIM10pW0NIMl1bQ0BIXShbQ0BdMTI0KVtDQEhdKFtDSDNdKVtDSDJdW0NIMl00

>  <s_epik_cmdline>  (215) 
J2VwaWtfcHl0aG9uJywgJy1waHQnLCAnMi4wJywgJy1waCcsICc3LjAnLCAnLXRuJywgJzgnLCAnLW1hJywgJzIwMCcsICctaW1hZScsICc8aW5maWxlLm1hZT4nLCAnLW9tYWUnLCAnPG91dGZpbGUubWFlPic=

>  <r_lp_tautomer_probability>  (215) 
1

>  <r_epik_Ionization_Penalty>  (215) 
8.41973e-14

>  <r_epik_Ionization_Penalty_Charging>  (215) 
0

>  <r_epik_Ionization_Penalty_Neutral>  (215) 
8.41973e-14

>  <r_epik_State_Penalty>  (215) 
-0

>  <r_epik_Charging_Adjusted_Penalty>  (215) 
0

>  <i_epik_Tot_Q>  (215) 
0

>  <i_epik_Tot_abs_Q>  (215) 
0

>  <s_lp_Force_Field>  (215) 
OPLS3e

>  <r_lp_Energy>  (215) 
51.3435

>  <b_lp_Chiralities_Consistent>  (215) 
1

>  <s_lp_Variant>  (215) 
70:0-1

>  <s_i_glide_gridfile>  (215) 
pfpi4k_grid

>  <i_i_glide_lignum>  (215) 
19

>  <i_i_glide_rotatable_bonds>  (215) 
1

>  <r_i_docking_score>  (215) 
-3.08033

>  <r_i_glide_ligand_efficiency>  (215) 
-0.146682

>  <r_i_glide_ligand_efficiency_sa>  (215) 
-0.404686

>  <r_i_glide_ligand_efficiency_ln>  (215) 
-0.761606

>  <r_i_glide_gscore>  (215) 
-3.08033

>  <r_i_glide_lipo>  (215) 
-0.652605

>  <r_i_glide_hbond>  (215) 
-0.0767665

>  <r_i_glide_metal>  (215) 
-0

>  <r_i_glide_rewards>  (215) 
-1.37472

>  <r_i_glide_evdw>  (215) 
-16.199

>  <r_i_glide_ecoul>  (215) 
-0.958076

>  <r_i_glide_erotb>  (215) 
0

>  <r_i_glide_esite>  (215) 
-0.0225813

>  <r_i_glide_emodel>  (215) 
-20.9202

>  <r_i_glide_energy>  (215) 
-17.1571

>  <r_i_glide_einternal>  (215) 
0.202461

>  <r_i_glide_intrahb_reward>  (215) 
-0

>  <i_i_glide_confnum>  (215) 
1

>  <i_i_glide_posenum>  (215) 
39

>  <r_i_glide_eff_state_penalty>  (215) 
0

>  <ligand_id>  (215) 
70

>  <original_smiles>  (215) 
COC1(C)CC2CC3(CCC(C)C3CC3(C)OOC23)OO1

>  <smiles>  (215) 
[H]C([H])([H])OC1(C([H])([H])[H])OOC23C([H])([H])C([H])([H])C([H])(C([H])([H])[H])C2([H])C([H])([H])C2(C([H])([H])[H])OOC2([H])C([H])(C1([H])[H])C3([H])[H]

$$$$
70:0:2
     RDKit          3D

 47 50  0  0  1  0  0  0  0  0999 V2000
   -1.5706   -8.8009    2.3727 C   0  0  0  0  0  0  0  0  0  0  0  0
   -1.0149   -7.4868    2.3117 O   0  0  0  0  0  0  0  0  0  0  0  0
    0.3276   -7.2826    2.7645 C   0  0  1  0  0  0  0  0  0  0  0  0
    0.3520   -7.5755    4.2916 C   0  0  0  0  0  0  0  0  0  0  0  0
    1.2888   -8.2037    1.9454 C   0  0  0  0  0  0  0  0  0  0  0  0
    2.7170   -7.6991    2.0614 C   0  0  2  0  0  0  0  0  0  0  0  0
    2.9036   -6.3624    1.3169 C   0  0  0  0  0  0  0  0  0  0  0  0
    3.0813   -5.3270    2.4107 C   0  0  2  0  0  0  0  0  0  0  0  0
    3.1946   -3.8929    1.8943 C   0  0  0  0  0  0  0  0  0  0  0  0
    3.9387   -3.1406    2.9937 C   0  0  0  0  0  0  0  0  0  0  0  0
    4.9555   -4.1457    3.5399 C   0  0  1  0  0  0  0  0  0  0  0  0
    5.2740   -3.9070    5.0207 C   0  0  0  0  0  0  0  0  0  0  0  0
    4.3863   -5.5614    3.2502 C   0  0  2  0  0  0  0  0  0  0  0  0
    5.4794   -6.4870    2.5892 C   0  0  0  0  0  0  0  0  0  0  0  0
    5.2218   -8.0320    2.5189 C   0  0  2  0  0  0  0  0  0  0  0  0
    5.7768   -8.7404    3.7502 C   0  0  0  0  0  0  0  0  0  0  0  0
    5.8874   -8.5213    1.3330 O   0  0  0  0  0  0  0  0  0  0  0  0
    4.5377   -8.6567    0.6529 O   0  0  0  0  0  0  0  0  0  0  0  0
    3.9197   -8.5952    1.9479 C   0  0  2  0  0  0  0  0  0  0  0  0
    1.9373   -5.4317    3.2881 O   0  0  0  0  0  0  0  0  0  0  0  0
    0.6541   -5.8840    2.5696 O   0  0  0  0  0  0  0  0  0  0  0  0
   -2.5864   -8.7630    1.9757 H   0  0  0  0  0  0  0  0  0  0  0  0
   -1.6214   -9.1819    3.3962 H   0  0  0  0  0  0  0  0  0  0  0  0
   -1.0233   -9.5126    1.7523 H   0  0  0  0  0  0  0  0  0  0  0  0
   -0.3940   -6.9770    4.8174 H   0  0  0  0  0  0  0  0  0  0  0  0
    1.3092   -7.3644    4.7780 H   0  0  0  0  0  0  0  0  0  0  0  0
    0.1157   -8.6221    4.4977 H   0  0  0  0  0  0  0  0  0  0  0  0
    1.2328   -9.2295    2.3184 H   0  0  0  0  0  0  0  0  0  0  0  0
    0.9992   -8.2094    0.8971 H   0  0  0  0  0  0  0  0  0  0  0  0
    2.7674   -7.5585    3.1390 H   0  0  0  0  0  0  0  0  0  0  0  0
    3.7409   -6.3631    0.6237 H   0  0  0  0  0  0  0  0  0  0  0  0
    2.0575   -6.1266    0.6790 H   0  0  0  0  0  0  0  0  0  0  0  0
    3.8091   -3.8874    0.9965 H   0  0  0  0  0  0  0  0  0  0  0  0
    2.2384   -3.4353    1.6389 H   0  0  0  0  0  0  0  0  0  0  0  0
    4.4209   -2.2363    2.6151 H   0  0  0  0  0  0  0  0  0  0  0  0
    3.2243   -2.8395    3.7597 H   0  0  0  0  0  0  0  0  0  0  0  0
    5.8684   -4.0181    2.9610 H   0  0  0  0  0  0  0  0  0  0  0  0
    4.3820   -4.0093    5.6442 H   0  0  0  0  0  0  0  0  0  0  0  0
    5.6746   -2.9049    5.1808 H   0  0  0  0  0  0  0  0  0  0  0  0
    6.0161   -4.6227    5.3820 H   0  0  0  0  0  0  0  0  0  0  0  0
    4.1145   -6.0289    4.2002 H   0  0  0  0  0  0  0  0  0  0  0  0
    5.6942   -6.1199    1.5880 H   0  0  0  0  0  0  0  0  0  0  0  0
    6.4119   -6.3375    3.1194 H   0  0  0  0  0  0  0  0  0  0  0  0
    5.2114   -8.4732    4.6488 H   0  0  0  0  0  0  0  0  0  0  0  0
    6.8193   -8.4904    3.9108 H   0  0  0  0  0  0  0  0  0  0  0  0
    5.7159   -9.8257    3.6355 H   0  0  0  0  0  0  0  0  0  0  0  0
    3.7339   -9.6020    2.3480 H   0  0  0  0  0  0  0  0  0  0  0  0
  1  2  1  0
  1 22  1  0
  1 23  1  0
  1 24  1  0
  3  2  1  6
  3 21  1  0
  3  4  1  0
  3  5  1  0
  4 25  1  0
  4 26  1  0
  4 27  1  0
  5  6  1  0
  5 28  1  0
  5 29  1  0
  6 19  1  0
  6  7  1  0
  6 30  1  1
  7  8  1  0
  7 31  1  0
  7 32  1  0
  8 13  1  0
  8  9  1  0
  8 20  1  1
  9 10  1  0
  9 33  1  0
  9 34  1  0
 10 11  1  0
 10 35  1  0
 10 36  1  0
 11 12  1  0
 11 13  1  0
 11 37  1  6
 12 38  1  0
 12 39  1  0
 12 40  1  0
 13 14  1  0
 13 41  1  1
 14 15  1  0
 14 42  1  0
 14 43  1  0
 15 19  1  0
 15 16  1  1
 15 17  1  0
 16 44  1  0
 16 45  1  0
 16 46  1  0
 17 18  1  0
 18 19  1  0
 19 47  1  1
 20 21  1  0
M  END
>  <i_m_ct_stereo_status>  (216) 
1

>  <s_m_source_file>  (216) 
/var/tmp/pbs.5076255.sched01/tmpzygr1bk5/76dkit4mfj.sdf

>  <i_m_source_file_index>  (216) 
19

>  <i_lp_mmshare_version>  (216) 
48012

>  <i_f3d_flags>  (216) 
0

>  <s_epik_input>  (216) 
W0NIM11PW0NAXShbQ0gzXSkoT08xKVtDSDJdW0NASF0oW0NIMl0yKVtDQEBIXShPTzMpW0NAXTMoW0NIM10pW0NIMl1bQ0BIXShbQ0BdMTI0KVtDQEhdKFtDSDNdKVtDSDJdW0NIMl00

>  <s_epik_cmdline>  (216) 
J2VwaWtfcHl0aG9uJywgJy1waHQnLCAnMi4wJywgJy1waCcsICc3LjAnLCAnLXRuJywgJzgnLCAnLW1hJywgJzIwMCcsICctaW1hZScsICc8aW5maWxlLm1hZT4nLCAnLW9tYWUnLCAnPG91dGZpbGUubWFlPic=

>  <r_lp_tautomer_probability>  (216) 
1

>  <r_epik_Ionization_Penalty>  (216) 
8.41973e-14

>  <r_epik_Ionization_Penalty_Charging>  (216) 
0

>  <r_epik_Ionization_Penalty_Neutral>  (216) 
8.41973e-14

>  <r_epik_State_Penalty>  (216) 
-0

>  <r_epik_Charging_Adjusted_Penalty>  (216) 
0

>  <i_epik_Tot_Q>  (216) 
0

>  <i_epik_Tot_abs_Q>  (216) 
0

>  <s_lp_Force_Field>  (216) 
OPLS3e

>  <r_lp_Energy>  (216) 
51.3435

>  <b_lp_Chiralities_Consistent>  (216) 
1

>  <s_lp_Variant>  (216) 
70:0-1

>  <s_i_glide_gridfile>  (216) 
pfpi4k_grid

>  <i_i_glide_lignum>  (216) 
19

>  <i_i_glide_rotatable_bonds>  (216) 
1

>  <r_i_docking_score>  (216) 
-3.04157

>  <r_i_glide_ligand_efficiency>  (216) 
-0.144837

>  <r_i_glide_ligand_efficiency_sa>  (216) 
-0.399594

>  <r_i_glide_ligand_efficiency_ln>  (216) 
-0.752022

>  <r_i_glide_gscore>  (216) 
-3.04157

>  <r_i_glide_lipo>  (216) 
-0.259218

>  <r_i_glide_hbond>  (216) 
-0.110071

>  <r_i_glide_metal>  (216) 
-0

>  <r_i_glide_rewards>  (216) 
-1.37472

>  <r_i_glide_evdw>  (216) 
-16.3911

>  <r_i_glide_ecoul>  (216) 
-2.85154

>  <r_i_glide_erotb>  (216) 
0

>  <r_i_glide_esite>  (216) 
-0.0502792

>  <r_i_glide_emodel>  (216) 
-21.3052

>  <r_i_glide_energy>  (216) 
-19.2426

>  <r_i_glide_einternal>  (216) 
3.54636

>  <r_i_glide_intrahb_reward>  (216) 
-0

>  <i_i_glide_confnum>  (216) 
2

>  <i_i_glide_posenum>  (216) 
1

>  <r_i_glide_eff_state_penalty>  (216) 
0

>  <ligand_id>  (216) 
70

>  <original_smiles>  (216) 
COC1(C)CC2CC3(CCC(C)C3CC3(C)OOC23)OO1

>  <smiles>  (216) 
[H]C([H])([H])OC1(C([H])([H])[H])OOC23C([H])([H])C([H])([H])C([H])(C([H])([H])[H])C2([H])C([H])([H])C2(C([H])([H])[H])OOC2([H])C([H])(C1([H])[H])C3([H])[H]

$$$$
73:0:0
     RDKit          3D

 37 40  0  0  1  0  0  0  0  0999 V2000
    4.7166   -6.5202    0.4817 C   0  0  0  0  0  0  0  0  0  0  0  0
    5.2107   -5.3939    1.4083 C   0  0  2  0  0  0  0  0  0  0  0  0
    5.4544   -5.9574    2.8260 C   0  0  0  0  0  0  0  0  0  0  0  0
    5.7868   -4.8990    3.7226 O   0  0  0  0  0  0  0  0  0  0  0  0
    4.7987   -3.9248    3.7793 C   0  0  1  0  0  0  0  0  0  0  0  0
    4.9859   -3.0401    4.8567 O   0  0  0  0  0  0  0  0  0  0  0  0
    4.6559   -3.2379    2.5181 N   0  0  0  0  0  0  0  0  0  0  0  0
    5.8091   -2.3995    2.1269 C   0  0  0  0  0  0  0  0  0  0  0  0
    5.4234   -1.4443    0.9702 C   0  0  0  0  0  0  0  0  0  0  0  0
    4.6775   -2.1850   -0.0900 C   0  0  0  0  0  0  0  0  0  0  0  0
    4.1405   -3.4196    0.1524 C   0  0  0  0  0  0  0  0  0  0  0  0
    3.4811   -3.8527   -0.9802 N   0  0  0  0  0  0  0  0  0  0  0  0
    3.5914   -2.9145   -1.9869 C   0  0  0  0  0  0  0  0  0  0  0  0
    3.1228   -2.8930   -3.3069 C   0  0  0  0  0  0  0  0  0  0  0  0
    3.3843   -1.7747   -4.1133 C   0  0  0  0  0  0  0  0  0  0  0  0
    4.0999   -0.6856   -3.6019 C   0  0  0  0  0  0  0  0  0  0  0  0
    4.5822   -0.7230   -2.2838 C   0  0  0  0  0  0  0  0  0  0  0  0
    4.3446   -1.8348   -1.4385 C   0  0  0  0  0  0  0  0  0  0  0  0
    4.2513   -4.1650    1.4474 C   0  0  1  0  0  0  0  0  0  0  0  0
    3.0353   -4.7585   -1.0767 H   0  0  0  0  0  0  0  0  0  0  0  0
    3.7210   -6.8746    0.7584 H   0  0  0  0  0  0  0  0  0  0  0  0
    5.3905   -7.3787    0.5275 H   0  0  0  0  0  0  0  0  0  0  0  0
    4.6848   -6.2049   -0.5657 H   0  0  0  0  0  0  0  0  0  0  0  0
    6.1796   -5.0622    1.0282 H   0  0  0  0  0  0  0  0  0  0  0  0
    4.5816   -6.5022    3.1917 H   0  0  0  0  0  0  0  0  0  0  0  0
    6.2798   -6.6713    2.8074 H   0  0  0  0  0  0  0  0  0  0  0  0
    3.8542   -4.4285    4.0027 H   0  0  0  0  0  0  0  0  0  0  0  0
    4.5700   -3.4251    5.6126 H   0  0  0  0  0  0  0  0  0  0  0  0
    6.1615   -1.8022    2.9708 H   0  0  0  0  0  0  0  0  0  0  0  0
    6.6421   -3.0332    1.8189 H   0  0  0  0  0  0  0  0  0  0  0  0
    4.8015   -0.6352    1.3566 H   0  0  0  0  0  0  0  0  0  0  0  0
    6.3189   -0.9814    0.5557 H   0  0  0  0  0  0  0  0  0  0  0  0
    2.5509   -3.7257   -3.6862 H   0  0  0  0  0  0  0  0  0  0  0  0
    3.0165   -1.7215   -5.1173 H   0  0  0  0  0  0  0  0  0  0  0  0
    4.2593    0.1841   -4.2227 H   0  0  0  0  0  0  0  0  0  0  0  0
    5.1179    0.1293   -1.9048 H   0  0  0  0  0  0  0  0  0  0  0  0
    3.2570   -4.5177    1.7154 H   0  0  0  0  0  0  0  0  0  0  0  0
  1  2  1  0
  1 21  1  0
  1 22  1  0
  1 23  1  0
  2 19  1  0
  2  3  1  0
  2 24  1  6
  3  4  1  0
  3 25  1  0
  3 26  1  0
  4  5  1  0
  5  6  1  0
  5  7  1  0
  5 27  1  1
  6 28  1  0
  7 19  1  0
  7  8  1  0
  8  9  1  0
  8 29  1  0
  8 30  1  0
  9 10  1  0
  9 31  1  0
  9 32  1  0
 10 18  1  0
 10 11  2  0
 11 12  1  0
 11 19  1  0
 12 20  1  0
 12 13  1  0
 13 18  2  0
 13 14  1  0
 14 15  2  0
 14 33  1  0
 15 16  1  0
 15 34  1  0
 16 17  2  0
 16 35  1  0
 17 18  1  0
 17 36  1  0
 19 37  1  1
M  END
>  <i_m_ct_stereo_status>  (217) 
1

>  <s_m_source_file>  (217) 
/var/tmp/pbs.5076255.sched01/tmpzygr1bk5/76dkit4mfj.sdf

>  <i_m_source_file_index>  (217) 
22

>  <i_lp_mmshare_version>  (217) 
48012

>  <i_f3d_flags>  (217) 
0

>  <s_epik_input>  (217) 
W09IXVtDQEBIXTFPW0NIMl1bQ0BASF0oW0NIM10pW0NAQEhdKE4xMiljM2MoW0NIMl1bQ0gyXTIpYzRjKFtuSF0zKVtjSF1bY0hdW2NIXVtjSF00

>  <s_epik_cmdline>  (217) 
J2VwaWtfcHl0aG9uJywgJy1waHQnLCAnMi4wJywgJy1waCcsICc3LjAnLCAnLXRuJywgJzgnLCAnLW1hJywgJzIwMCcsICctaW1hZScsICc8aW5maWxlLm1hZT4nLCAnLW9tYWUnLCAnPG91dGZpbGUubWFlPic=

>  <r_lp_tautomer_probability>  (217) 
1

>  <r_epik_Ionization_Penalty>  (217) 
0.000379474

>  <r_epik_Ionization_Penalty_Charging>  (217) 
0

>  <r_epik_Ionization_Penalty_Neutral>  (217) 
0.000379474

>  <r_epik_State_Penalty>  (217) 
-0

>  <r_epik_Charging_Adjusted_Penalty>  (217) 
0

>  <i_epik_Tot_Q>  (217) 
0

>  <i_epik_Tot_abs_Q>  (217) 
0

>  <s_epik_Chemistry_Notes>  (217) 
This compound contains an acetal/aminal-like group ( X-CH(R)-Y where X, Y are N, S, or O) that may be acid/base labile, releasing an aldehyde.

>  <s_lp_Force_Field>  (217) 
OPLS3e

>  <r_lp_Energy>  (217) 
15.5375

>  <b_lp_Chiralities_Consistent>  (217) 
1

>  <s_lp_Variant>  (217) 
73:0-1

>  <s_i_glide_gridfile>  (217) 
pfpi4k_grid

>  <i_i_glide_lignum>  (217) 
22

>  <i_i_glide_rotatable_bonds>  (217) 
1

>  <r_i_docking_score>  (217) 
-4.13828

>  <r_i_glide_ligand_efficiency>  (217) 
-0.217804

>  <r_i_glide_ligand_efficiency_sa>  (217) 
-0.58119

>  <r_i_glide_ligand_efficiency_ln>  (217) 
-1.04914

>  <r_i_glide_gscore>  (217) 
-4.13828

>  <r_i_glide_lipo>  (217) 
-0.755866

>  <r_i_glide_hbond>  (217) 
-0.208909

>  <r_i_glide_metal>  (217) 
-0

>  <r_i_glide_rewards>  (217) 
-1.66997

>  <r_i_glide_evdw>  (217) 
-20.1775

>  <r_i_glide_ecoul>  (217) 
-3.22562

>  <r_i_glide_erotb>  (217) 
0

>  <r_i_glide_esite>  (217) 
-0.0108268

>  <r_i_glide_emodel>  (217) 
-30.2816

>  <r_i_glide_energy>  (217) 
-23.4031

>  <r_i_glide_einternal>  (217) 
0.00214892

>  <r_i_glide_intrahb_reward>  (217) 
-0

>  <i_i_glide_confnum>  (217) 
2

>  <i_i_glide_posenum>  (217) 
33

>  <r_i_glide_eff_state_penalty>  (217) 
0

>  <ligand_id>  (217) 
73

>  <original_smiles>  (217) 
CC1COC(O)N2CCc3c([nH]c4ccccc34)C12

>  <smiles>  (217) 
[H]OC1([H])OC([H])([H])C([H])(C([H])([H])[H])C2([H])c3c(c4c([H])c([H])c([H])c([H])c4n3[H])C([H])([H])C([H])([H])N12

$$$$
73:0:1
     RDKit          3D

 37 40  0  0  1  0  0  0  0  0999 V2000
    4.5542   -6.4926    0.8298 C   0  0  0  0  0  0  0  0  0  0  0  0
    4.9401   -5.3303    1.7667 C   0  0  2  0  0  0  0  0  0  0  0  0
    5.1183   -5.8610    3.2078 C   0  0  0  0  0  0  0  0  0  0  0  0
    5.3605   -4.7781    4.1038 O   0  0  0  0  0  0  0  0  0  0  0  0
    4.3375   -3.8408    4.0833 C   0  0  1  0  0  0  0  0  0  0  0  0
    4.4313   -2.9359    5.1537 O   0  0  0  0  0  0  0  0  0  0  0  0
    4.2433   -3.1805    2.8040 N   0  0  0  0  0  0  0  0  0  0  0  0
    5.3825   -2.3015    2.4703 C   0  0  0  0  0  0  0  0  0  0  0  0
    5.0323   -1.3816    1.2731 C   0  0  0  0  0  0  0  0  0  0  0  0
    4.3794   -2.1674    0.1793 C   0  0  0  0  0  0  0  0  0  0  0  0
    3.8726   -3.4131    0.4140 C   0  0  0  0  0  0  0  0  0  0  0  0
    3.2917   -3.8856   -0.7471 N   0  0  0  0  0  0  0  0  0  0  0  0
    3.4333   -2.9656   -1.7648 C   0  0  0  0  0  0  0  0  0  0  0  0
    3.0460   -2.9919   -3.1136 C   0  0  0  0  0  0  0  0  0  0  0  0
    3.3200   -1.8830   -3.9264 C   0  0  0  0  0  0  0  0  0  0  0  0
    3.9684   -0.7583   -3.3944 C   0  0  0  0  0  0  0  0  0  0  0  0
    4.3679   -0.7518   -2.0462 C   0  0  0  0  0  0  0  0  0  0  0  0
    4.1157   -1.8539   -1.1965 C   0  0  0  0  0  0  0  0  0  0  0  0
    3.9332   -4.1395    1.7275 C   0  0  1  0  0  0  0  0  0  0  0  0
    2.9070   -4.8120   -0.8541 H   0  0  0  0  0  0  0  0  0  0  0  0
    3.5574   -6.8812    1.0545 H   0  0  0  0  0  0  0  0  0  0  0  0
    5.2568   -7.3248    0.9337 H   0  0  0  0  0  0  0  0  0  0  0  0
    4.5732   -6.1944   -0.2209 H   0  0  0  0  0  0  0  0  0  0  0  0
    5.9175   -4.9683    1.4428 H   0  0  0  0  0  0  0  0  0  0  0  0
    4.2450   -6.4321    3.5327 H   0  0  0  0  0  0  0  0  0  0  0  0
    5.9689   -6.5448    3.2539 H   0  0  0  0  0  0  0  0  0  0  0  0
    3.3991   -4.3701    4.2642 H   0  0  0  0  0  0  0  0  0  0  0  0
    5.3510   -2.8206    5.3345 H   0  0  0  0  0  0  0  0  0  0  0  0
    5.6647   -1.6802    3.3228 H   0  0  0  0  0  0  0  0  0  0  0  0
    6.2548   -2.9069    2.2258 H   0  0  0  0  0  0  0  0  0  0  0  0
    4.3566   -0.5930    1.6058 H   0  0  0  0  0  0  0  0  0  0  0  0
    5.9316   -0.8907    0.9040 H   0  0  0  0  0  0  0  0  0  0  0  0
    2.5324   -3.8530   -3.5097 H   0  0  0  0  0  0  0  0  0  0  0  0
    3.0174   -1.8804   -4.9556 H   0  0  0  0  0  0  0  0  0  0  0  0
    4.1467    0.1061   -4.0151 H   0  0  0  0  0  0  0  0  0  0  0  0
    4.8438    0.1221   -1.6426 H   0  0  0  0  0  0  0  0  0  0  0  0
    2.9394   -4.5279    1.9436 H   0  0  0  0  0  0  0  0  0  0  0  0
  1  2  1  0
  1 21  1  0
  1 22  1  0
  1 23  1  0
  2 19  1  0
  2  3  1  0
  2 24  1  6
  3  4  1  0
  3 25  1  0
  3 26  1  0
  4  5  1  0
  5  6  1  0
  5  7  1  0
  5 27  1  1
  6 28  1  0
  7 19  1  0
  7  8  1  0
  8  9  1  0
  8 29  1  0
  8 30  1  0
  9 10  1  0
  9 31  1  0
  9 32  1  0
 10 18  1  0
 10 11  2  0
 11 12  1  0
 11 19  1  0
 12 20  1  0
 12 13  1  0
 13 18  2  0
 13 14  1  0
 14 15  2  0
 14 33  1  0
 15 16  1  0
 15 34  1  0
 16 17  2  0
 16 35  1  0
 17 18  1  0
 17 36  1  0
 19 37  1  1
M  END
>  <i_m_ct_stereo_status>  (218) 
1

>  <s_m_source_file>  (218) 
/var/tmp/pbs.5076255.sched01/tmpzygr1bk5/76dkit4mfj.sdf

>  <i_m_source_file_index>  (218) 
22

>  <i_lp_mmshare_version>  (218) 
48012

>  <i_f3d_flags>  (218) 
0

>  <s_epik_input>  (218) 
W09IXVtDQEBIXTFPW0NIMl1bQ0BASF0oW0NIM10pW0NAQEhdKE4xMiljM2MoW0NIMl1bQ0gyXTIpYzRjKFtuSF0zKVtjSF1bY0hdW2NIXVtjSF00

>  <s_epik_cmdline>  (218) 
J2VwaWtfcHl0aG9uJywgJy1waHQnLCAnMi4wJywgJy1waCcsICc3LjAnLCAnLXRuJywgJzgnLCAnLW1hJywgJzIwMCcsICctaW1hZScsICc8aW5maWxlLm1hZT4nLCAnLW9tYWUnLCAnPG91dGZpbGUubWFlPic=

>  <r_lp_tautomer_probability>  (218) 
1

>  <r_epik_Ionization_Penalty>  (218) 
0.000379474

>  <r_epik_Ionization_Penalty_Charging>  (218) 
0

>  <r_epik_Ionization_Penalty_Neutral>  (218) 
0.000379474

>  <r_epik_State_Penalty>  (218) 
-0

>  <r_epik_Charging_Adjusted_Penalty>  (218) 
0

>  <i_epik_Tot_Q>  (218) 
0

>  <i_epik_Tot_abs_Q>  (218) 
0

>  <s_epik_Chemistry_Notes>  (218) 
This compound contains an acetal/aminal-like group ( X-CH(R)-Y where X, Y are N, S, or O) that may be acid/base labile, releasing an aldehyde.

>  <s_lp_Force_Field>  (218) 
OPLS3e

>  <r_lp_Energy>  (218) 
15.5375

>  <b_lp_Chiralities_Consistent>  (218) 
1

>  <s_lp_Variant>  (218) 
73:0-1

>  <s_i_glide_gridfile>  (218) 
pfpi4k_grid

>  <i_i_glide_lignum>  (218) 
22

>  <i_i_glide_rotatable_bonds>  (218) 
1

>  <r_i_docking_score>  (218) 
-3.80433

>  <r_i_glide_ligand_efficiency>  (218) 
-0.200228

>  <r_i_glide_ligand_efficiency_sa>  (218) 
-0.534288

>  <r_i_glide_ligand_efficiency_ln>  (218) 
-0.964479

>  <r_i_glide_gscore>  (218) 
-3.80433

>  <r_i_glide_lipo>  (218) 
-0.638522

>  <r_i_glide_hbond>  (218) 
-0.119571

>  <r_i_glide_metal>  (218) 
-0

>  <r_i_glide_rewards>  (218) 
-1.65502

>  <r_i_glide_evdw>  (218) 
-20.7567

>  <r_i_glide_ecoul>  (218) 
-2.2725

>  <r_i_glide_erotb>  (218) 
0

>  <r_i_glide_esite>  (218) 
-0.0125037

>  <r_i_glide_emodel>  (218) 
-28.9804

>  <r_i_glide_energy>  (218) 
-23.0292

>  <r_i_glide_einternal>  (218) 
0.733111

>  <r_i_glide_intrahb_reward>  (218) 
-0

>  <i_i_glide_confnum>  (218) 
2

>  <i_i_glide_posenum>  (218) 
10

>  <r_i_glide_eff_state_penalty>  (218) 
0

>  <ligand_id>  (218) 
73

>  <original_smiles>  (218) 
CC1COC(O)N2CCc3c([nH]c4ccccc34)C12

>  <smiles>  (218) 
[H]OC1([H])OC([H])([H])C([H])(C([H])([H])[H])C2([H])c3c(c4c([H])c([H])c([H])c([H])c4n3[H])C([H])([H])C([H])([H])N12

$$$$
73:0:2
     RDKit          3D

 37 40  0  0  1  0  0  0  0  0999 V2000
    0.9441   -2.2570    6.0945 C   0  0  0  0  0  0  0  0  0  0  0  0
    0.5468   -1.5241    4.7971 C   0  0  2  0  0  0  0  0  0  0  0  0
    1.2870   -2.1604    3.6009 C   0  0  0  0  0  0  0  0  0  0  0  0
    1.0152   -1.4210    2.4203 O   0  0  0  0  0  0  0  0  0  0  0  0
    1.3942   -0.0971    2.5286 C   0  0  1  0  0  0  0  0  0  0  0  0
    1.4103    0.5426    1.2814 O   0  0  0  0  0  0  0  0  0  0  0  0
    0.6075    0.6044    3.5120 N   0  0  0  0  0  0  0  0  0  0  0  0
   -0.8167    0.7960    3.1665 C   0  0  0  0  0  0  0  0  0  0  0  0
   -1.4802    1.8330    4.1085 C   0  0  0  0  0  0  0  0  0  0  0  0
   -1.1164    1.5601    5.5345 C   0  0  0  0  0  0  0  0  0  0  0  0
   -0.0794    0.7389    5.8511 C   0  0  0  0  0  0  0  0  0  0  0  0
    0.0585    0.6914    7.2267 N   0  0  0  0  0  0  0  0  0  0  0  0
   -0.8903    1.4912    7.8325 C   0  0  0  0  0  0  0  0  0  0  0  0
   -1.1693    1.7703    9.1816 C   0  0  0  0  0  0  0  0  0  0  0  0
   -2.2288    2.6336    9.5128 C   0  0  0  0  0  0  0  0  0  0  0  0
   -2.9963    3.2159    8.4852 C   0  0  0  0  0  0  0  0  0  0  0  0
   -2.7111    2.9303    7.1315 C   0  0  0  0  0  0  0  0  0  0  0  0
   -1.6570    2.0576    6.7710 C   0  0  0  0  0  0  0  0  0  0  0  0
    0.7855    0.0173    4.8530 C   0  0  1  0  0  0  0  0  0  0  0  0
    0.7825    0.1627    7.6927 H   0  0  0  0  0  0  0  0  0  0  0  0
    1.9939   -2.0852    6.3479 H   0  0  0  0  0  0  0  0  0  0  0  0
    0.8087   -3.3370    5.9850 H   0  0  0  0  0  0  0  0  0  0  0  0
    0.3335   -1.9445    6.9444 H   0  0  0  0  0  0  0  0  0  0  0  0
   -0.5189   -1.6987    4.6404 H   0  0  0  0  0  0  0  0  0  0  0  0
    2.3628   -2.2190    3.7763 H   0  0  0  0  0  0  0  0  0  0  0  0
    0.9363   -3.1835    3.4453 H   0  0  0  0  0  0  0  0  0  0  0  0
    2.4376   -0.0667    2.8441 H   0  0  0  0  0  0  0  0  0  0  0  0
    1.0274   -0.0434    0.6173 H   0  0  0  0  0  0  0  0  0  0  0  0
   -0.9305    1.1228    2.1316 H   0  0  0  0  0  0  0  0  0  0  0  0
   -1.3467   -0.1506    3.2584 H   0  0  0  0  0  0  0  0  0  0  0  0
   -1.1580    2.8354    3.8265 H   0  0  0  0  0  0  0  0  0  0  0  0
   -2.5619    1.8068    3.9834 H   0  0  0  0  0  0  0  0  0  0  0  0
   -0.5787    1.3210    9.9635 H   0  0  0  0  0  0  0  0  0  0  0  0
   -2.4524    2.8398   10.5503 H   0  0  0  0  0  0  0  0  0  0  0  0
   -3.8093    3.8805    8.7402 H   0  0  0  0  0  0  0  0  0  0  0  0
   -3.3073    3.3764    6.3516 H   0  0  0  0  0  0  0  0  0  0  0  0
    1.8269    0.1898    5.1222 H   0  0  0  0  0  0  0  0  0  0  0  0
  1  2  1  0
  1 21  1  0
  1 22  1  0
  1 23  1  0
  2 19  1  0
  2  3  1  0
  2 24  1  6
  3  4  1  0
  3 25  1  0
  3 26  1  0
  4  5  1  0
  5  6  1  0
  5  7  1  0
  5 27  1  1
  6 28  1  0
  7 19  1  0
  7  8  1  0
  8  9  1  0
  8 29  1  0
  8 30  1  0
  9 10  1  0
  9 31  1  0
  9 32  1  0
 10 18  1  0
 10 11  2  0
 11 12  1  0
 11 19  1  0
 12 20  1  0
 12 13  1  0
 13 18  2  0
 13 14  1  0
 14 15  2  0
 14 33  1  0
 15 16  1  0
 15 34  1  0
 16 17  2  0
 16 35  1  0
 17 18  1  0
 17 36  1  0
 19 37  1  1
M  END
>  <i_m_ct_stereo_status>  (219) 
1

>  <s_m_source_file>  (219) 
/var/tmp/pbs.5076255.sched01/tmpzygr1bk5/76dkit4mfj.sdf

>  <i_m_source_file_index>  (219) 
22

>  <i_lp_mmshare_version>  (219) 
48012

>  <i_f3d_flags>  (219) 
0

>  <s_epik_input>  (219) 
W09IXVtDQEBIXTFPW0NIMl1bQ0BASF0oW0NIM10pW0NAQEhdKE4xMiljM2MoW0NIMl1bQ0gyXTIpYzRjKFtuSF0zKVtjSF1bY0hdW2NIXVtjSF00

>  <s_epik_cmdline>  (219) 
J2VwaWtfcHl0aG9uJywgJy1waHQnLCAnMi4wJywgJy1waCcsICc3LjAnLCAnLXRuJywgJzgnLCAnLW1hJywgJzIwMCcsICctaW1hZScsICc8aW5maWxlLm1hZT4nLCAnLW9tYWUnLCAnPG91dGZpbGUubWFlPic=

>  <r_lp_tautomer_probability>  (219) 
1

>  <r_epik_Ionization_Penalty>  (219) 
0.000379474

>  <r_epik_Ionization_Penalty_Charging>  (219) 
0

>  <r_epik_Ionization_Penalty_Neutral>  (219) 
0.000379474

>  <r_epik_State_Penalty>  (219) 
-0

>  <r_epik_Charging_Adjusted_Penalty>  (219) 
0

>  <i_epik_Tot_Q>  (219) 
0

>  <i_epik_Tot_abs_Q>  (219) 
0

>  <s_epik_Chemistry_Notes>  (219) 
This compound contains an acetal/aminal-like group ( X-CH(R)-Y where X, Y are N, S, or O) that may be acid/base labile, releasing an aldehyde.

>  <s_lp_Force_Field>  (219) 
OPLS3e

>  <r_lp_Energy>  (219) 
15.5375

>  <b_lp_Chiralities_Consistent>  (219) 
1

>  <s_lp_Variant>  (219) 
73:0-1

>  <s_i_glide_gridfile>  (219) 
pfpi4k_grid

>  <i_i_glide_lignum>  (219) 
22

>  <i_i_glide_rotatable_bonds>  (219) 
1

>  <r_i_docking_score>  (219) 
-3.44872

>  <r_i_glide_ligand_efficiency>  (219) 
-0.181512

>  <r_i_glide_ligand_efficiency_sa>  (219) 
-0.484346

>  <r_i_glide_ligand_efficiency_ln>  (219) 
-0.874325

>  <r_i_glide_gscore>  (219) 
-3.44872

>  <r_i_glide_lipo>  (219) 
-0.274186

>  <r_i_glide_hbond>  (219) 
0

>  <r_i_glide_metal>  (219) 
-0

>  <r_i_glide_rewards>  (219) 
-1.64785

>  <r_i_glide_evdw>  (219) 
-18.2975

>  <r_i_glide_ecoul>  (219) 
-3.71908

>  <r_i_glide_erotb>  (219) 
0

>  <r_i_glide_esite>  (219) 
-0.0539523

>  <r_i_glide_emodel>  (219) 
-27.2334

>  <r_i_glide_energy>  (219) 
-22.0166

>  <r_i_glide_einternal>  (219) 
0.938392

>  <r_i_glide_intrahb_reward>  (219) 
-0

>  <i_i_glide_confnum>  (219) 
1

>  <i_i_glide_posenum>  (219) 
9

>  <r_i_glide_eff_state_penalty>  (219) 
0

>  <ligand_id>  (219) 
73

>  <original_smiles>  (219) 
CC1COC(O)N2CCc3c([nH]c4ccccc34)C12

>  <smiles>  (219) 
[H]OC1([H])OC([H])([H])C([H])(C([H])([H])[H])C2([H])c3c(c4c([H])c([H])c([H])c([H])c4n3[H])C([H])([H])C([H])([H])N12

$$$$
76:0:0
     RDKit          3D

 33 36  0  0  1  0  0  0  0  0999 V2000
    4.1130   -1.1535   -4.2222 C   0  0  0  0  0  0  0  0  0  0  0  0
    3.5661   -2.0376   -3.3970 C   0  0  0  0  0  0  0  0  0  0  0  0
    2.4037   -1.8722   -2.5003 C   0  0  0  0  0  0  0  0  0  0  0  0
    3.1439   -2.9362   -1.6607 C   0  0  2  0  0  0  0  0  0  0  0  0
    2.3881   -3.9284   -0.7652 C   0  0  0  0  0  0  0  0  0  0  0  0
    2.7264   -3.0544    0.4373 C   0  0  0  0  0  0  0  0  0  0  0  0
    3.8823   -2.4812   -0.3870 C   0  0  1  0  0  0  0  0  0  0  0  0
    5.0529   -3.2526   -0.1419 O   0  0  0  0  0  0  0  0  0  0  0  0
    6.2451   -2.7555   -0.7400 C   0  0  2  0  0  0  0  0  0  0  0  0
    7.4211   -2.5399    0.2180 C   0  0  0  0  0  0  0  0  0  0  0  0
    8.7898   -2.6703   -0.4473 C   0  0  0  0  0  0  0  0  0  0  0  0
    6.1059   -1.8581   -1.8513 O   0  0  0  0  0  0  0  0  0  0  0  0
    6.3441   -3.2237   -2.1720 C   0  0  2  0  0  0  0  0  0  0  0  0
    5.2764   -3.9546   -2.9692 C   0  0  0  0  0  0  0  0  0  0  0  0
    3.8430   -3.4444   -2.9366 C   0  0  2  0  0  0  0  0  0  0  0  0
    4.9638   -1.4012   -4.7928 H   0  0  0  0  0  0  0  0  0  0  0  0
    3.6903   -0.1545   -4.3234 H   0  0  0  0  0  0  0  0  0  0  0  0
    2.3327   -0.8787   -2.0478 H   0  0  0  0  0  0  0  0  0  0  0  0
    1.4469   -2.2593   -2.8421 H   0  0  0  0  0  0  0  0  0  0  0  0
    1.3321   -4.0228   -1.0054 H   0  0  0  0  0  0  0  0  0  0  0  0
    2.8919   -4.8968   -0.7107 H   0  0  0  0  0  0  0  0  0  0  0  0
    1.9532   -2.3151    0.6594 H   0  0  0  0  0  0  0  0  0  0  0  0
    3.0409   -3.6098    1.3233 H   0  0  0  0  0  0  0  0  0  0  0  0
    3.9886   -1.4061   -0.2759 H   0  0  0  0  0  0  0  0  0  0  0  0
    7.3249   -1.5634    0.6925 H   0  0  0  0  0  0  0  0  0  0  0  0
    7.3463   -3.2752    1.0180 H   0  0  0  0  0  0  0  0  0  0  0  0
    9.6036   -2.5428    0.2612 H   0  0  0  0  0  0  0  0  0  0  0  0
    8.9340   -1.9345   -1.2309 H   0  0  0  0  0  0  0  0  0  0  0  0
    8.9220   -3.6501   -0.8968 H   0  0  0  0  0  0  0  0  0  0  0  0
    7.3470   -3.4472   -2.5178 H   0  0  0  0  0  0  0  0  0  0  0  0
    5.6214   -4.0366   -3.9886 H   0  0  0  0  0  0  0  0  0  0  0  0
    5.2379   -4.9617   -2.5665 H   0  0  0  0  0  0  0  0  0  0  0  0
    3.1873   -4.1350   -3.4668 H   0  0  0  0  0  0  0  0  0  0  0  0
  1  2  2  0
  1 16  1  0
  1 17  1  0
  2 15  1  0
  2  3  1  0
  4  3  1  6
  3 18  1  0
  3 19  1  0
  4  7  1  0
  4 15  1  0
  4  5  1  0
  5  6  1  0
  5 20  1  0
  5 21  1  0
  6  7  1  0
  6 22  1  0
  6 23  1  0
  7  8  1  0
  7 24  1  6
  8  9  1  0
  9 13  1  0
  9 10  1  1
  9 12  1  0
 10 11  1  0
 10 25  1  0
 10 26  1  0
 11 27  1  0
 11 28  1  0
 11 29  1  0
 12 13  1  0
 13 14  1  0
 13 30  1  1
 14 15  1  0
 14 31  1  0
 14 32  1  0
 15 33  1  6
M  END
>  <i_m_ct_stereo_status>  (220) 
1

>  <s_m_source_file>  (220) 
/var/tmp/pbs.5076255.sched01/tmpzygr1bk5/76dkit4mfj.sdf

>  <i_m_source_file_index>  (220) 
25

>  <i_lp_mmshare_version>  (220) 
48012

>  <i_f3d_flags>  (220) 
0

>  <s_epik_input>  (220) 
W0NIMl09QyhbQ0gyXTEpW0NASF0yW0NIMl1bQ0BASF0oTzMpW0NAXTMoW0NIMl1bQ0gzXSlPW0NAQEhdKFtDQEBdMTI0KVtDSDJdW0NIMl00

>  <s_epik_cmdline>  (220) 
J2VwaWtfcHl0aG9uJywgJy1waHQnLCAnMi4wJywgJy1waCcsICc3LjAnLCAnLXRuJywgJzgnLCAnLW1hJywgJzIwMCcsICctaW1hZScsICc8aW5maWxlLm1hZT4nLCAnLW9tYWUnLCAnPG91dGZpbGUubWFlPic=

>  <r_lp_tautomer_probability>  (220) 
1

>  <r_epik_Ionization_Penalty>  (220) 
1.59212e-12

>  <r_epik_Ionization_Penalty_Charging>  (220) 
0

>  <r_epik_Ionization_Penalty_Neutral>  (220) 
1.59212e-12

>  <r_epik_State_Penalty>  (220) 
-0

>  <r_epik_Charging_Adjusted_Penalty>  (220) 
0

>  <i_epik_Tot_Q>  (220) 
0

>  <i_epik_Tot_abs_Q>  (220) 
0

>  <s_lp_Force_Field>  (220) 
OPLS3e

>  <r_lp_Energy>  (220) 
18.9494

>  <b_lp_Chiralities_Consistent>  (220) 
1

>  <s_lp_Variant>  (220) 
76:0-1

>  <s_i_glide_gridfile>  (220) 
pfpi4k_grid

>  <i_i_glide_lignum>  (220) 
25

>  <i_i_glide_rotatable_bonds>  (220) 
1

>  <r_i_docking_score>  (220) 
-3.50696

>  <r_i_glide_ligand_efficiency>  (220) 
-0.233797

>  <r_i_glide_ligand_efficiency_sa>  (220) 
-0.576593

>  <r_i_glide_ligand_efficiency_ln>  (220) 
-0.945768

>  <r_i_glide_gscore>  (220) 
-3.50696

>  <r_i_glide_lipo>  (220) 
-0.455929

>  <r_i_glide_hbond>  (220) 
-0.117057

>  <r_i_glide_metal>  (220) 
-0

>  <r_i_glide_rewards>  (220) 
-2.00263

>  <r_i_glide_evdw>  (220) 
-13.3882

>  <r_i_glide_ecoul>  (220) 
-1.71106

>  <r_i_glide_erotb>  (220) 
0

>  <r_i_glide_esite>  (220) 
-0.005273

>  <r_i_glide_emodel>  (220) 
-16.9246

>  <r_i_glide_energy>  (220) 
-15.0992

>  <r_i_glide_einternal>  (220) 
1.8281

>  <r_i_glide_intrahb_reward>  (220) 
-0

>  <i_i_glide_confnum>  (220) 
2

>  <i_i_glide_posenum>  (220) 
35

>  <r_i_glide_eff_state_penalty>  (220) 
0

>  <ligand_id>  (220) 
76

>  <original_smiles>  (220) 
C=C1CC23CCC2OC2(CC)OC2CC13

>  <smiles>  (220) 
[H]C([H])=C1C([H])([H])C23C([H])([H])C([H])([H])C2([H])OC2(C([H])([H])C([H])([H])[H])OC2([H])C([H])([H])C13[H]

$$$$
76:0:1
     RDKit          3D

 33 36  0  0  1  0  0  0  0  0999 V2000
    3.5216   -3.4141    1.7069 C   0  0  0  0  0  0  0  0  0  0  0  0
    3.2330   -2.9333    0.4817 C   0  0  0  0  0  0  0  0  0  0  0  0
    2.3844   -3.4964   -0.6305 C   0  0  0  0  0  0  0  0  0  0  0  0
    3.3578   -2.6737   -1.4974 C   0  0  2  0  0  0  0  0  0  0  0  0
    2.9142   -2.0917   -2.8423 C   0  0  0  0  0  0  0  0  0  0  0  0
    3.6151   -3.2568   -3.5320 C   0  0  0  0  0  0  0  0  0  0  0  0
    4.4609   -3.4162   -2.2649 C   0  0  1  0  0  0  0  0  0  0  0  0
    5.6269   -2.6159   -2.3661 O   0  0  0  0  0  0  0  0  0  0  0  0
    6.5664   -2.8342   -1.3228 C   0  0  2  0  0  0  0  0  0  0  0  0
    7.9777   -3.1946   -1.7469 C   0  0  0  0  0  0  0  0  0  0  0  0
    8.8211   -3.8557   -0.6511 C   0  0  0  0  0  0  0  0  0  0  0  0
    6.0845   -3.3140   -0.0587 O   0  0  0  0  0  0  0  0  0  0  0  0
    6.2590   -1.9055   -0.1811 C   0  0  2  0  0  0  0  0  0  0  0  0
    5.0056   -1.0709   -0.0294 C   0  0  0  0  0  0  0  0  0  0  0  0
    3.6469   -1.7160   -0.3164 C   0  0  2  0  0  0  0  0  0  0  0  0
    4.1811   -2.8872    2.3805 H   0  0  0  0  0  0  0  0  0  0  0  0
    3.0913   -4.3531    2.0361 H   0  0  0  0  0  0  0  0  0  0  0  0
    2.3943   -4.5684   -0.8316 H   0  0  0  0  0  0  0  0  0  0  0  0
    1.3891   -3.0928   -0.7421 H   0  0  0  0  0  0  0  0  0  0  0  0
    1.8375   -2.0695   -2.9902 H   0  0  0  0  0  0  0  0  0  0  0  0
    3.3930   -1.1347   -3.0573 H   0  0  0  0  0  0  0  0  0  0  0  0
    2.9253   -4.0841   -3.7168 H   0  0  0  0  0  0  0  0  0  0  0  0
    4.1882   -2.9842   -4.4179 H   0  0  0  0  0  0  0  0  0  0  0  0
    4.6155   -4.4539   -1.9711 H   0  0  0  0  0  0  0  0  0  0  0  0
    7.9095   -3.8623   -2.6082 H   0  0  0  0  0  0  0  0  0  0  0  0
    8.4755   -2.2985   -2.1077 H   0  0  0  0  0  0  0  0  0  0  0  0
    9.8122   -4.0862   -1.0313 H   0  0  0  0  0  0  0  0  0  0  0  0
    8.3721   -4.7874   -0.3099 H   0  0  0  0  0  0  0  0  0  0  0  0
    8.9317   -3.2029    0.2166 H   0  0  0  0  0  0  0  0  0  0  0  0
    7.1444   -1.4915    0.2885 H   0  0  0  0  0  0  0  0  0  0  0  0
    5.0209   -0.6078    0.9549 H   0  0  0  0  0  0  0  0  0  0  0  0
    5.1183   -0.2591   -0.7391 H   0  0  0  0  0  0  0  0  0  0  0  0
    2.8797   -0.9493   -0.2861 H   0  0  0  0  0  0  0  0  0  0  0  0
  1  2  2  0
  1 16  1  0
  1 17  1  0
  2 15  1  0
  2  3  1  0
  4  3  1  1
  3 18  1  0
  3 19  1  0
  4  7  1  0
  4 15  1  0
  4  5  1  0
  5  6  1  0
  5 20  1  0
  5 21  1  0
  6  7  1  0
  6 22  1  0
  6 23  1  0
  7  8  1  0
  7 24  1  1
  8  9  1  0
  9 13  1  0
  9 10  1  6
  9 12  1  0
 10 11  1  0
 10 25  1  0
 10 26  1  0
 11 27  1  0
 11 28  1  0
 11 29  1  0
 12 13  1  0
 13 14  1  0
 13 30  1  1
 14 15  1  0
 14 31  1  0
 14 32  1  0
 15 33  1  6
M  END
>  <i_m_ct_stereo_status>  (221) 
1

>  <s_m_source_file>  (221) 
/var/tmp/pbs.5076255.sched01/tmpzygr1bk5/76dkit4mfj.sdf

>  <i_m_source_file_index>  (221) 
25

>  <i_lp_mmshare_version>  (221) 
48012

>  <i_f3d_flags>  (221) 
0

>  <s_epik_input>  (221) 
W0NIMl09QyhbQ0gyXTEpW0NASF0yW0NIMl1bQ0BASF0oTzMpW0NAXTMoW0NIMl1bQ0gzXSlPW0NAQEhdKFtDQEBdMTI0KVtDSDJdW0NIMl00

>  <s_epik_cmdline>  (221) 
J2VwaWtfcHl0aG9uJywgJy1waHQnLCAnMi4wJywgJy1waCcsICc3LjAnLCAnLXRuJywgJzgnLCAnLW1hJywgJzIwMCcsICctaW1hZScsICc8aW5maWxlLm1hZT4nLCAnLW9tYWUnLCAnPG91dGZpbGUubWFlPic=

>  <r_lp_tautomer_probability>  (221) 
1

>  <r_epik_Ionization_Penalty>  (221) 
1.59212e-12

>  <r_epik_Ionization_Penalty_Charging>  (221) 
0

>  <r_epik_Ionization_Penalty_Neutral>  (221) 
1.59212e-12

>  <r_epik_State_Penalty>  (221) 
-0

>  <r_epik_Charging_Adjusted_Penalty>  (221) 
0

>  <i_epik_Tot_Q>  (221) 
0

>  <i_epik_Tot_abs_Q>  (221) 
0

>  <s_lp_Force_Field>  (221) 
OPLS3e

>  <r_lp_Energy>  (221) 
18.9494

>  <b_lp_Chiralities_Consistent>  (221) 
1

>  <s_lp_Variant>  (221) 
76:0-1

>  <s_i_glide_gridfile>  (221) 
pfpi4k_grid

>  <i_i_glide_lignum>  (221) 
25

>  <i_i_glide_rotatable_bonds>  (221) 
1

>  <r_i_docking_score>  (221) 
-3.03172

>  <r_i_glide_ligand_efficiency>  (221) 
-0.202115

>  <r_i_glide_ligand_efficiency_sa>  (221) 
-0.498458

>  <r_i_glide_ligand_efficiency_ln>  (221) 
-0.817606

>  <r_i_glide_gscore>  (221) 
-3.03172

>  <r_i_glide_lipo>  (221) 
-0.200976

>  <r_i_glide_hbond>  (221) 
0

>  <r_i_glide_metal>  (221) 
-0

>  <r_i_glide_rewards>  (221) 
-2.00263

>  <r_i_glide_evdw>  (221) 
-16.3346

>  <r_i_glide_ecoul>  (221) 
-0.0186943

>  <r_i_glide_erotb>  (221) 
0

>  <r_i_glide_esite>  (221) 
-0.00858238

>  <r_i_glide_emodel>  (221) 
-17.5916

>  <r_i_glide_energy>  (221) 
-16.3533

>  <r_i_glide_einternal>  (221) 
2.40242

>  <r_i_glide_intrahb_reward>  (221) 
-0

>  <i_i_glide_confnum>  (221) 
2

>  <i_i_glide_posenum>  (221) 
2

>  <r_i_glide_eff_state_penalty>  (221) 
0

>  <ligand_id>  (221) 
76

>  <original_smiles>  (221) 
C=C1CC23CCC2OC2(CC)OC2CC13

>  <smiles>  (221) 
[H]C([H])=C1C([H])([H])C23C([H])([H])C([H])([H])C2([H])OC2(C([H])([H])C([H])([H])[H])OC2([H])C([H])([H])C13[H]

$$$$
76:0:2
     RDKit          3D

 33 36  0  0  1  0  0  0  0  0999 V2000
    6.4603   -1.3908    0.4755 C   0  0  0  0  0  0  0  0  0  0  0  0
    5.8286   -1.8768   -0.6031 C   0  0  0  0  0  0  0  0  0  0  0  0
    4.9388   -1.2119   -1.6307 C   0  0  0  0  0  0  0  0  0  0  0  0
    4.3308   -2.6323   -1.7022 C   0  0  2  0  0  0  0  0  0  0  0  0
    3.6898   -3.1471   -2.9917 C   0  0  0  0  0  0  0  0  0  0  0  0
    2.3302   -2.8385   -2.3889 C   0  0  0  0  0  0  0  0  0  0  0  0
    2.9799   -2.8818   -0.9996 C   0  0  1  0  0  0  0  0  0  0  0  0
    2.8640   -4.1947   -0.4756 O   0  0  0  0  0  0  0  0  0  0  0  0
    3.3199   -4.3740    0.8632 C   0  0  2  0  0  0  0  0  0  0  0  0
    2.3154   -5.0165    1.8178 C   0  0  0  0  0  0  0  0  0  0  0  0
    2.9379   -5.6059    3.0910 C   0  0  0  0  0  0  0  0  0  0  0  0
    4.2414   -3.4040    1.3822 O   0  0  0  0  0  0  0  0  0  0  0  0
    4.8067   -4.6125    0.8710 C   0  0  2  0  0  0  0  0  0  0  0  0
    5.7495   -4.4871   -0.3023 C   0  0  0  0  0  0  0  0  0  0  0  0
    5.6568   -3.2536   -1.2179 C   0  0  2  0  0  0  0  0  0  0  0  0
    7.0393   -2.0213    1.1366 H   0  0  0  0  0  0  0  0  0  0  0  0
    6.3938   -0.3350    0.7011 H   0  0  0  0  0  0  0  0  0  0  0  0
    4.2291   -0.4453   -1.3110 H   0  0  0  0  0  0  0  0  0  0  0  0
    5.4073   -0.9367   -2.5735 H   0  0  0  0  0  0  0  0  0  0  0  0
    3.9262   -2.5760   -3.8809 H   0  0  0  0  0  0  0  0  0  0  0  0
    3.8541   -4.2180   -3.1205 H   0  0  0  0  0  0  0  0  0  0  0  0
    1.9845   -1.8500   -2.6746 H   0  0  0  0  0  0  0  0  0  0  0  0
    1.5675   -3.6004   -2.5463 H   0  0  0  0  0  0  0  0  0  0  0  0
    2.6394   -2.0813   -0.3338 H   0  0  0  0  0  0  0  0  0  0  0  0
    1.5590   -4.2832    2.0972 H   0  0  0  0  0  0  0  0  0  0  0  0
    1.8047   -5.8110    1.2776 H   0  0  0  0  0  0  0  0  0  0  0  0
    2.1911   -6.0822    3.7240 H   0  0  0  0  0  0  0  0  0  0  0  0
    3.4312   -4.8336    3.6781 H   0  0  0  0  0  0  0  0  0  0  0  0
    3.6719   -6.3745    2.8604 H   0  0  0  0  0  0  0  0  0  0  0  0
    5.1625   -5.3173    1.6182 H   0  0  0  0  0  0  0  0  0  0  0  0
    6.7599   -4.6148    0.0758 H   0  0  0  0  0  0  0  0  0  0  0  0
    5.5382   -5.3709   -0.9050 H   0  0  0  0  0  0  0  0  0  0  0  0
    6.3061   -3.3865   -2.0810 H   0  0  0  0  0  0  0  0  0  0  0  0
  1  2  2  0
  1 16  1  0
  1 17  1  0
  2 15  1  0
  2  3  1  0
  4  3  1  6
  3 18  1  0
  3 19  1  0
  4  7  1  0
  4 15  1  0
  4  5  1  0
  5  6  1  0
  5 20  1  0
  5 21  1  0
  6  7  1  0
  6 22  1  0
  6 23  1  0
  7  8  1  0
  7 24  1  1
  8  9  1  0
  9 13  1  0
  9 10  1  1
  9 12  1  0
 10 11  1  0
 10 25  1  0
 10 26  1  0
 11 27  1  0
 11 28  1  0
 11 29  1  0
 12 13  1  0
 13 14  1  0
 13 30  1  1
 14 15  1  0
 14 31  1  0
 14 32  1  0
 15 33  1  6
M  END
>  <i_m_ct_stereo_status>  (222) 
1

>  <s_m_source_file>  (222) 
/var/tmp/pbs.5076255.sched01/tmpzygr1bk5/76dkit4mfj.sdf

>  <i_m_source_file_index>  (222) 
25

>  <i_lp_mmshare_version>  (222) 
48012

>  <i_f3d_flags>  (222) 
0

>  <s_epik_input>  (222) 
W0NIMl09QyhbQ0gyXTEpW0NASF0yW0NIMl1bQ0BASF0oTzMpW0NAXTMoW0NIMl1bQ0gzXSlPW0NAQEhdKFtDQEBdMTI0KVtDSDJdW0NIMl00

>  <s_epik_cmdline>  (222) 
J2VwaWtfcHl0aG9uJywgJy1waHQnLCAnMi4wJywgJy1waCcsICc3LjAnLCAnLXRuJywgJzgnLCAnLW1hJywgJzIwMCcsICctaW1hZScsICc8aW5maWxlLm1hZT4nLCAnLW9tYWUnLCAnPG91dGZpbGUubWFlPic=

>  <r_lp_tautomer_probability>  (222) 
1

>  <r_epik_Ionization_Penalty>  (222) 
1.59212e-12

>  <r_epik_Ionization_Penalty_Charging>  (222) 
0

>  <r_epik_Ionization_Penalty_Neutral>  (222) 
1.59212e-12

>  <r_epik_State_Penalty>  (222) 
-0

>  <r_epik_Charging_Adjusted_Penalty>  (222) 
0

>  <i_epik_Tot_Q>  (222) 
0

>  <i_epik_Tot_abs_Q>  (222) 
0

>  <s_lp_Force_Field>  (222) 
OPLS3e

>  <r_lp_Energy>  (222) 
18.9494

>  <b_lp_Chiralities_Consistent>  (222) 
1

>  <s_lp_Variant>  (222) 
76:0-1

>  <s_i_glide_gridfile>  (222) 
pfpi4k_grid

>  <i_i_glide_lignum>  (222) 
25

>  <i_i_glide_rotatable_bonds>  (222) 
1

>  <r_i_docking_score>  (222) 
-2.96303

>  <r_i_glide_ligand_efficiency>  (222) 
-0.197535

>  <r_i_glide_ligand_efficiency_sa>  (222) 
-0.487164

>  <r_i_glide_ligand_efficiency_ln>  (222) 
-0.799081

>  <r_i_glide_gscore>  (222) 
-2.96303

>  <r_i_glide_lipo>  (222) 
-0.217071

>  <r_i_glide_hbond>  (222) 
0

>  <r_i_glide_metal>  (222) 
-0

>  <r_i_glide_rewards>  (222) 
-2.00263

>  <r_i_glide_evdw>  (222) 
-14.3507

>  <r_i_glide_ecoul>  (222) 
-0.146238

>  <r_i_glide_erotb>  (222) 
0

>  <r_i_glide_esite>  (222) 
-0.00386096

>  <r_i_glide_emodel>  (222) 
-16.0359

>  <r_i_glide_energy>  (222) 
-14.4969

>  <r_i_glide_einternal>  (222) 
1.61409

>  <r_i_glide_intrahb_reward>  (222) 
-0

>  <i_i_glide_confnum>  (222) 
1

>  <i_i_glide_posenum>  (222) 
8

>  <r_i_glide_eff_state_penalty>  (222) 
0

>  <ligand_id>  (222) 
76

>  <original_smiles>  (222) 
C=C1CC23CCC2OC2(CC)OC2CC13

>  <smiles>  (222) 
[H]C([H])=C1C([H])([H])C23C([H])([H])C([H])([H])C2([H])OC2(C([H])([H])C([H])([H])[H])OC2([H])C([H])([H])C13[H]

$$$$
78:0:0
     RDKit          3D

 90 96  0  0  1  0  0  0  0  0999 V2000
    0.6494   -6.3530    7.5017 C   0  0  0  0  0  0  0  0  0  0  0  0
    1.1361   -5.4534    6.3280 C   0  0  0  0  0  0  0  0  0  0  0  0
   -0.1740   -4.7202    5.9414 C   0  0  0  0  0  0  0  0  0  0  0  0
    2.1278   -4.3845    6.8863 C   0  0  0  0  0  0  0  0  0  0  0  0
    3.3905   -4.8802    7.6236 C   0  0  0  0  0  0  0  0  0  0  0  0
    4.6321   -5.3218    6.7972 C   0  0  0  0  0  0  0  0  0  0  0  0
    4.4362   -6.1753    5.5044 C   0  0  1  0  0  0  0  0  0  0  0  0
    5.6399   -7.1381    5.3930 C   0  0  0  0  0  0  0  0  0  0  0  0
    3.1390   -6.9879    5.6661 C   0  0  0  0  0  0  0  0  0  0  0  0
    1.7822   -6.3610    5.1869 C   0  0  2  0  0  0  0  0  0  0  0  0
    1.5619   -6.0326    3.6006 C   0  0  1  0  0  0  0  0  0  0  0  0
    0.1261   -6.5990    3.1767 C   0  0  0  0  0  0  0  0  0  0  0  0
   -0.5618   -7.2754    3.9570 O   0  0  0  0  0  0  0  0  0  0  0  0
   -0.3360   -6.2608    2.0499 O   0  0  0  0  0  0  0  0  0  0  0  0
    1.6080   -4.4828    3.2664 C   0  0  0  0  0  0  0  0  0  0  0  0
    2.6555   -3.8562    2.2678 C   0  0  0  0  0  0  0  0  0  0  0  0
    4.0448   -4.5185    1.9633 C   0  0  2  0  0  0  0  0  0  0  0  0
    3.9949   -5.8505    2.8279 C   0  0  1  0  0  0  0  0  0  0  0  0
    4.3472   -5.2734    4.2471 C   0  0  2  0  0  0  0  0  0  0  0  0
    5.4580   -4.2725    3.9986 C   0  0  0  0  0  0  0  0  0  0  0  0
    5.3713   -3.8690    2.5113 C   0  0  1  0  0  0  0  0  0  0  0  0
    6.5000   -4.5982    1.7235 C   0  0  0  0  0  0  0  0  0  0  0  0
    5.8153   -5.2908    0.5543 C   0  0  0  0  0  0  0  0  0  0  0  0
    4.4331   -4.5899    0.4111 C   0  0  2  0  0  0  0  0  0  0  0  0
    4.4572   -3.2869   -0.5493 C   0  0  1  0  0  0  0  0  0  0  0  0
    5.6865   -3.4822   -1.5204 C   0  0  0  0  0  0  0  0  0  0  0  0
    3.3324   -3.1677   -1.6113 C   0  0  1  0  0  0  0  0  0  0  0  0
    2.0200   -3.4340   -1.1780 O   0  0  0  0  0  0  0  0  0  0  0  0
    3.4649   -1.7263   -2.1614 C   0  0  0  0  0  0  0  0  0  0  0  0
    4.4995   -1.0047   -1.2548 C   0  0  0  0  0  0  0  0  0  0  0  0
    4.4741   -1.8238    0.0562 C   0  0  1  0  0  0  0  0  0  0  0  0
    3.2161   -1.2321    0.7832 C   0  0  0  0  0  0  0  0  0  0  0  0
    5.6762   -1.6221    0.9854 C   0  0  0  0  0  0  0  0  0  0  0  0
    5.5467   -2.3160    2.3728 C   0  0  0  0  0  0  0  0  0  0  0  0
    2.6657   -6.6906    2.6632 C   0  0  0  0  0  0  0  0  0  0  0  0
    2.8870   -8.2125    2.9029 C   0  0  0  0  0  0  0  0  0  0  0  0
    2.3099   -6.7374    1.1505 C   0  0  0  0  0  0  0  0  0  0  0  0
    0.2282   -5.7543    8.3071 H   0  0  0  0  0  0  0  0  0  0  0  0
    1.4231   -6.9676    7.9613 H   0  0  0  0  0  0  0  0  0  0  0  0
   -0.1303   -7.0425    7.1719 H   0  0  0  0  0  0  0  0  0  0  0  0
   -0.0477   -3.9194    5.2190 H   0  0  0  0  0  0  0  0  0  0  0  0
   -0.6401   -4.2568    6.8138 H   0  0  0  0  0  0  0  0  0  0  0  0
   -0.9270   -5.4091    5.5639 H   0  0  0  0  0  0  0  0  0  0  0  0
    2.4113   -3.6367    6.1507 H   0  0  0  0  0  0  0  0  0  0  0  0
    1.5676   -3.8103    7.6249 H   0  0  0  0  0  0  0  0  0  0  0  0
    3.7341   -4.0539    8.2512 H   0  0  0  0  0  0  0  0  0  0  0  0
    3.1329   -5.6524    8.3478 H   0  0  0  0  0  0  0  0  0  0  0  0
    5.2486   -4.4470    6.5948 H   0  0  0  0  0  0  0  0  0  0  0  0
    5.2364   -5.9013    7.4945 H   0  0  0  0  0  0  0  0  0  0  0  0
    5.6419   -7.6906    4.4561 H   0  0  0  0  0  0  0  0  0  0  0  0
    5.6367   -7.8737    6.2001 H   0  0  0  0  0  0  0  0  0  0  0  0
    6.5926   -6.6056    5.4498 H   0  0  0  0  0  0  0  0  0  0  0  0
    3.2723   -7.9821    5.2666 H   0  0  0  0  0  0  0  0  0  0  0  0
    3.0688   -7.2738    6.7065 H   0  0  0  0  0  0  0  0  0  0  0  0
    1.2344   -7.2850    5.3205 H   0  0  0  0  0  0  0  0  0  0  0  0
    0.6227   -4.1405    2.9441 H   0  0  0  0  0  0  0  0  0  0  0  0
    1.7477   -3.9139    4.1734 H   0  0  0  0  0  0  0  0  0  0  0  0
    2.1523   -3.7136    1.3259 H   0  0  0  0  0  0  0  0  0  0  0  0
    2.8466   -2.8760    2.6848 H   0  0  0  0  0  0  0  0  0  0  0  0
    4.8134   -6.5261    2.5881 H   0  0  0  0  0  0  0  0  0  0  0  0
    3.6038   -4.5746    4.5681 H   0  0  0  0  0  0  0  0  0  0  0  0
    5.3528   -3.4024    4.6458 H   0  0  0  0  0  0  0  0  0  0  0  0
    6.4150   -4.7176    4.2530 H   0  0  0  0  0  0  0  0  0  0  0  0
    7.2672   -3.9083    1.3790 H   0  0  0  0  0  0  0  0  0  0  0  0
    7.0274   -5.3448    2.3132 H   0  0  0  0  0  0  0  0  0  0  0  0
    6.4686   -5.3786   -0.3042 H   0  0  0  0  0  0  0  0  0  0  0  0
    5.6580   -6.3424    0.7683 H   0  0  0  0  0  0  0  0  0  0  0  0
    3.8116   -5.2610   -0.1549 H   0  0  0  0  0  0  0  0  0  0  0  0
    5.7285   -2.8606   -2.4086 H   0  0  0  0  0  0  0  0  0  0  0  0
    5.6166   -4.4624   -1.9813 H   0  0  0  0  0  0  0  0  0  0  0  0
    6.6622   -3.3669   -1.0451 H   0  0  0  0  0  0  0  0  0  0  0  0
    3.4875   -3.8563   -2.4414 H   0  0  0  0  0  0  0  0  0  0  0  0
    1.6139   -2.5759   -1.0777 H   0  0  0  0  0  0  0  0  0  0  0  0
    3.7839   -1.7303   -3.2056 H   0  0  0  0  0  0  0  0  0  0  0  0
    2.5123   -1.1983   -2.1727 H   0  0  0  0  0  0  0  0  0  0  0  0
    5.4902   -0.9843   -1.7117 H   0  0  0  0  0  0  0  0  0  0  0  0
    4.2788    0.0471   -1.1278 H   0  0  0  0  0  0  0  0  0  0  0  0
    2.9460   -0.2495    0.4119 H   0  0  0  0  0  0  0  0  0  0  0  0
    3.3408   -1.0252    1.8427 H   0  0  0  0  0  0  0  0  0  0  0  0
    2.3055   -1.7921    0.6469 H   0  0  0  0  0  0  0  0  0  0  0  0
    6.6094   -1.8964    0.4995 H   0  0  0  0  0  0  0  0  0  0  0  0
    5.7812   -0.5545    1.1673 H   0  0  0  0  0  0  0  0  0  0  0  0
    4.8251   -1.8103    3.0120 H   0  0  0  0  0  0  0  0  0  0  0  0
    6.4844   -2.0492    2.8396 H   0  0  0  0  0  0  0  0  0  0  0  0
    2.8787   -8.8094    1.9920 H   0  0  0  0  0  0  0  0  0  0  0  0
    2.1002   -8.6308    3.5263 H   0  0  0  0  0  0  0  0  0  0  0  0
    3.8580   -8.4249    3.3316 H   0  0  0  0  0  0  0  0  0  0  0  0
    3.1703   -7.0487    0.5695 H   0  0  0  0  0  0  0  0  0  0  0  0
    1.9171   -5.8108    0.7480 H   0  0  0  0  0  0  0  0  0  0  0  0
    1.5562   -7.4979    0.9307 H   0  0  0  0  0  0  0  0  0  0  0  0
  1  2  1  0
  1 38  1  0
  1 39  1  0
  1 40  1  0
  2 10  1  0
  2  3  1  0
  2  4  1  0
  3 41  1  0
  3 42  1  0
  3 43  1  0
  4  5  1  0
  4 44  1  0
  4 45  1  0
  5  6  1  0
  5 46  1  0
  5 47  1  0
  6  7  1  0
  6 48  1  0
  6 49  1  0
  7 19  1  0
  7  8  1  6
  7  9  1  0
  8 50  1  0
  8 51  1  0
  8 52  1  0
  9 10  1  0
  9 53  1  0
  9 54  1  0
 10 11  1  0
 10 55  1  6
 11 35  1  0
 11 12  1  6
 11 15  1  0
 12 13  2  0
 12 14  1  0
 15 16  1  0
 15 56  1  0
 15 57  1  0
 17 16  1  6
 16 58  1  0
 16 59  1  0
 17 21  1  0
 17 24  1  0
 17 18  1  0
 18 19  1  0
 18 35  1  0
 18 60  1  6
 19 20  1  0
 19 61  1  1
 21 20  1  1
 20 62  1  0
 20 63  1  0
 21 34  1  0
 21 22  1  0
 22 23  1  0
 22 64  1  0
 22 65  1  0
 23 24  1  0
 23 66  1  0
 23 67  1  0
 24 25  1  0
 24 68  1  6
 25 31  1  0
 25 26  1  6
 25 27  1  0
 26 69  1  0
 26 70  1  0
 26 71  1  0
 27 28  1  0
 27 29  1  0
 27 72  1  6
 28 73  1  0
 29 30  1  0
 29 74  1  0
 29 75  1  0
 30 31  1  0
 30 76  1  0
 30 77  1  0
 31 32  1  1
 31 33  1  0
 32 78  1  0
 32 79  1  0
 32 80  1  0
 33 34  1  0
 33 81  1  0
 33 82  1  0
 34 83  1  0
 34 84  1  0
 35 36  1  0
 35 37  1  0
 36 85  1  0
 36 86  1  0
 36 87  1  0
 37 88  1  0
 37 89  1  0
 37 90  1  0
M  CHG  1  14  -1
M  END
>  <i_m_ct_stereo_status>  (223) 
1

>  <s_m_source_file>  (223) 
/var/tmp/pbs.5076255.sched01/tmpzygr1bk5/76dkit4mfj.sdf

>  <i_m_source_file_index>  (223) 
27

>  <i_lp_mmshare_version>  (223) 
48012

>  <i_f3d_flags>  (223) 
0

>  <s_epik_input>  (223) 
Tz1DKFtPSF0pW0NAXShbQ0gyXVtDSDJdMSkoQyhbQ0BASF0yMykoW0NIM10pW0NIM10pW0NAQEhdKFtDSDJdNClDKFtDSDNdKShbQ0gzXSlbQ0gyXVtDSDJdW0NIMl1bQ0BdNChbQ0gzXSlbQ0BIXTNbQ0gyXVtDQF01KFtDQF0xMjYpW0NIMl1bQ0gyXVtDQEBIXTZbQ0BdNyhbQ0gzXSlbQ0BAXShbQ0gzXSkoW0NIMl1bQ0gyXTUpW0NIMl1bQ0gyXVtDQEBIXTdbT0hd

>  <s_epik_cmdline>  (223) 
J2VwaWtfcHl0aG9uJywgJy1waHQnLCAnMi4wJywgJy1waCcsICc3LjAnLCAnLXRuJywgJzgnLCAnLW1hJywgJzIwMCcsICctaW1hZScsICc8aW5maWxlLm1hZT4nLCAnLW9tYWUnLCAnPG91dGZpbGUubWFlPic=

>  <r_epik_Ionization_Penalty>  (223) 
0.0102575

>  <r_epik_Ionization_Penalty_Charging>  (223) 
0.0102531

>  <r_epik_Ionization_Penalty_Neutral>  (223) 
4.35665e-06

>  <r_epik_State_Penalty>  (223) 
0.00783096

>  <r_epik_Charging_Adjusted_Penalty>  (223) 
0.0180841

>  <i_epik_Tot_Q>  (223) 
-1

>  <i_epik_Tot_abs_Q>  (223) 
1

>  <s_lp_Force_Field>  (223) 
OPLS3e

>  <r_lp_Energy>  (223) 
203.34

>  <b_lp_Chiralities_Consistent>  (223) 
1

>  <s_lp_Variant>  (223) 
78:0-1

>  <s_i_glide_gridfile>  (223) 
pfpi4k_grid

>  <i_i_glide_lignum>  (223) 
27

>  <i_i_glide_rotatable_bonds>  (223) 
2

>  <r_i_docking_score>  (223) 
-3.24564

>  <r_i_glide_ligand_efficiency>  (223) 
-0.08772

>  <r_i_glide_ligand_efficiency_sa>  (223) 
-0.292303

>  <r_i_glide_ligand_efficiency_ln>  (223) 
-0.703903

>  <r_i_glide_gscore>  (223) 
-3.24564

>  <r_i_glide_lipo>  (223) 
-0.61035

>  <r_i_glide_hbond>  (223) 
-0.47714

>  <r_i_glide_metal>  (223) 
-0

>  <r_i_glide_rewards>  (223) 
0

>  <r_i_glide_evdw>  (223) 
-23.5568

>  <r_i_glide_ecoul>  (223) 
-6.08

>  <r_i_glide_erotb>  (223) 
0

>  <r_i_glide_esite>  (223) 
-0.0683106

>  <r_i_glide_emodel>  (223) 
-36.5231

>  <r_i_glide_energy>  (223) 
-29.6368

>  <r_i_glide_einternal>  (223) 
2.72253

>  <r_i_glide_intrahb_reward>  (223) 
-0

>  <i_i_glide_confnum>  (223) 
2

>  <i_i_glide_posenum>  (223) 
11

>  <r_i_glide_eff_state_penalty>  (223) 
0

>  <ligand_id>  (223) 
78

>  <original_smiles>  (223) 
CC1(C)CCCC2(C)CC1C1(C(=O)O)CCC34C(C2CC32CCC4C3(C)C(O)CCC3(C)CC2)C1(C)C

>  <smiles>  (223) 
[H]OC1([H])C([H])([H])C([H])([H])C2(C([H])([H])[H])C([H])([H])C([H])([H])C34C([H])([H])C([H])([H])C([H])(C12C([H])([H])[H])C31C([H])([H])C([H])([H])C2(C(=O)[O-])C3([H])C([H])([H])C(C([H])([H])[H])(C([H])([H])C([H])([H])C([H])([H])C3(C([H])([H])[H])C([H])([H])[H])C([H])(C4([H])[H])C1([H])C2(C([H])([H])[H])C([H])([H])[H]

$$$$
78:0:1
     RDKit          3D

 90 96  0  0  1  0  0  0  0  0999 V2000
    0.8166   -9.8136    5.2294 C   0  0  0  0  0  0  0  0  0  0  0  0
    0.7720   -8.2564    5.1505 C   0  0  0  0  0  0  0  0  0  0  0  0
   -0.6144   -8.0079    4.4911 C   0  0  0  0  0  0  0  0  0  0  0  0
    0.7453   -7.6913    6.6169 C   0  0  0  0  0  0  0  0  0  0  0  0
    1.9075   -8.0608    7.5675 C   0  0  0  0  0  0  0  0  0  0  0  0
    3.2487   -7.2787    7.4810 C   0  0  0  0  0  0  0  0  0  0  0  0
    3.8437   -6.8989    6.0843 C   0  0  1  0  0  0  0  0  0  0  0  0
    5.3870   -6.9458    6.1968 C   0  0  0  0  0  0  0  0  0  0  0  0
    3.3597   -7.9495    5.0539 C   0  0  0  0  0  0  0  0  0  0  0  0
    1.9956   -7.7168    4.2874 C   0  0  2  0  0  0  0  0  0  0  0  0
    1.8388   -6.4096    3.3068 C   0  0  1  0  0  0  0  0  0  0  0  0
    1.1692   -6.8893    1.9549 C   0  0  0  0  0  0  0  0  0  0  0  0
    0.1932   -6.2592    1.4758 O   0  0  0  0  0  0  0  0  0  0  0  0
    1.6829   -7.8499    1.3549 O   0  0  0  0  0  0  0  0  0  0  0  0
    0.9472   -5.2615    3.9507 C   0  0  0  0  0  0  0  0  0  0  0  0
    1.4811   -3.7983    4.1254 C   0  0  0  0  0  0  0  0  0  0  0  0
    2.9992   -3.4716    4.3516 C   0  0  2  0  0  0  0  0  0  0  0  0
    3.6865   -4.8961    4.2163 C   0  0  1  0  0  0  0  0  0  0  0  0
    3.3983   -5.4764    5.6531 C   0  0  2  0  0  0  0  0  0  0  0  0
    3.6328   -4.3103    6.6211 C   0  0  0  0  0  0  0  0  0  0  0  0
    3.5101   -3.0205    5.7773 C   0  0  1  0  0  0  0  0  0  0  0  0
    4.9381   -2.4784    5.4961 C   0  0  0  0  0  0  0  0  0  0  0  0
    5.0216   -2.2716    3.9863 C   0  0  0  0  0  0  0  0  0  0  0  0
    3.5578   -2.2555    3.4780 C   0  0  2  0  0  0  0  0  0  0  0  0
    2.8812   -0.7778    3.4904 C   0  0  1  0  0  0  0  0  0  0  0  0
    4.0795    0.2497    3.4247 C   0  0  0  0  0  0  0  0  0  0  0  0
    2.1227   -0.3347    2.2088 C   0  0  1  0  0  0  0  0  0  0  0  0
    1.2697   -1.3099    1.6867 O   0  0  0  0  0  0  0  0  0  0  0  0
    1.3310    0.9332    2.6230 C   0  0  0  0  0  0  0  0  0  0  0  0
    1.4913    1.0729    4.1621 C   0  0  0  0  0  0  0  0  0  0  0  0
    1.8411   -0.3699    4.6273 C   0  0  1  0  0  0  0  0  0  0  0  0
    0.3995   -0.9968    4.6924 C   0  0  0  0  0  0  0  0  0  0  0  0
    2.4925   -0.4970    6.0234 C   0  0  0  0  0  0  0  0  0  0  0  0
    2.6831   -1.9530    6.5703 C   0  0  0  0  0  0  0  0  0  0  0  0
    3.2329   -5.7437    2.9507 C   0  0  0  0  0  0  0  0  0  0  0  0
    4.3668   -6.7290    2.4800 C   0  0  0  0  0  0  0  0  0  0  0  0
    3.1530   -4.8403    1.6659 C   0  0  0  0  0  0  0  0  0  0  0  0
   -0.0003  -10.2049    5.8337 H   0  0  0  0  0  0  0  0  0  0  0  0
    1.7234  -10.2265    5.6651 H   0  0  0  0  0  0  0  0  0  0  0  0
    0.7171  -10.2643    4.2415 H   0  0  0  0  0  0  0  0  0  0  0  0
   -0.9463   -6.9749    4.5086 H   0  0  0  0  0  0  0  0  0  0  0  0
   -1.3965   -8.5670    5.0037 H   0  0  0  0  0  0  0  0  0  0  0  0
   -0.6322   -8.3514    3.4573 H   0  0  0  0  0  0  0  0  0  0  0  0
    0.5799   -6.6188    6.6612 H   0  0  0  0  0  0  0  0  0  0  0  0
   -0.1540   -8.0984    7.0816 H   0  0  0  0  0  0  0  0  0  0  0  0
    1.5437   -7.9133    8.5845 H   0  0  0  0  0  0  0  0  0  0  0  0
    2.1027   -9.1300    7.5285 H   0  0  0  0  0  0  0  0  0  0  0  0
    3.1864   -6.4020    8.1228 H   0  0  0  0  0  0  0  0  0  0  0  0
    3.9713   -7.9087    7.9976 H   0  0  0  0  0  0  0  0  0  0  0  0
    5.8792   -6.5795    5.3000 H   0  0  0  0  0  0  0  0  0  0  0  0
    5.7442   -7.9615    6.3677 H   0  0  0  0  0  0  0  0  0  0  0  0
    5.7503   -6.3377    7.0266 H   0  0  0  0  0  0  0  0  0  0  0  0
    4.1585   -8.1986    4.3742 H   0  0  0  0  0  0  0  0  0  0  0  0
    3.3367   -8.9058    5.5670 H   0  0  0  0  0  0  0  0  0  0  0  0
    2.0948   -8.5316    3.5722 H   0  0  0  0  0  0  0  0  0  0  0  0
   -0.0008   -5.1415    3.4514 H   0  0  0  0  0  0  0  0  0  0  0  0
    0.5742   -5.5661    4.9114 H   0  0  0  0  0  0  0  0  0  0  0  0
    1.1397   -3.2499    3.2559 H   0  0  0  0  0  0  0  0  0  0  0  0
    0.9183   -3.4437    4.9805 H   0  0  0  0  0  0  0  0  0  0  0  0
    4.7653   -4.8296    4.1660 H   0  0  0  0  0  0  0  0  0  0  0  0
    2.3490   -5.5763    5.8193 H   0  0  0  0  0  0  0  0  0  0  0  0
    2.8756   -4.3223    7.4064 H   0  0  0  0  0  0  0  0  0  0  0  0
    4.5873   -4.3836    7.1408 H   0  0  0  0  0  0  0  0  0  0  0  0
    5.1354   -1.5447    6.0246 H   0  0  0  0  0  0  0  0  0  0  0  0
    5.7347   -3.1589    5.7967 H   0  0  0  0  0  0  0  0  0  0  0  0
    5.7050   -1.4681    3.7319 H   0  0  0  0  0  0  0  0  0  0  0  0
    5.5489   -3.0956    3.5166 H   0  0  0  0  0  0  0  0  0  0  0  0
    3.6008   -2.4929    2.4270 H   0  0  0  0  0  0  0  0  0  0  0  0
    3.8138    1.2758    3.1767 H   0  0  0  0  0  0  0  0  0  0  0  0
    4.7569    0.0051    2.6049 H   0  0  0  0  0  0  0  0  0  0  0  0
    4.6606    0.3230    4.3424 H   0  0  0  0  0  0  0  0  0  0  0  0
    2.8053   -0.1063    1.3851 H   0  0  0  0  0  0  0  0  0  0  0  0
    1.0549   -1.0637    0.7627 H   0  0  0  0  0  0  0  0  0  0  0  0
    1.7106    1.8225    2.1188 H   0  0  0  0  0  0  0  0  0  0  0  0
    0.2789    0.8517    2.3467 H   0  0  0  0  0  0  0  0  0  0  0  0
    2.2733    1.7826    4.4307 H   0  0  0  0  0  0  0  0  0  0  0  0
    0.6045    1.5135    4.6205 H   0  0  0  0  0  0  0  0  0  0  0  0
   -0.3941   -0.2590    4.7972 H   0  0  0  0  0  0  0  0  0  0  0  0
    0.2260   -1.6060    5.5750 H   0  0  0  0  0  0  0  0  0  0  0  0
    0.0971   -1.5485    3.8145 H   0  0  0  0  0  0  0  0  0  0  0  0
    3.4380    0.0390    6.0659 H   0  0  0  0  0  0  0  0  0  0  0  0
    1.8619    0.0354    6.7341 H   0  0  0  0  0  0  0  0  0  0  0  0
    1.7201   -2.3796    6.8350 H   0  0  0  0  0  0  0  0  0  0  0  0
    3.1721   -1.8315    7.5377 H   0  0  0  0  0  0  0  0  0  0  0  0
    4.8694   -6.4268    1.5602 H   0  0  0  0  0  0  0  0  0  0  0  0
    3.9877   -7.7293    2.2670 H   0  0  0  0  0  0  0  0  0  0  0  0
    5.1740   -6.8169    3.1981 H   0  0  0  0  0  0  0  0  0  0  0  0
    4.0858   -4.3072    1.5000 H   0  0  0  0  0  0  0  0  0  0  0  0
    2.3331   -4.1241    1.6735 H   0  0  0  0  0  0  0  0  0  0  0  0
    3.0088   -5.4233    0.7497 H   0  0  0  0  0  0  0  0  0  0  0  0
  1  2  1  0
  1 38  1  0
  1 39  1  0
  1 40  1  0
  2 10  1  0
  2  3  1  0
  2  4  1  0
  3 41  1  0
  3 42  1  0
  3 43  1  0
  4  5  1  0
  4 44  1  0
  4 45  1  0
  5  6  1  0
  5 46  1  0
  5 47  1  0
  6  7  1  0
  6 48  1  0
  6 49  1  0
  7 19  1  0
  7  8  1  1
  7  9  1  0
  8 50  1  0
  8 51  1  0
  8 52  1  0
  9 10  1  0
  9 53  1  0
  9 54  1  0
 10 11  1  0
 10 55  1  6
 11 35  1  0
 11 12  1  6
 11 15  1  0
 12 13  2  0
 12 14  1  0
 15 16  1  0
 15 56  1  0
 15 57  1  0
 17 16  1  1
 16 58  1  0
 16 59  1  0
 17 21  1  0
 17 24  1  0
 17 18  1  0
 18 19  1  0
 18 35  1  0
 18 60  1  6
 19 20  1  0
 19 61  1  6
 21 20  1  1
 20 62  1  0
 20 63  1  0
 21 34  1  0
 21 22  1  0
 22 23  1  0
 22 64  1  0
 22 65  1  0
 23 24  1  0
 23 66  1  0
 23 67  1  0
 24 25  1  0
 24 68  1  6
 25 31  1  0
 25 26  1  1
 25 27  1  0
 26 69  1  0
 26 70  1  0
 26 71  1  0
 27 28  1  0
 27 29  1  0
 27 72  1  6
 28 73  1  0
 29 30  1  0
 29 74  1  0
 29 75  1  0
 30 31  1  0
 30 76  1  0
 30 77  1  0
 31 32  1  1
 31 33  1  0
 32 78  1  0
 32 79  1  0
 32 80  1  0
 33 34  1  0
 33 81  1  0
 33 82  1  0
 34 83  1  0
 34 84  1  0
 35 36  1  0
 35 37  1  0
 36 85  1  0
 36 86  1  0
 36 87  1  0
 37 88  1  0
 37 89  1  0
 37 90  1  0
M  CHG  1  14  -1
M  END
>  <i_m_ct_stereo_status>  (224) 
1

>  <s_m_source_file>  (224) 
/var/tmp/pbs.5076255.sched01/tmpzygr1bk5/76dkit4mfj.sdf

>  <i_m_source_file_index>  (224) 
27

>  <i_lp_mmshare_version>  (224) 
48012

>  <i_f3d_flags>  (224) 
0

>  <s_epik_input>  (224) 
Tz1DKFtPSF0pW0NAXShbQ0gyXVtDSDJdMSkoQyhbQ0BASF0yMykoW0NIM10pW0NIM10pW0NAQEhdKFtDSDJdNClDKFtDSDNdKShbQ0gzXSlbQ0gyXVtDSDJdW0NIMl1bQ0BdNChbQ0gzXSlbQ0BIXTNbQ0gyXVtDQF01KFtDQF0xMjYpW0NIMl1bQ0gyXVtDQEBIXTZbQ0BdNyhbQ0gzXSlbQ0BAXShbQ0gzXSkoW0NIMl1bQ0gyXTUpW0NIMl1bQ0gyXVtDQEBIXTdbT0hd

>  <s_epik_cmdline>  (224) 
J2VwaWtfcHl0aG9uJywgJy1waHQnLCAnMi4wJywgJy1waCcsICc3LjAnLCAnLXRuJywgJzgnLCAnLW1hJywgJzIwMCcsICctaW1hZScsICc8aW5maWxlLm1hZT4nLCAnLW9tYWUnLCAnPG91dGZpbGUubWFlPic=

>  <r_epik_Ionization_Penalty>  (224) 
0.0102575

>  <r_epik_Ionization_Penalty_Charging>  (224) 
0.0102531

>  <r_epik_Ionization_Penalty_Neutral>  (224) 
4.35665e-06

>  <r_epik_State_Penalty>  (224) 
0.00783096

>  <r_epik_Charging_Adjusted_Penalty>  (224) 
0.0180841

>  <i_epik_Tot_Q>  (224) 
-1

>  <i_epik_Tot_abs_Q>  (224) 
1

>  <s_lp_Force_Field>  (224) 
OPLS3e

>  <r_lp_Energy>  (224) 
203.34

>  <b_lp_Chiralities_Consistent>  (224) 
1

>  <s_lp_Variant>  (224) 
78:0-1

>  <s_i_glide_gridfile>  (224) 
pfpi4k_grid

>  <i_i_glide_lignum>  (224) 
27

>  <i_i_glide_rotatable_bonds>  (224) 
2

>  <r_i_docking_score>  (224) 
-2.64361

>  <r_i_glide_ligand_efficiency>  (224) 
-0.071449

>  <r_i_glide_ligand_efficiency_sa>  (224) 
-0.238084

>  <r_i_glide_ligand_efficiency_ln>  (224) 
-0.573337

>  <r_i_glide_gscore>  (224) 
-2.64361

>  <r_i_glide_lipo>  (224) 
-0.0824568

>  <r_i_glide_hbond>  (224) 
-0.469111

>  <r_i_glide_metal>  (224) 
-0

>  <r_i_glide_rewards>  (224) 
0

>  <r_i_glide_evdw>  (224) 
-21.9015

>  <r_i_glide_ecoul>  (224) 
-6.32388

>  <r_i_glide_erotb>  (224) 
0

>  <r_i_glide_esite>  (224) 
-0.0483893

>  <r_i_glide_emodel>  (224) 
-35.2637

>  <r_i_glide_energy>  (224) 
-28.2253

>  <r_i_glide_einternal>  (224) 
0.759625

>  <r_i_glide_intrahb_reward>  (224) 
-0

>  <i_i_glide_confnum>  (224) 
2

>  <i_i_glide_posenum>  (224) 
26

>  <r_i_glide_eff_state_penalty>  (224) 
0

>  <ligand_id>  (224) 
78

>  <original_smiles>  (224) 
CC1(C)CCCC2(C)CC1C1(C(=O)O)CCC34C(C2CC32CCC4C3(C)C(O)CCC3(C)CC2)C1(C)C

>  <smiles>  (224) 
[H]OC1([H])C([H])([H])C([H])([H])C2(C([H])([H])[H])C([H])([H])C([H])([H])C34C([H])([H])C([H])([H])C([H])(C12C([H])([H])[H])C31C([H])([H])C([H])([H])C2(C(=O)[O-])C3([H])C([H])([H])C(C([H])([H])[H])(C([H])([H])C([H])([H])C([H])([H])C3(C([H])([H])[H])C([H])([H])[H])C([H])(C4([H])[H])C1([H])C2(C([H])([H])[H])C([H])([H])[H]

$$$$
78:0:2
     RDKit          3D

 90 96  0  0  1  0  0  0  0  0999 V2000
    1.6604    2.0184    4.7929 C   0  0  0  0  0  0  0  0  0  0  0  0
    1.5737    0.5278    4.3465 C   0  0  0  0  0  0  0  0  0  0  0  0
    0.2735    0.5276    3.4931 C   0  0  0  0  0  0  0  0  0  0  0  0
    2.7869    0.2194    3.4049 C   0  0  0  0  0  0  0  0  0  0  0  0
    4.2140    0.4355    3.9653 C   0  0  0  0  0  0  0  0  0  0  0  0
    4.8681   -0.6539    4.8577 C   0  0  0  0  0  0  0  0  0  0  0  0
    4.0140   -1.3820    5.9474 C   0  0  1  0  0  0  0  0  0  0  0  0
    4.9407   -1.6933    7.1472 C   0  0  0  0  0  0  0  0  0  0  0  0
    2.8958   -0.4166    6.3942 C   0  0  0  0  0  0  0  0  0  0  0  0
    1.5206   -0.4220    5.6251 C   0  0  2  0  0  0  0  0  0  0  0  0
    0.5875   -1.7697    5.6439 C   0  0  1  0  0  0  0  0  0  0  0  0
   -0.9137   -1.3501    5.9425 C   0  0  0  0  0  0  0  0  0  0  0  0
   -1.8237   -2.1609    5.6753 O   0  0  0  0  0  0  0  0  0  0  0  0
   -1.1792   -0.2548    6.4837 O   0  0  0  0  0  0  0  0  0  0  0  0
    0.6050   -2.5673    4.2661 C   0  0  0  0  0  0  0  0  0  0  0  0
    1.0778   -4.0657    4.1611 C   0  0  0  0  0  0  0  0  0  0  0  0
    2.0897   -4.7187    5.1733 C   0  0  2  0  0  0  0  0  0  0  0  0
    2.3518   -3.5432    6.2083 C   0  0  1  0  0  0  0  0  0  0  0  0
    3.4067   -2.6970    5.3935 C   0  0  2  0  0  0  0  0  0  0  0  0
    4.3478   -3.7197    4.7544 C   0  0  0  0  0  0  0  0  0  0  0  0
    3.5669   -5.0523    4.7190 C   0  0  1  0  0  0  0  0  0  0  0  0
    4.1061   -5.9698    5.8536 C   0  0  0  0  0  0  0  0  0  0  0  0
    2.8875   -6.4225    6.6511 C   0  0  0  0  0  0  0  0  0  0  0  0
    1.6657   -6.1596    5.7227 C   0  0  2  0  0  0  0  0  0  0  0  0
    1.3053   -7.4015    4.7423 C   0  0  1  0  0  0  0  0  0  0  0  0
    1.8907   -8.6965    5.4444 C   0  0  0  0  0  0  0  0  0  0  0  0
   -0.1911   -7.8268    4.6514 C   0  0  1  0  0  0  0  0  0  0  0  0
   -1.1037   -6.7572    4.4976 O   0  0  0  0  0  0  0  0  0  0  0  0
   -0.2582   -8.7897    3.4349 C   0  0  0  0  0  0  0  0  0  0  0  0
    1.1278   -8.7304    2.7415 C   0  0  0  0  0  0  0  0  0  0  0  0
    1.7066   -7.3666    3.1992 C   0  0  1  0  0  0  0  0  0  0  0  0
    0.9943   -6.4046    2.1801 C   0  0  0  0  0  0  0  0  0  0  0  0
    3.2320   -7.1808    3.0385 C   0  0  0  0  0  0  0  0  0  0  0  0
    3.7891   -5.7490    3.3312 C   0  0  0  0  0  0  0  0  0  0  0  0
    1.0427   -2.8231    6.7497 C   0  0  0  0  0  0  0  0  0  0  0  0
    1.2459   -2.2208    8.1772 C   0  0  0  0  0  0  0  0  0  0  0  0
   -0.0577   -3.8836    7.0955 C   0  0  0  0  0  0  0  0  0  0  0  0
    1.7236    2.6873    3.9320 H   0  0  0  0  0  0  0  0  0  0  0  0
    2.5129    2.2580    5.4227 H   0  0  0  0  0  0  0  0  0  0  0  0
    0.7719    2.3119    5.3545 H   0  0  0  0  0  0  0  0  0  0  0  0
    0.1085   -0.3794    2.9196 H   0  0  0  0  0  0  0  0  0  0  0  0
    0.2868    1.3276    2.7497 H   0  0  0  0  0  0  0  0  0  0  0  0
   -0.6116    0.7050    4.1027 H   0  0  0  0  0  0  0  0  0  0  0  0
    2.7331   -0.7634    2.9449 H   0  0  0  0  0  0  0  0  0  0  0  0
    2.6968    0.8986    2.5536 H   0  0  0  0  0  0  0  0  0  0  0  0
    4.8706    0.5422    3.1031 H   0  0  0  0  0  0  0  0  0  0  0  0
    4.2839    1.4059    4.4536 H   0  0  0  0  0  0  0  0  0  0  0  0
    5.3697   -1.3760    4.2181 H   0  0  0  0  0  0  0  0  0  0  0  0
    5.6936   -0.1455    5.3582 H   0  0  0  0  0  0  0  0  0  0  0  0
    4.4448   -2.3015    7.9023 H   0  0  0  0  0  0  0  0  0  0  0  0
    5.2738   -0.7772    7.6389 H   0  0  0  0  0  0  0  0  0  0  0  0
    5.8351   -2.2323    6.8349 H   0  0  0  0  0  0  0  0  0  0  0  0
    2.7477   -0.4843    7.4607 H   0  0  0  0  0  0  0  0  0  0  0  0
    3.3168    0.5846    6.3892 H   0  0  0  0  0  0  0  0  0  0  0  0
    1.0248    0.2365    6.3293 H   0  0  0  0  0  0  0  0  0  0  0  0
   -0.3653   -2.5191    3.7798 H   0  0  0  0  0  0  0  0  0  0  0  0
    1.2042   -2.0433    3.5377 H   0  0  0  0  0  0  0  0  0  0  0  0
    0.1702   -4.6524    4.1724 H   0  0  0  0  0  0  0  0  0  0  0  0
    1.5015   -4.1292    3.1679 H   0  0  0  0  0  0  0  0  0  0  0  0
    2.8925   -3.8803    7.0873 H   0  0  0  0  0  0  0  0  0  0  0  0
    2.9648   -2.3245    4.4918 H   0  0  0  0  0  0  0  0  0  0  0  0
    4.6048   -3.4016    3.7413 H   0  0  0  0  0  0  0  0  0  0  0  0
    5.2974   -3.8050    5.2821 H   0  0  0  0  0  0  0  0  0  0  0  0
    4.6566   -6.8236    5.4593 H   0  0  0  0  0  0  0  0  0  0  0  0
    4.7918   -5.4624    6.5332 H   0  0  0  0  0  0  0  0  0  0  0  0
    3.0417   -7.4003    7.0938 H   0  0  0  0  0  0  0  0  0  0  0  0
    2.7757   -5.8351    7.5586 H   0  0  0  0  0  0  0  0  0  0  0  0
    0.8056   -6.1159    6.3743 H   0  0  0  0  0  0  0  0  0  0  0  0
    1.5385   -9.6549    5.0688 H   0  0  0  0  0  0  0  0  0  0  0  0
    1.5684   -8.7497    6.4855 H   0  0  0  0  0  0  0  0  0  0  0  0
    2.9786   -8.7601    5.4147 H   0  0  0  0  0  0  0  0  0  0  0  0
   -0.5147   -8.3488    5.5541 H   0  0  0  0  0  0  0  0  0  0  0  0
   -1.0486   -6.2250    5.2724 H   0  0  0  0  0  0  0  0  0  0  0  0
   -0.4792   -9.8107    3.7524 H   0  0  0  0  0  0  0  0  0  0  0  0
   -1.0551   -8.4979    2.7489 H   0  0  0  0  0  0  0  0  0  0  0  0
    1.7725   -9.5604    3.0256 H   0  0  0  0  0  0  0  0  0  0  0  0
    1.0364   -8.8699    1.6670 H   0  0  0  0  0  0  0  0  0  0  0  0
    0.6527   -6.9015    1.2739 H   0  0  0  0  0  0  0  0  0  0  0  0
    1.6381   -5.6370    1.7675 H   0  0  0  0  0  0  0  0  0  0  0  0
    0.0941   -5.9451    2.5525 H   0  0  0  0  0  0  0  0  0  0  0  0
    3.7793   -7.9187    3.6206 H   0  0  0  0  0  0  0  0  0  0  0  0
    3.4887   -7.4220    2.0067 H   0  0  0  0  0  0  0  0  0  0  0  0
    3.4953   -5.0610    2.5407 H   0  0  0  0  0  0  0  0  0  0  0  0
    4.8691   -5.8286    3.1945 H   0  0  0  0  0  0  0  0  0  0  0  0
    0.7570   -2.7872    8.9730 H   0  0  0  0  0  0  0  0  0  0  0  0
    0.8422   -1.2102    8.2575 H   0  0  0  0  0  0  0  0  0  0  0  0
    2.2907   -2.2221    8.4828 H   0  0  0  0  0  0  0  0  0  0  0  0
    0.3243   -4.6471    7.7755 H   0  0  0  0  0  0  0  0  0  0  0  0
   -0.4976   -4.3677    6.2273 H   0  0  0  0  0  0  0  0  0  0  0  0
   -0.9002   -3.4468    7.6348 H   0  0  0  0  0  0  0  0  0  0  0  0
  1  2  1  0
  1 38  1  0
  1 39  1  0
  1 40  1  0
  2 10  1  0
  2  3  1  0
  2  4  1  0
  3 41  1  0
  3 42  1  0
  3 43  1  0
  4  5  1  0
  4 44  1  0
  4 45  1  0
  5  6  1  0
  5 46  1  0
  5 47  1  0
  6  7  1  0
  6 48  1  0
  6 49  1  0
  7 19  1  0
  7  8  1  1
  7  9  1  0
  8 50  1  0
  8 51  1  0
  8 52  1  0
  9 10  1  0
  9 53  1  0
  9 54  1  0
 10 11  1  0
 10 55  1  1
 11 35  1  0
 11 12  1  1
 11 15  1  0
 12 13  2  0
 12 14  1  0
 15 16  1  0
 15 56  1  0
 15 57  1  0
 17 16  1  6
 16 58  1  0
 16 59  1  0
 17 21  1  0
 17 24  1  0
 17 18  1  0
 18 19  1  0
 18 35  1  0
 18 60  1  1
 19 20  1  0
 19 61  1  6
 21 20  1  6
 20 62  1  0
 20 63  1  0
 21 34  1  0
 21 22  1  0
 22 23  1  0
 22 64  1  0
 22 65  1  0
 23 24  1  0
 23 66  1  0
 23 67  1  0
 24 25  1  0
 24 68  1  1
 25 31  1  0
 25 26  1  1
 25 27  1  0
 26 69  1  0
 26 70  1  0
 26 71  1  0
 27 28  1  0
 27 29  1  0
 27 72  1  1
 28 73  1  0
 29 30  1  0
 29 74  1  0
 29 75  1  0
 30 31  1  0
 30 76  1  0
 30 77  1  0
 31 32  1  6
 31 33  1  0
 32 78  1  0
 32 79  1  0
 32 80  1  0
 33 34  1  0
 33 81  1  0
 33 82  1  0
 34 83  1  0
 34 84  1  0
 35 36  1  0
 35 37  1  0
 36 85  1  0
 36 86  1  0
 36 87  1  0
 37 88  1  0
 37 89  1  0
 37 90  1  0
M  CHG  1  14  -1
M  END
>  <i_m_ct_stereo_status>  (225) 
1

>  <s_m_source_file>  (225) 
/var/tmp/pbs.5076255.sched01/tmpzygr1bk5/76dkit4mfj.sdf

>  <i_m_source_file_index>  (225) 
27

>  <i_lp_mmshare_version>  (225) 
48012

>  <i_f3d_flags>  (225) 
0

>  <s_epik_input>  (225) 
Tz1DKFtPSF0pW0NAXShbQ0gyXVtDSDJdMSkoQyhbQ0BASF0yMykoW0NIM10pW0NIM10pW0NAQEhdKFtDSDJdNClDKFtDSDNdKShbQ0gzXSlbQ0gyXVtDSDJdW0NIMl1bQ0BdNChbQ0gzXSlbQ0BIXTNbQ0gyXVtDQF01KFtDQF0xMjYpW0NIMl1bQ0gyXVtDQEBIXTZbQ0BdNyhbQ0gzXSlbQ0BAXShbQ0gzXSkoW0NIMl1bQ0gyXTUpW0NIMl1bQ0gyXVtDQEBIXTdbT0hd

>  <s_epik_cmdline>  (225) 
J2VwaWtfcHl0aG9uJywgJy1waHQnLCAnMi4wJywgJy1waCcsICc3LjAnLCAnLXRuJywgJzgnLCAnLW1hJywgJzIwMCcsICctaW1hZScsICc8aW5maWxlLm1hZT4nLCAnLW9tYWUnLCAnPG91dGZpbGUubWFlPic=

>  <r_epik_Ionization_Penalty>  (225) 
0.0102575

>  <r_epik_Ionization_Penalty_Charging>  (225) 
0.0102531

>  <r_epik_Ionization_Penalty_Neutral>  (225) 
4.35665e-06

>  <r_epik_State_Penalty>  (225) 
0.00783096

>  <r_epik_Charging_Adjusted_Penalty>  (225) 
0.0180841

>  <i_epik_Tot_Q>  (225) 
-1

>  <i_epik_Tot_abs_Q>  (225) 
1

>  <s_lp_Force_Field>  (225) 
OPLS3e

>  <r_lp_Energy>  (225) 
203.34

>  <b_lp_Chiralities_Consistent>  (225) 
1

>  <s_lp_Variant>  (225) 
78:0-1

>  <s_i_glide_gridfile>  (225) 
pfpi4k_grid

>  <i_i_glide_lignum>  (225) 
27

>  <i_i_glide_rotatable_bonds>  (225) 
2

>  <r_i_docking_score>  (225) 
-2.20257

>  <r_i_glide_ligand_efficiency>  (225) 
-0.059529

>  <r_i_glide_ligand_efficiency_sa>  (225) 
-0.198364

>  <r_i_glide_ligand_efficiency_ln>  (225) 
-0.477686

>  <r_i_glide_gscore>  (225) 
-2.20257

>  <r_i_glide_lipo>  (225) 
-0.0938965

>  <r_i_glide_hbond>  (225) 
-0.148771

>  <r_i_glide_metal>  (225) 
-0

>  <r_i_glide_rewards>  (225) 
0

>  <r_i_glide_evdw>  (225) 
-25.7853

>  <r_i_glide_ecoul>  (225) 
-4.09059

>  <r_i_glide_erotb>  (225) 
0

>  <r_i_glide_esite>  (225) 
-0.0570531

>  <r_i_glide_emodel>  (225) 
-35.5229

>  <r_i_glide_energy>  (225) 
-29.8759

>  <r_i_glide_einternal>  (225) 
0.867968

>  <r_i_glide_intrahb_reward>  (225) 
-0

>  <i_i_glide_confnum>  (225) 
1

>  <i_i_glide_posenum>  (225) 
1

>  <r_i_glide_eff_state_penalty>  (225) 
0

>  <ligand_id>  (225) 
78

>  <original_smiles>  (225) 
CC1(C)CCCC2(C)CC1C1(C(=O)O)CCC34C(C2CC32CCC4C3(C)C(O)CCC3(C)CC2)C1(C)C

>  <smiles>  (225) 
[H]OC1([H])C([H])([H])C([H])([H])C2(C([H])([H])[H])C([H])([H])C([H])([H])C34C([H])([H])C([H])([H])C([H])(C12C([H])([H])[H])C31C([H])([H])C([H])([H])C2(C(=O)[O-])C3([H])C([H])([H])C(C([H])([H])[H])(C([H])([H])C([H])([H])C([H])([H])C3(C([H])([H])[H])C([H])([H])[H])C([H])(C4([H])[H])C1([H])C2(C([H])([H])[H])C([H])([H])[H]

$$$$
78:1:0
     RDKit          3D

 91 97  0  0  1  0  0  0  0  0999 V2000
    0.6443   -9.9705    5.0736 C   0  0  0  0  0  0  0  0  0  0  0  0
    0.6741   -8.4120    5.0422 C   0  0  0  0  0  0  0  0  0  0  0  0
   -0.7396   -8.0808    4.4799 C   0  0  0  0  0  0  0  0  0  0  0  0
    0.7652   -7.8845    6.5123 C   0  0  0  0  0  0  0  0  0  0  0  0
    1.9736   -8.3346    7.3700 C   0  0  0  0  0  0  0  0  0  0  0  0
    3.3378   -7.6067    7.2166 C   0  0  0  0  0  0  0  0  0  0  0  0
    3.8644   -7.2214    5.7946 C   0  0  1  0  0  0  0  0  0  0  0  0
    5.4042   -7.3474    5.8024 C   0  0  0  0  0  0  0  0  0  0  0  0
    3.2688   -8.2271    4.7853 C   0  0  0  0  0  0  0  0  0  0  0  0
    1.8781   -7.9144    4.1277 C   0  0  2  0  0  0  0  0  0  0  0  0
    1.7189   -6.6074    3.1543 C   0  0  1  0  0  0  0  0  0  0  0  0
    0.9196   -7.0496    1.8724 C   0  0  0  0  0  0  0  0  0  0  0  0
   -0.0476   -6.4367    1.4152 O   0  0  0  0  0  0  0  0  0  0  0  0
    1.4057   -8.1757    1.2817 O   0  0  0  0  0  0  0  0  0  0  0  0
    0.9234   -5.4202    3.8607 C   0  0  0  0  0  0  0  0  0  0  0  0
    1.5311   -3.9818    4.0496 C   0  0  0  0  0  0  0  0  0  0  0  0
    3.0715   -3.7249    4.1830 C   0  0  2  0  0  0  0  0  0  0  0  0
    3.6810   -5.1762    3.9752 C   0  0  1  0  0  0  0  0  0  0  0  0
    3.4605   -5.7714    5.4219 C   0  0  2  0  0  0  0  0  0  0  0  0
    3.8171   -4.6400    6.3896 C   0  0  0  0  0  0  0  0  0  0  0  0
    3.6954   -3.3290    5.5785 C   0  0  1  0  0  0  0  0  0  0  0  0
    5.1216   -2.8402    5.2179 C   0  0  0  0  0  0  0  0  0  0  0  0
    5.1186   -2.6142    3.7087 C   0  0  0  0  0  0  0  0  0  0  0  0
    3.6281   -2.5173    3.2995 C   0  0  2  0  0  0  0  0  0  0  0  0
    3.0362   -1.0095    3.3877 C   0  0  1  0  0  0  0  0  0  0  0  0
    4.2727   -0.0351    3.2689 C   0  0  0  0  0  0  0  0  0  0  0  0
    2.2231   -0.4997    2.1683 C   0  0  1  0  0  0  0  0  0  0  0  0
    1.2912   -1.4242    1.6886 O   0  0  0  0  0  0  0  0  0  0  0  0
    1.5193    0.7926    2.6556 C   0  0  0  0  0  0  0  0  0  0  0  0
    1.7793    0.8909    4.1808 C   0  0  0  0  0  0  0  0  0  0  0  0
    2.0874   -0.5763    4.5926 C   0  0  1  0  0  0  0  0  0  0  0  0
    0.6248   -1.1380    4.7427 C   0  0  0  0  0  0  0  0  0  0  0  0
    2.8176   -0.7670    5.9444 C   0  0  0  0  0  0  0  0  0  0  0  0
    2.9715   -2.2430    6.4494 C   0  0  0  0  0  0  0  0  0  0  0  0
    3.1107   -5.9790    2.7260 C   0  0  0  0  0  0  0  0  0  0  0  0
    4.1695   -6.9908    2.1636 C   0  0  0  0  0  0  0  0  0  0  0  0
    2.9676   -5.0481    1.4709 C   0  0  0  0  0  0  0  0  0  0  0  0
   -0.1496  -10.3317    5.7311 H   0  0  0  0  0  0  0  0  0  0  0  0
    1.5576  -10.4417    5.4310 H   0  0  0  0  0  0  0  0  0  0  0  0
    0.4459  -10.3894    4.0885 H   0  0  0  0  0  0  0  0  0  0  0  0
   -1.0200   -7.0340    4.5373 H   0  0  0  0  0  0  0  0  0  0  0  0
   -1.5142   -8.6114    5.0363 H   0  0  0  0  0  0  0  0  0  0  0  0
   -0.8549   -8.4075    3.4463 H   0  0  0  0  0  0  0  0  0  0  0  0
    0.6608   -6.8058    6.5877 H   0  0  0  0  0  0  0  0  0  0  0  0
   -0.1204   -8.2613    7.0270 H   0  0  0  0  0  0  0  0  0  0  0  0
    1.6808   -8.2022    8.4108 H   0  0  0  0  0  0  0  0  0  0  0  0
    2.1151   -9.4099    7.2863 H   0  0  0  0  0  0  0  0  0  0  0  0
    3.3511   -6.7411    7.8758 H   0  0  0  0  0  0  0  0  0  0  0  0
    4.0636   -8.2787    7.6730 H   0  0  0  0  0  0  0  0  0  0  0  0
    5.8567   -6.9857    4.8792 H   0  0  0  0  0  0  0  0  0  0  0  0
    5.7189   -8.3851    5.9274 H   0  0  0  0  0  0  0  0  0  0  0  0
    5.8527   -6.7773    6.6200 H   0  0  0  0  0  0  0  0  0  0  0  0
    4.0053   -8.4918    4.0430 H   0  0  0  0  0  0  0  0  0  0  0  0
    3.2366   -9.1949    5.2776 H   0  0  0  0  0  0  0  0  0  0  0  0
    1.9087   -8.7480    3.4341 H   0  0  0  0  0  0  0  0  0  0  0  0
    0.8539   -8.5256    0.5898 H   0  0  0  0  0  0  0  0  0  0  0  0
   -0.0431   -5.2627    3.4069 H   0  0  0  0  0  0  0  0  0  0  0  0
    0.5934   -5.7202    4.8437 H   0  0  0  0  0  0  0  0  0  0  0  0
    1.1595   -3.3913    3.2235 H   0  0  0  0  0  0  0  0  0  0  0  0
    1.0458   -3.6248    4.9481 H   0  0  0  0  0  0  0  0  0  0  0  0
    4.7583   -5.1587    3.8561 H   0  0  0  0  0  0  0  0  0  0  0  0
    2.4183   -5.8189    5.6533 H   0  0  0  0  0  0  0  0  0  0  0  0
    3.1223   -4.6344    7.2297 H   0  0  0  0  0  0  0  0  0  0  0  0
    4.8046   -4.7679    6.8349 H   0  0  0  0  0  0  0  0  0  0  0  0
    5.3938   -1.9260    5.7508 H   0  0  0  0  0  0  0  0  0  0  0  0
    5.9086   -3.5585    5.4612 H   0  0  0  0  0  0  0  0  0  0  0  0
    5.8158   -1.8336    3.4230 H   0  0  0  0  0  0  0  0  0  0  0  0
    5.5823   -3.4508    3.1936 H   0  0  0  0  0  0  0  0  0  0  0  0
    3.5964   -2.7311    2.2400 H   0  0  0  0  0  0  0  0  0  0  0  0
    4.0456    1.0084    3.0595 H   0  0  0  0  0  0  0  0  0  0  0  0
    4.8829   -0.2877    2.3979 H   0  0  0  0  0  0  0  0  0  0  0  0
    4.9153   -0.0130    4.1462 H   0  0  0  0  0  0  0  0  0  0  0  0
    2.8599   -0.2859    1.3067 H   0  0  0  0  0  0  0  0  0  0  0  0
    1.0570   -1.1617    0.7769 H   0  0  0  0  0  0  0  0  0  0  0  0
    1.9109    1.6777    2.1442 H   0  0  0  0  0  0  0  0  0  0  0  0
    0.4473    0.7671    2.4415 H   0  0  0  0  0  0  0  0  0  0  0  0
    2.6083    1.5587    4.4152 H   0  0  0  0  0  0  0  0  0  0  0  0
    0.9452    1.3634    4.7029 H   0  0  0  0  0  0  0  0  0  0  0  0
   -0.1236   -0.3654    4.9105 H   0  0  0  0  0  0  0  0  0  0  0  0
    0.4786   -1.7596    5.6169 H   0  0  0  0  0  0  0  0  0  0  0  0
    0.2391   -1.6502    3.8712 H   0  0  0  0  0  0  0  0  0  0  0  0
    3.7838   -0.2705    5.9407 H   0  0  0  0  0  0  0  0  0  0  0  0
    2.2516   -0.2247    6.7062 H   0  0  0  0  0  0  0  0  0  0  0  0
    2.0107   -2.6300    6.7686 H   0  0  0  0  0  0  0  0  0  0  0  0
    3.5288   -2.1654    7.3829 H   0  0  0  0  0  0  0  0  0  0  0  0
    4.6274   -6.6765    1.2238 H   0  0  0  0  0  0  0  0  0  0  0  0
    3.7500   -7.9721    1.9528 H   0  0  0  0  0  0  0  0  0  0  0  0
    5.0157   -7.1260    2.8319 H   0  0  0  0  0  0  0  0  0  0  0  0
    3.9142   -4.5522    1.2486 H   0  0  0  0  0  0  0  0  0  0  0  0
    2.1972   -4.2885    1.5503 H   0  0  0  0  0  0  0  0  0  0  0  0
    2.7335   -5.6019    0.5551 H   0  0  0  0  0  0  0  0  0  0  0  0
  1  2  1  0
  1 38  1  0
  1 39  1  0
  1 40  1  0
  2 10  1  0
  2  3  1  0
  2  4  1  0
  3 41  1  0
  3 42  1  0
  3 43  1  0
  4  5  1  0
  4 44  1  0
  4 45  1  0
  5  6  1  0
  5 46  1  0
  5 47  1  0
  6  7  1  0
  6 48  1  0
  6 49  1  0
  7 19  1  0
  7  8  1  1
  7  9  1  0
  8 50  1  0
  8 51  1  0
  8 52  1  0
  9 10  1  0
  9 53  1  0
  9 54  1  0
 10 11  1  0
 10 55  1  6
 11 35  1  0
 11 12  1  6
 11 15  1  0
 12 13  2  0
 12 14  1  0
 14 56  1  0
 15 16  1  0
 15 57  1  0
 15 58  1  0
 17 16  1  1
 16 59  1  0
 16 60  1  0
 17 21  1  0
 17 24  1  0
 17 18  1  0
 18 19  1  0
 18 35  1  0
 18 61  1  6
 19 20  1  0
 19 62  1  6
 21 20  1  1
 20 63  1  0
 20 64  1  0
 21 34  1  0
 21 22  1  0
 22 23  1  0
 22 65  1  0
 22 66  1  0
 23 24  1  0
 23 67  1  0
 23 68  1  0
 24 25  1  0
 24 69  1  6
 25 31  1  0
 25 26  1  1
 25 27  1  0
 26 70  1  0
 26 71  1  0
 26 72  1  0
 27 28  1  0
 27 29  1  0
 27 73  1  6
 28 74  1  0
 29 30  1  0
 29 75  1  0
 29 76  1  0
 30 31  1  0
 30 77  1  0
 30 78  1  0
 31 32  1  1
 31 33  1  0
 32 79  1  0
 32 80  1  0
 32 81  1  0
 33 34  1  0
 33 82  1  0
 33 83  1  0
 34 84  1  0
 34 85  1  0
 35 36  1  0
 35 37  1  0
 36 86  1  0
 36 87  1  0
 36 88  1  0
 37 89  1  0
 37 90  1  0
 37 91  1  0
M  END
>  <i_m_ct_stereo_status>  (226) 
1

>  <s_m_source_file>  (226) 
/var/tmp/pbs.5076255.sched01/tmpzygr1bk5/76dkit4mfj.sdf

>  <i_m_source_file_index>  (226) 
28

>  <i_lp_mmshare_version>  (226) 
48012

>  <i_f3d_flags>  (226) 
0

>  <s_epik_input>  (226) 
Tz1DKFtPSF0pW0NAXShbQ0gyXVtDSDJdMSkoQyhbQ0BASF0yMykoW0NIM10pW0NIM10pW0NAQEhdKFtDSDJdNClDKFtDSDNdKShbQ0gzXSlbQ0gyXVtDSDJdW0NIMl1bQ0BdNChbQ0gzXSlbQ0BIXTNbQ0gyXVtDQF01KFtDQF0xMjYpW0NIMl1bQ0gyXVtDQEBIXTZbQ0BdNyhbQ0gzXSlbQ0BAXShbQ0gzXSkoW0NIMl1bQ0gyXTUpW0NIMl1bQ0gyXVtDQEBIXTdbT0hd

>  <s_epik_cmdline>  (226) 
J2VwaWtfcHl0aG9uJywgJy1waHQnLCAnMi4wJywgJy1waCcsICc3LjAnLCAnLXRuJywgJzgnLCAnLW1hJywgJzIwMCcsICctaW1hZScsICc8aW5maWxlLm1hZT4nLCAnLW9tYWUnLCAnPG91dGZpbGUubWFlPic=

>  <r_epik_Ionization_Penalty>  (226) 
2.40869

>  <r_epik_Ionization_Penalty_Charging>  (226) 
0

>  <r_epik_Ionization_Penalty_Neutral>  (226) 
2.40869

>  <r_epik_State_Penalty>  (226) 
2.56715

>  <r_epik_Charging_Adjusted_Penalty>  (226) 
2.56715

>  <i_epik_Tot_Q>  (226) 
0

>  <i_epik_Tot_abs_Q>  (226) 
0

>  <s_lp_Force_Field>  (226) 
OPLS3e

>  <r_lp_Energy>  (226) 
210.193

>  <b_lp_Chiralities_Consistent>  (226) 
1

>  <s_lp_Variant>  (226) 
78:0-2

>  <s_i_glide_gridfile>  (226) 
pfpi4k_grid

>  <i_i_glide_lignum>  (226) 
28

>  <i_i_glide_rotatable_bonds>  (226) 
3

>  <r_i_docking_score>  (226) 
-3.19458

>  <r_i_glide_ligand_efficiency>  (226) 
-0.0863399

>  <r_i_glide_ligand_efficiency_sa>  (226) 
-0.287704

>  <r_i_glide_ligand_efficiency_ln>  (226) 
-0.692829

>  <r_i_glide_gscore>  (226) 
-3.19458

>  <r_i_glide_lipo>  (226) 
-0.125756

>  <r_i_glide_hbond>  (226) 
-0.414381

>  <r_i_glide_metal>  (226) 
-0

>  <r_i_glide_rewards>  (226) 
0

>  <r_i_glide_evdw>  (226) 
-23.0925

>  <r_i_glide_ecoul>  (226) 
-9.97886

>  <r_i_glide_erotb>  (226) 
0.0549704

>  <r_i_glide_esite>  (226) 
-0.0579537

>  <r_i_glide_emodel>  (226) 
-39.6902

>  <r_i_glide_energy>  (226) 
-33.0714

>  <r_i_glide_einternal>  (226) 
1.59305

>  <r_i_glide_intrahb_reward>  (226) 
-0

>  <i_i_glide_confnum>  (226) 
5

>  <i_i_glide_posenum>  (226) 
38

>  <r_i_glide_eff_state_penalty>  (226) 
0

>  <ligand_id>  (226) 
78

>  <original_smiles>  (226) 
CC1(C)CCCC2(C)CC1C1(C(=O)O)CCC34C(C2CC32CCC4C3(C)C(O)CCC3(C)CC2)C1(C)C

>  <smiles>  (226) 
[H]OC(=O)C12C([H])([H])C([H])([H])C34C([H])(C([H])(C([H])([H])C35C([H])([H])C([H])([H])C4([H])C3(C([H])([H])[H])C([H])(O[H])C([H])([H])C([H])([H])C3(C([H])([H])[H])C([H])([H])C5([H])[H])C3(C([H])([H])[H])C([H])([H])C([H])([H])C([H])([H])C(C([H])([H])[H])(C([H])([H])[H])C1([H])C3([H])[H])C2(C([H])([H])[H])C([H])([H])[H]

$$$$
78:1:1
     RDKit          3D

 91 97  0  0  1  0  0  0  0  0999 V2000
    1.0039   -9.8162    5.0785 C   0  0  0  0  0  0  0  0  0  0  0  0
    0.9144   -8.2598    5.0398 C   0  0  0  0  0  0  0  0  0  0  0  0
   -0.4694   -8.0341    4.3654 C   0  0  0  0  0  0  0  0  0  0  0  0
    0.8503   -7.7190    6.5051 C   0  0  0  0  0  0  0  0  0  0  0  0
    2.0152   -8.0750    7.4620 C   0  0  0  0  0  0  0  0  0  0  0  0
    3.3282   -7.2445    7.4132 C   0  0  0  0  0  0  0  0  0  0  0  0
    3.9369   -6.8243    6.0356 C   0  0  1  0  0  0  0  0  0  0  0  0
    5.4754   -6.8306    6.1700 C   0  0  0  0  0  0  0  0  0  0  0  0
    3.5040   -7.8736    4.9895 C   0  0  0  0  0  0  0  0  0  0  0  0
    2.1455   -7.6711    4.2168 C   0  0  2  0  0  0  0  0  0  0  0  0
    1.9717   -6.3735    3.2333 C   0  0  1  0  0  0  0  0  0  0  0  0
    1.3053   -6.8623    1.8897 C   0  0  0  0  0  0  0  0  0  0  0  0
    0.2929   -6.3716    1.3934 O   0  0  0  0  0  0  0  0  0  0  0  0
    1.9886   -7.8737    1.2910 O   0  0  0  0  0  0  0  0  0  0  0  0
    1.0373   -5.2519    3.8610 C   0  0  0  0  0  0  0  0  0  0  0  0
    1.5204   -3.7714    4.0844 C   0  0  0  0  0  0  0  0  0  0  0  0
    3.0190   -3.3978    4.3393 C   0  0  2  0  0  0  0  0  0  0  0  0
    3.7480   -4.8004    4.1945 C   0  0  1  0  0  0  0  0  0  0  0  0
    3.4563   -5.4080    5.6214 C   0  0  2  0  0  0  0  0  0  0  0  0
    3.6452   -4.2492    6.6052 C   0  0  0  0  0  0  0  0  0  0  0  0
    3.4934   -2.9535    5.7774 C   0  0  1  0  0  0  0  0  0  0  0  0
    4.9056   -2.3579    5.5307 C   0  0  0  0  0  0  0  0  0  0  0  0
    5.0071   -2.1298    4.0275 C   0  0  0  0  0  0  0  0  0  0  0  0
    3.5544   -2.1496    3.4962 C   0  0  2  0  0  0  0  0  0  0  0  0
    2.8328   -0.6936    3.5212 C   0  0  1  0  0  0  0  0  0  0  0  0
    3.9993    0.3688    3.4982 C   0  0  0  0  0  0  0  0  0  0  0  0
    2.0824   -0.2566    2.2315 C   0  0  1  0  0  0  0  0  0  0  0  0
    1.2671   -1.2626    1.6900 O   0  0  0  0  0  0  0  0  0  0  0  0
    1.2511    0.9834    2.6543 C   0  0  0  0  0  0  0  0  0  0  0  0
    1.3791    1.1042    4.1956 C   0  0  0  0  0  0  0  0  0  0  0  0
    1.7628   -0.3324    4.6432 C   0  0  1  0  0  0  0  0  0  0  0  0
    0.3406   -1.0046    4.6799 C   0  0  0  0  0  0  0  0  0  0  0  0
    2.3958   -0.4660    6.0502 C   0  0  0  0  0  0  0  0  0  0  0  0
    2.6207   -1.9248    6.5784 C   0  0  0  0  0  0  0  0  0  0  0  0
    3.3438   -5.6485    2.9100 C   0  0  0  0  0  0  0  0  0  0  0  0
    4.5284   -6.5719    2.4466 C   0  0  0  0  0  0  0  0  0  0  0  0
    3.2300   -4.7315    1.6407 C   0  0  0  0  0  0  0  0  0  0  0  0
    0.1897  -10.2407    5.6667 H   0  0  0  0  0  0  0  0  0  0  0  0
    1.9181  -10.2118    5.5142 H   0  0  0  0  0  0  0  0  0  0  0  0
    0.9217  -10.2480    4.0833 H   0  0  0  0  0  0  0  0  0  0  0  0
   -0.8267   -7.0104    4.3889 H   0  0  0  0  0  0  0  0  0  0  0  0
   -1.2452   -8.6150    4.8648 H   0  0  0  0  0  0  0  0  0  0  0  0
   -0.4774   -8.3709    3.3286 H   0  0  0  0  0  0  0  0  0  0  0  0
    0.6578   -6.6505    6.5640 H   0  0  0  0  0  0  0  0  0  0  0  0
   -0.0407   -8.1599    6.9500 H   0  0  0  0  0  0  0  0  0  0  0  0
    1.6292   -7.9607    8.4753 H   0  0  0  0  0  0  0  0  0  0  0  0
    2.2432   -9.1364    7.4021 H   0  0  0  0  0  0  0  0  0  0  0  0
    3.2229   -6.3788    8.0659 H   0  0  0  0  0  0  0  0  0  0  0  0
    4.0627   -7.8568    7.9330 H   0  0  0  0  0  0  0  0  0  0  0  0
    5.9741   -6.4360    5.2850 H   0  0  0  0  0  0  0  0  0  0  0  0
    5.8586   -7.8400    6.3286 H   0  0  0  0  0  0  0  0  0  0  0  0
    5.8115   -6.2259    7.0166 H   0  0  0  0  0  0  0  0  0  0  0  0
    4.3180   -8.0830    4.3140 H   0  0  0  0  0  0  0  0  0  0  0  0
    3.5026   -8.8392    5.4851 H   0  0  0  0  0  0  0  0  0  0  0  0
    2.2827   -8.4935    3.5175 H   0  0  0  0  0  0  0  0  0  0  0  0
    2.7547   -8.1477    1.7635 H   0  0  0  0  0  0  0  0  0  0  0  0
    0.1176   -5.1510    3.3111 H   0  0  0  0  0  0  0  0  0  0  0  0
    0.6431   -5.5764    4.8170 H   0  0  0  0  0  0  0  0  0  0  0  0
    1.1680   -3.2121    3.2288 H   0  0  0  0  0  0  0  0  0  0  0  0
    0.9330   -3.4536    4.9357 H   0  0  0  0  0  0  0  0  0  0  0  0
    4.8237   -4.6981    4.1621 H   0  0  0  0  0  0  0  0  0  0  0  0
    2.4054   -5.5340    5.7680 H   0  0  0  0  0  0  0  0  0  0  0  0
    2.8868   -4.2961    7.3872 H   0  0  0  0  0  0  0  0  0  0  0  0
    4.5988   -4.3021    7.1308 H   0  0  0  0  0  0  0  0  0  0  0  0
    5.0633   -1.4265    6.0764 H   0  0  0  0  0  0  0  0  0  0  0  0
    5.7215   -3.0131    5.8415 H   0  0  0  0  0  0  0  0  0  0  0  0
    5.6746   -1.3018    3.7934 H   0  0  0  0  0  0  0  0  0  0  0  0
    5.5671   -2.9338    3.5552 H   0  0  0  0  0  0  0  0  0  0  0  0
    3.6189   -2.3695    2.4371 H   0  0  0  0  0  0  0  0  0  0  0  0
    3.7201    1.3952    3.2624 H   0  0  0  0  0  0  0  0  0  0  0  0
    4.6963    0.1550    2.6825 H   0  0  0  0  0  0  0  0  0  0  0  0
    4.5671    0.4402    4.4246 H   0  0  0  0  0  0  0  0  0  0  0  0
    2.7719    0.0058    1.4256 H   0  0  0  0  0  0  0  0  0  0  0  0
    1.0514   -1.0358    0.7621 H   0  0  0  0  0  0  0  0  0  0  0  0
    1.6146    1.8956    2.1699 H   0  0  0  0  0  0  0  0  0  0  0  0
    0.2065    0.8782    2.3549 H   0  0  0  0  0  0  0  0  0  0  0  0
    2.1346    1.8325    4.4891 H   0  0  0  0  0  0  0  0  0  0  0  0
    0.4712    1.5112    4.6444 H   0  0  0  0  0  0  0  0  0  0  0  0
   -0.4758   -0.2904    4.7779 H   0  0  0  0  0  0  0  0  0  0  0  0
    0.1713   -1.6334    5.5461 H   0  0  0  0  0  0  0  0  0  0  0  0
    0.0672   -1.5483    3.7854 H   0  0  0  0  0  0  0  0  0  0  0  0
    3.3178    0.1046    6.1210 H   0  0  0  0  0  0  0  0  0  0  0  0
    1.7293    0.0331    6.7595 H   0  0  0  0  0  0  0  0  0  0  0  0
    1.6695   -2.3836    6.8221 H   0  0  0  0  0  0  0  0  0  0  0  0
    3.0906   -1.8022    7.5538 H   0  0  0  0  0  0  0  0  0  0  0  0
    5.0268   -6.2217    1.5399 H   0  0  0  0  0  0  0  0  0  0  0  0
    4.2285   -7.5907    2.2222 H   0  0  0  0  0  0  0  0  0  0  0  0
    5.3237   -6.6304    3.1847 H   0  0  0  0  0  0  0  0  0  0  0  0
    4.1495   -4.1637    1.4909 H   0  0  0  0  0  0  0  0  0  0  0  0
    2.3972   -4.0332    1.6489 H   0  0  0  0  0  0  0  0  0  0  0  0
    3.1146   -5.3005    0.7103 H   0  0  0  0  0  0  0  0  0  0  0  0
  1  2  1  0
  1 38  1  0
  1 39  1  0
  1 40  1  0
  2 10  1  0
  2  3  1  0
  2  4  1  0
  3 41  1  0
  3 42  1  0
  3 43  1  0
  4  5  1  0
  4 44  1  0
  4 45  1  0
  5  6  1  0
  5 46  1  0
  5 47  1  0
  6  7  1  0
  6 48  1  0
  6 49  1  0
  7 19  1  0
  7  8  1  1
  7  9  1  0
  8 50  1  0
  8 51  1  0
  8 52  1  0
  9 10  1  0
  9 53  1  0
  9 54  1  0
 10 11  1  0
 10 55  1  6
 11 35  1  0
 11 12  1  6
 11 15  1  0
 12 13  2  0
 12 14  1  0
 14 56  1  0
 15 16  1  0
 15 57  1  0
 15 58  1  0
 17 16  1  1
 16 59  1  0
 16 60  1  0
 17 21  1  0
 17 24  1  0
 17 18  1  0
 18 19  1  0
 18 35  1  0
 18 61  1  1
 19 20  1  0
 19 62  1  6
 21 20  1  1
 20 63  1  0
 20 64  1  0
 21 34  1  0
 21 22  1  0
 22 23  1  0
 22 65  1  0
 22 66  1  0
 23 24  1  0
 23 67  1  0
 23 68  1  0
 24 25  1  0
 24 69  1  6
 25 31  1  0
 25 26  1  1
 25 27  1  0
 26 70  1  0
 26 71  1  0
 26 72  1  0
 27 28  1  0
 27 29  1  0
 27 73  1  6
 28 74  1  0
 29 30  1  0
 29 75  1  0
 29 76  1  0
 30 31  1  0
 30 77  1  0
 30 78  1  0
 31 32  1  1
 31 33  1  0
 32 79  1  0
 32 80  1  0
 32 81  1  0
 33 34  1  0
 33 82  1  0
 33 83  1  0
 34 84  1  0
 34 85  1  0
 35 36  1  0
 35 37  1  0
 36 86  1  0
 36 87  1  0
 36 88  1  0
 37 89  1  0
 37 90  1  0
 37 91  1  0
M  END
>  <i_m_ct_stereo_status>  (227) 
1

>  <s_m_source_file>  (227) 
/var/tmp/pbs.5076255.sched01/tmpzygr1bk5/76dkit4mfj.sdf

>  <i_m_source_file_index>  (227) 
28

>  <i_lp_mmshare_version>  (227) 
48012

>  <i_f3d_flags>  (227) 
0

>  <s_epik_input>  (227) 
Tz1DKFtPSF0pW0NAXShbQ0gyXVtDSDJdMSkoQyhbQ0BASF0yMykoW0NIM10pW0NIM10pW0NAQEhdKFtDSDJdNClDKFtDSDNdKShbQ0gzXSlbQ0gyXVtDSDJdW0NIMl1bQ0BdNChbQ0gzXSlbQ0BIXTNbQ0gyXVtDQF01KFtDQF0xMjYpW0NIMl1bQ0gyXVtDQEBIXTZbQ0BdNyhbQ0gzXSlbQ0BAXShbQ0gzXSkoW0NIMl1bQ0gyXTUpW0NIMl1bQ0gyXVtDQEBIXTdbT0hd

>  <s_epik_cmdline>  (227) 
J2VwaWtfcHl0aG9uJywgJy1waHQnLCAnMi4wJywgJy1waCcsICc3LjAnLCAnLXRuJywgJzgnLCAnLW1hJywgJzIwMCcsICctaW1hZScsICc8aW5maWxlLm1hZT4nLCAnLW9tYWUnLCAnPG91dGZpbGUubWFlPic=

>  <r_epik_Ionization_Penalty>  (227) 
2.40869

>  <r_epik_Ionization_Penalty_Charging>  (227) 
0

>  <r_epik_Ionization_Penalty_Neutral>  (227) 
2.40869

>  <r_epik_State_Penalty>  (227) 
2.56715

>  <r_epik_Charging_Adjusted_Penalty>  (227) 
2.56715

>  <i_epik_Tot_Q>  (227) 
0

>  <i_epik_Tot_abs_Q>  (227) 
0

>  <s_lp_Force_Field>  (227) 
OPLS3e

>  <r_lp_Energy>  (227) 
210.193

>  <b_lp_Chiralities_Consistent>  (227) 
1

>  <s_lp_Variant>  (227) 
78:0-2

>  <s_i_glide_gridfile>  (227) 
pfpi4k_grid

>  <i_i_glide_lignum>  (227) 
28

>  <i_i_glide_rotatable_bonds>  (227) 
3

>  <r_i_docking_score>  (227) 
-2.65139

>  <r_i_glide_ligand_efficiency>  (227) 
-0.0716592

>  <r_i_glide_ligand_efficiency_sa>  (227) 
-0.238784

>  <r_i_glide_ligand_efficiency_ln>  (227) 
-0.575025

>  <r_i_glide_gscore>  (227) 
-2.65139

>  <r_i_glide_lipo>  (227) 
-0.0835289

>  <r_i_glide_hbond>  (227) 
-0.352715

>  <r_i_glide_metal>  (227) 
-0

>  <r_i_glide_rewards>  (227) 
0

>  <r_i_glide_evdw>  (227) 
-23.5318

>  <r_i_glide_ecoul>  (227) 
-6.98536

>  <r_i_glide_erotb>  (227) 
0.0549704

>  <r_i_glide_esite>  (227) 
-0.0457262

>  <r_i_glide_emodel>  (227) 
-35.7172

>  <r_i_glide_energy>  (227) 
-30.5171

>  <r_i_glide_einternal>  (227) 
2.02852

>  <r_i_glide_intrahb_reward>  (227) 
-0

>  <i_i_glide_confnum>  (227) 
5

>  <i_i_glide_posenum>  (227) 
5

>  <r_i_glide_eff_state_penalty>  (227) 
0

>  <ligand_id>  (227) 
78

>  <original_smiles>  (227) 
CC1(C)CCCC2(C)CC1C1(C(=O)O)CCC34C(C2CC32CCC4C3(C)C(O)CCC3(C)CC2)C1(C)C

>  <smiles>  (227) 
[H]OC(=O)C12C([H])([H])C([H])([H])C34C([H])(C([H])(C([H])([H])C35C([H])([H])C([H])([H])C4([H])C3(C([H])([H])[H])C([H])(O[H])C([H])([H])C([H])([H])C3(C([H])([H])[H])C([H])([H])C5([H])[H])C3(C([H])([H])[H])C([H])([H])C([H])([H])C([H])([H])C(C([H])([H])[H])(C([H])([H])[H])C1([H])C3([H])[H])C2(C([H])([H])[H])C([H])([H])[H]

$$$$
78:1:2
     RDKit          3D

 91 97  0  0  1  0  0  0  0  0999 V2000
    1.6435  -10.0660    2.8304 C   0  0  0  0  0  0  0  0  0  0  0  0
    1.2649   -8.6364    3.3225 C   0  0  0  0  0  0  0  0  0  0  0  0
    0.0662   -8.2945    2.3976 C   0  0  0  0  0  0  0  0  0  0  0  0
    0.7247   -8.7502    4.7890 C   0  0  0  0  0  0  0  0  0  0  0  0
    1.6524   -9.3629    5.8661 C   0  0  0  0  0  0  0  0  0  0  0  0
    2.7425   -8.4752    6.5264 C   0  0  0  0  0  0  0  0  0  0  0  0
    3.5780   -7.4816    5.6476 C   0  0  1  0  0  0  0  0  0  0  0  0
    5.0048   -7.4107    6.2475 C   0  0  0  0  0  0  0  0  0  0  0  0
    3.6432   -8.0491    4.2084 C   0  0  0  0  0  0  0  0  0  0  0  0
    2.5205   -7.6630    3.1695 C   0  0  2  0  0  0  0  0  0  0  0  0
    2.3362   -6.0968    2.7386 C   0  0  1  0  0  0  0  0  0  0  0  0
    2.1466   -6.0666    1.1718 C   0  0  0  0  0  0  0  0  0  0  0  0
    1.0740   -5.8750    0.5963 O   0  0  0  0  0  0  0  0  0  0  0  0
    3.3020   -6.2839    0.4832 O   0  0  0  0  0  0  0  0  0  0  0  0
    1.0618   -5.4088    3.4006 C   0  0  0  0  0  0  0  0  0  0  0  0
    1.1601   -4.1231    4.2963 C   0  0  0  0  0  0  0  0  0  0  0  0
    2.4486   -3.7543    5.1191 C   0  0  2  0  0  0  0  0  0  0  0  0
    3.4567   -4.9081    4.7126 C   0  0  1  0  0  0  0  0  0  0  0  0
    2.9401   -6.0673    5.6526 C   0  0  2  0  0  0  0  0  0  0  0  0
    2.6482   -5.3969    6.9974 C   0  0  0  0  0  0  0  0  0  0  0  0
    2.4515   -3.8937    6.6933 C   0  0  1  0  0  0  0  0  0  0  0  0
    3.7325   -3.1263    7.1291 C   0  0  0  0  0  0  0  0  0  0  0  0
    4.1715   -2.3047    5.9214 C   0  0  0  0  0  0  0  0  0  0  0  0
    2.9220   -2.2317    4.9979 C   0  0  2  0  0  0  0  0  0  0  0  0
    1.9392   -0.9813    5.3200 C   0  0  1  0  0  0  0  0  0  0  0  0
    2.8371    0.1081    6.0410 C   0  0  0  0  0  0  0  0  0  0  0  0
    1.4595   -0.1320    4.1067 C   0  0  1  0  0  0  0  0  0  0  0  0
    1.0174   -0.8880    2.9995 O   0  0  0  0  0  0  0  0  0  0  0  0
    0.3119    0.7539    4.6738 C   0  0  0  0  0  0  0  0  0  0  0  0
    0.0270    0.2548    6.1170 C   0  0  0  0  0  0  0  0  0  0  0  0
    0.5680   -1.1999    6.1081 C   0  0  1  0  0  0  0  0  0  0  0  0
   -0.6550   -1.9491    5.4578 C   0  0  0  0  0  0  0  0  0  0  0  0
    0.8390   -1.8357    7.4925 C   0  0  0  0  0  0  0  0  0  0  0  0
    1.2148   -3.3538    7.4947 C   0  0  0  0  0  0  0  0  0  0  0  0
    3.5778   -5.1861    3.1522 C   0  0  0  0  0  0  0  0  0  0  0  0
    5.0031   -5.7469    2.7983 C   0  0  0  0  0  0  0  0  0  0  0  0
    3.6014   -3.8449    2.3397 C   0  0  0  0  0  0  0  0  0  0  0  0
    0.8069  -10.7616    2.9384 H   0  0  0  0  0  0  0  0  0  0  0  0
    2.4808  -10.5270    3.3496 H   0  0  0  0  0  0  0  0  0  0  0  0
    1.9081  -10.0605    1.7715 H   0  0  0  0  0  0  0  0  0  0  0  0
   -0.4794   -7.3960    2.6664 H   0  0  0  0  0  0  0  0  0  0  0  0
   -0.6822   -9.0902    2.4050 H   0  0  0  0  0  0  0  0  0  0  0  0
    0.3839   -8.2076    1.3605 H   0  0  0  0  0  0  0  0  0  0  0  0
    0.3126   -7.8201    5.1695 H   0  0  0  0  0  0  0  0  0  0  0  0
   -0.1477   -9.4096    4.7500 H   0  0  0  0  0  0  0  0  0  0  0  0
    1.0116   -9.7095    6.6789 H   0  0  0  0  0  0  0  0  0  0  0  0
    2.1008  -10.2840    5.4996 H   0  0  0  0  0  0  0  0  0  0  0  0
    2.3045   -7.9607    7.3789 H   0  0  0  0  0  0  0  0  0  0  0  0
    3.4330   -9.1834    6.9902 H   0  0  0  0  0  0  0  0  0  0  0  0
    5.6187   -6.6522    5.7672 H   0  0  0  0  0  0  0  0  0  0  0  0
    5.5272   -8.3626    6.1394 H   0  0  0  0  0  0  0  0  0  0  0  0
    4.9864   -7.1773    7.3113 H   0  0  0  0  0  0  0  0  0  0  0  0
    4.6325   -7.9026    3.8015 H   0  0  0  0  0  0  0  0  0  0  0  0
    3.7102   -9.1293    4.3000 H   0  0  0  0  0  0  0  0  0  0  0  0
    2.9851   -8.0838    2.2764 H   0  0  0  0  0  0  0  0  0  0  0  0
    3.1831   -6.2193   -0.4553 H   0  0  0  0  0  0  0  0  0  0  0  0
    0.3048   -5.1684    2.6632 H   0  0  0  0  0  0  0  0  0  0  0  0
    0.5218   -6.1282    3.9900 H   0  0  0  0  0  0  0  0  0  0  0  0
    0.9394   -3.2989    3.6308 H   0  0  0  0  0  0  0  0  0  0  0  0
    0.3317   -4.2314    4.9832 H   0  0  0  0  0  0  0  0  0  0  0  0
    4.4662   -4.7119    5.0588 H   0  0  0  0  0  0  0  0  0  0  0  0
    1.9322   -6.3324    5.4063 H   0  0  0  0  0  0  0  0  0  0  0  0
    1.7395   -5.8179    7.4319 H   0  0  0  0  0  0  0  0  0  0  0  0
    3.4311   -5.5729    7.7350 H   0  0  0  0  0  0  0  0  0  0  0  0
    3.5492   -2.4890    7.9943 H   0  0  0  0  0  0  0  0  0  0  0  0
    4.5541   -3.7842    7.4134 H   0  0  0  0  0  0  0  0  0  0  0  0
    4.6871   -1.4011    6.2233 H   0  0  0  0  0  0  0  0  0  0  0  0
    4.9817   -2.7964    5.3873 H   0  0  0  0  0  0  0  0  0  0  0  0
    3.2918   -1.9950    4.0112 H   0  0  0  0  0  0  0  0  0  0  0  0
    2.4229    1.1112    6.1143 H   0  0  0  0  0  0  0  0  0  0  0  0
    3.7434    0.2974    5.4635 H   0  0  0  0  0  0  0  0  0  0  0  0
    3.1256   -0.1582    7.0580 H   0  0  0  0  0  0  0  0  0  0  0  0
    2.2599    0.4982    3.7122 H   0  0  0  0  0  0  0  0  0  0  0  0
    0.2864   -1.4120    3.2719 H   0  0  0  0  0  0  0  0  0  0  0  0
    0.6004    1.8067    4.6911 H   0  0  0  0  0  0  0  0  0  0  0  0
   -0.5837    0.6872    4.0529 H   0  0  0  0  0  0  0  0  0  0  0  0
    0.5209    0.8651    6.8728 H   0  0  0  0  0  0  0  0  0  0  0  0
   -1.0238    0.3735    6.3814 H   0  0  0  0  0  0  0  0  0  0  0  0
   -1.5966   -1.4138    5.5552 H   0  0  0  0  0  0  0  0  0  0  0  0
   -0.9016   -2.8884    5.9383 H   0  0  0  0  0  0  0  0  0  0  0  0
   -0.5872   -2.1118    4.3935 H   0  0  0  0  0  0  0  0  0  0  0  0
    1.5885   -1.2707    8.0428 H   0  0  0  0  0  0  0  0  0  0  0  0
   -0.0605   -1.7238    8.0961 H   0  0  0  0  0  0  0  0  0  0  0  0
    0.3435   -3.9568    7.2476 H   0  0  0  0  0  0  0  0  0  0  0  0
    1.3958   -3.6030    8.5414 H   0  0  0  0  0  0  0  0  0  0  0  0
    5.6323   -5.0306    2.2695 H   0  0  0  0  0  0  0  0  0  0  0  0
    4.9798   -6.6227    2.1486 H   0  0  0  0  0  0  0  0  0  0  0  0
    5.5893   -6.0067    3.6759 H   0  0  0  0  0  0  0  0  0  0  0  0
    4.3914   -3.1911    2.7082 H   0  0  0  0  0  0  0  0  0  0  0  0
    2.6646   -3.2966    2.3400 H   0  0  0  0  0  0  0  0  0  0  0  0
    3.8419   -3.9848    1.2866 H   0  0  0  0  0  0  0  0  0  0  0  0
  1  2  1  0
  1 38  1  0
  1 39  1  0
  1 40  1  0
  2 10  1  0
  2  3  1  0
  2  4  1  0
  3 41  1  0
  3 42  1  0
  3 43  1  0
  4  5  1  0
  4 44  1  0
  4 45  1  0
  5  6  1  0
  5 46  1  0
  5 47  1  0
  6  7  1  0
  6 48  1  0
  6 49  1  0
  7 19  1  0
  7  8  1  1
  7  9  1  0
  8 50  1  0
  8 51  1  0
  8 52  1  0
  9 10  1  0
  9 53  1  0
  9 54  1  0
 10 11  1  0
 10 55  1  6
 11 35  1  0
 11 12  1  6
 11 15  1  0
 12 13  2  0
 12 14  1  0
 14 56  1  0
 15 16  1  0
 15 57  1  0
 15 58  1  0
 17 16  1  6
 16 59  1  0
 16 60  1  0
 17 21  1  0
 17 24  1  0
 17 18  1  0
 18 19  1  0
 18 35  1  0
 18 61  1  1
 19 20  1  0
 19 62  1  6
 21 20  1  6
 20 63  1  0
 20 64  1  0
 21 34  1  0
 21 22  1  0
 22 23  1  0
 22 65  1  0
 22 66  1  0
 23 24  1  0
 23 67  1  0
 23 68  1  0
 24 25  1  0
 24 69  1  6
 25 31  1  0
 25 26  1  1
 25 27  1  0
 26 70  1  0
 26 71  1  0
 26 72  1  0
 27 28  1  0
 27 29  1  0
 27 73  1  6
 28 74  1  0
 29 30  1  0
 29 75  1  0
 29 76  1  0
 30 31  1  0
 30 77  1  0
 30 78  1  0
 31 32  1  6
 31 33  1  0
 32 79  1  0
 32 80  1  0
 32 81  1  0
 33 34  1  0
 33 82  1  0
 33 83  1  0
 34 84  1  0
 34 85  1  0
 35 36  1  0
 35 37  1  0
 36 86  1  0
 36 87  1  0
 36 88  1  0
 37 89  1  0
 37 90  1  0
 37 91  1  0
M  END
>  <i_m_ct_stereo_status>  (228) 
1

>  <s_m_source_file>  (228) 
/var/tmp/pbs.5076255.sched01/tmpzygr1bk5/76dkit4mfj.sdf

>  <i_m_source_file_index>  (228) 
28

>  <i_lp_mmshare_version>  (228) 
48012

>  <i_f3d_flags>  (228) 
0

>  <s_epik_input>  (228) 
Tz1DKFtPSF0pW0NAXShbQ0gyXVtDSDJdMSkoQyhbQ0BASF0yMykoW0NIM10pW0NIM10pW0NAQEhdKFtDSDJdNClDKFtDSDNdKShbQ0gzXSlbQ0gyXVtDSDJdW0NIMl1bQ0BdNChbQ0gzXSlbQ0BIXTNbQ0gyXVtDQF01KFtDQF0xMjYpW0NIMl1bQ0gyXVtDQEBIXTZbQ0BdNyhbQ0gzXSlbQ0BAXShbQ0gzXSkoW0NIMl1bQ0gyXTUpW0NIMl1bQ0gyXVtDQEBIXTdbT0hd

>  <s_epik_cmdline>  (228) 
J2VwaWtfcHl0aG9uJywgJy1waHQnLCAnMi4wJywgJy1waCcsICc3LjAnLCAnLXRuJywgJzgnLCAnLW1hJywgJzIwMCcsICctaW1hZScsICc8aW5maWxlLm1hZT4nLCAnLW9tYWUnLCAnPG91dGZpbGUubWFlPic=

>  <r_epik_Ionization_Penalty>  (228) 
2.40869

>  <r_epik_Ionization_Penalty_Charging>  (228) 
0

>  <r_epik_Ionization_Penalty_Neutral>  (228) 
2.40869

>  <r_epik_State_Penalty>  (228) 
2.56715

>  <r_epik_Charging_Adjusted_Penalty>  (228) 
2.56715

>  <i_epik_Tot_Q>  (228) 
0

>  <i_epik_Tot_abs_Q>  (228) 
0

>  <s_lp_Force_Field>  (228) 
OPLS3e

>  <r_lp_Energy>  (228) 
210.193

>  <b_lp_Chiralities_Consistent>  (228) 
1

>  <s_lp_Variant>  (228) 
78:0-2

>  <s_i_glide_gridfile>  (228) 
pfpi4k_grid

>  <i_i_glide_lignum>  (228) 
28

>  <i_i_glide_rotatable_bonds>  (228) 
3

>  <r_i_docking_score>  (228) 
-2.33644

>  <r_i_glide_ligand_efficiency>  (228) 
-0.0631469

>  <r_i_glide_ligand_efficiency_sa>  (228) 
-0.21042

>  <r_i_glide_ligand_efficiency_ln>  (228) 
-0.506718

>  <r_i_glide_gscore>  (228) 
-2.33644

>  <r_i_glide_lipo>  (228) 
-0.100695

>  <r_i_glide_hbond>  (228) 
-0.16

>  <r_i_glide_metal>  (228) 
-0

>  <r_i_glide_rewards>  (228) 
0

>  <r_i_glide_evdw>  (228) 
-25.0631

>  <r_i_glide_ecoul>  (228) 
-5.80207

>  <r_i_glide_erotb>  (228) 
0.0785291

>  <r_i_glide_esite>  (228) 
-0.0308058

>  <r_i_glide_emodel>  (228) 
-36.0736

>  <r_i_glide_energy>  (228) 
-30.8652

>  <r_i_glide_einternal>  (228) 
0.445743

>  <r_i_glide_intrahb_reward>  (228) 
-0

>  <i_i_glide_confnum>  (228) 
1

>  <i_i_glide_posenum>  (228) 
21

>  <r_i_glide_eff_state_penalty>  (228) 
0

>  <ligand_id>  (228) 
78

>  <original_smiles>  (228) 
CC1(C)CCCC2(C)CC1C1(C(=O)O)CCC34C(C2CC32CCC4C3(C)C(O)CCC3(C)CC2)C1(C)C

>  <smiles>  (228) 
[H]OC(=O)C12C([H])([H])C([H])([H])C34C([H])(C([H])(C([H])([H])C35C([H])([H])C([H])([H])C4([H])C3(C([H])([H])[H])C([H])(O[H])C([H])([H])C([H])([H])C3(C([H])([H])[H])C([H])([H])C5([H])[H])C3(C([H])([H])[H])C([H])([H])C([H])([H])C([H])([H])C(C([H])([H])[H])(C([H])([H])[H])C1([H])C3([H])[H])C2(C([H])([H])[H])C([H])([H])[H]

$$$$
79:0:0
     RDKit          3D

 63 68  0  0  1  0  0  0  0  0999 V2000
    5.1501   -1.0701   -0.5054 C   0  0  0  0  0  0  0  0  0  0  0  0
    4.8299   -2.4687    0.0783 C   0  0  0  0  0  0  0  0  0  0  0  0
    5.2112   -3.4953   -1.0172 C   0  0  0  0  0  0  0  0  0  0  0  0
    5.7301   -2.7227    1.3194 C   0  0  0  0  0  0  0  0  0  0  0  0
    5.0208   -2.6583    2.6923 C   0  0  1  0  0  0  0  0  0  0  0  0
    4.4280   -1.2585    3.0475 C   0  0  2  0  0  0  0  0  0  0  0  0
    4.6245   -0.8843    4.5260 C   0  0  0  0  0  0  0  0  0  0  0  0
    4.6576    0.2955    4.8697 O   0  0  0  0  0  0  0  0  0  0  0  0
    4.7864   -1.9907    5.5747 C   0  0  0  0  0  0  0  0  0  0  0  0
    3.8477   -3.1824    5.4479 C   0  0  2  0  0  0  0  0  0  0  0  0
    4.5153   -4.3561    4.9853 O   0  0  0  0  0  0  0  0  0  0  0  0
    3.4086   -3.9403    4.1823 C   0  0  1  0  0  0  0  0  0  0  0  0
    2.2462   -4.9212    4.2574 C   0  0  1  0  0  0  0  0  0  0  0  0
    1.0156   -4.3099    3.9254 O   0  0  0  0  0  0  0  0  0  0  0  0
    2.5234   -6.2140    3.4665 C   0  0  2  0  0  0  0  0  0  0  0  0
    1.2669   -7.1206    3.4220 C   0  0  0  0  0  0  0  0  0  0  0  0
    3.4479   -6.9975    4.2237 O   0  0  0  0  0  0  0  0  0  0  0  0
    4.6061   -7.3126    3.4633 C   0  0  0  0  0  0  0  0  0  0  0  0
    4.2016   -7.1334    2.0054 C   0  0  1  0  0  0  0  0  0  0  0  0
    3.6618   -8.3418    1.5038 O   0  0  0  0  0  0  0  0  0  0  0  0
    3.2107   -5.9719    2.0892 C   0  0  1  0  0  0  0  0  0  0  0  0
    2.2528   -5.9018    0.8833 C   0  0  0  0  0  0  0  0  0  0  0  0
    4.0935   -4.8323    2.0525 O   0  0  0  0  0  0  0  0  0  0  0  0
    3.7996   -3.5925    2.7230 C   0  0  2  0  0  0  0  0  0  0  0  0
    2.8482   -2.6688    1.8965 C   0  0  2  0  0  0  0  0  0  0  0  0
    3.3062   -2.6517    0.3992 C   0  0  0  0  0  0  0  0  0  0  0  0
    2.9319   -1.2702    2.5817 C   0  0  0  0  0  0  0  0  0  0  0  0
    1.8415   -1.1567    3.6932 C   0  0  0  0  0  0  0  0  0  0  0  0
    2.5940   -0.0556    1.6798 C   0  0  0  0  0  0  0  0  0  0  0  0
    6.1067   -1.0714   -1.0232 H   0  0  0  0  0  0  0  0  0  0  0  0
    5.2370   -0.3016    0.2593 H   0  0  0  0  0  0  0  0  0  0  0  0
    4.4037   -0.7470   -1.2300 H   0  0  0  0  0  0  0  0  0  0  0  0
    5.0339   -4.5180   -0.6735 H   0  0  0  0  0  0  0  0  0  0  0  0
    6.2680   -3.4256   -1.2911 H   0  0  0  0  0  0  0  0  0  0  0  0
    4.6198   -3.3477   -1.9248 H   0  0  0  0  0  0  0  0  0  0  0  0
    6.1843   -3.7135    1.2356 H   0  0  0  0  0  0  0  0  0  0  0  0
    6.5813   -2.0408    1.3204 H   0  0  0  0  0  0  0  0  0  0  0  0
    5.7844   -2.9705    3.4032 H   0  0  0  0  0  0  0  0  0  0  0  0
    4.9743   -0.5010    2.4892 H   0  0  0  0  0  0  0  0  0  0  0  0
    5.8152   -2.3457    5.5578 H   0  0  0  0  0  0  0  0  0  0  0  0
    4.6374   -1.5502    6.5596 H   0  0  0  0  0  0  0  0  0  0  0  0
    3.2408   -3.3468    6.3366 H   0  0  0  0  0  0  0  0  0  0  0  0
    2.1319   -5.2100    5.3053 H   0  0  0  0  0  0  0  0  0  0  0  0
    1.1107   -3.8600    3.1010 H   0  0  0  0  0  0  0  0  0  0  0  0
    0.4466   -6.6704    2.8639 H   0  0  0  0  0  0  0  0  0  0  0  0
    0.8980   -7.3254    4.4278 H   0  0  0  0  0  0  0  0  0  0  0  0
    1.4820   -8.0868    2.9645 H   0  0  0  0  0  0  0  0  0  0  0  0
    5.3720   -6.5795    3.7201 H   0  0  0  0  0  0  0  0  0  0  0  0
    5.0007   -8.3028    3.6952 H   0  0  0  0  0  0  0  0  0  0  0  0
    5.0648   -6.8878    1.3861 H   0  0  0  0  0  0  0  0  0  0  0  0
    3.5302   -8.2576    0.5745 H   0  0  0  0  0  0  0  0  0  0  0  0
    1.6497   -6.8009    0.7755 H   0  0  0  0  0  0  0  0  0  0  0  0
    2.8082   -5.7879   -0.0450 H   0  0  0  0  0  0  0  0  0  0  0  0
    1.5629   -5.0708    0.9784 H   0  0  0  0  0  0  0  0  0  0  0  0
    1.8162   -3.0120    1.9039 H   0  0  0  0  0  0  0  0  0  0  0  0
    2.7109   -1.9391   -0.1673 H   0  0  0  0  0  0  0  0  0  0  0  0
    3.0000   -3.5965   -0.0333 H   0  0  0  0  0  0  0  0  0  0  0  0
    0.8431   -1.2714    3.2648 H   0  0  0  0  0  0  0  0  0  0  0  0
    1.8595   -0.1802    4.1817 H   0  0  0  0  0  0  0  0  0  0  0  0
    1.9078   -1.8922    4.4846 H   0  0  0  0  0  0  0  0  0  0  0  0
    1.5773   -0.1213    1.2904 H   0  0  0  0  0  0  0  0  0  0  0  0
    3.2399    0.0596    0.8229 H   0  0  0  0  0  0  0  0  0  0  0  0
    2.6648    0.8814    2.2359 H   0  0  0  0  0  0  0  0  0  0  0  0
  1  2  1  0
  1 30  1  0
  1 31  1  0
  1 32  1  0
  2 26  1  0
  2  3  1  0
  2  4  1  0
  3 33  1  0
  3 34  1  0
  3 35  1  0
  4  5  1  0
  4 36  1  0
  4 37  1  0
  5 24  1  0
  5  6  1  0
  5 38  1  1
  6 27  1  0
  6  7  1  0
  6 39  1  6
  7  8  2  0
  7  9  1  0
  9 10  1  0
  9 40  1  0
  9 41  1  0
 10 12  1  0
 10 11  1  0
 10 42  1  1
 12 11  1  1
 12 24  1  0
 12 13  1  0
 13 14  1  0
 13 15  1  0
 13 43  1  1
 14 44  1  0
 15 21  1  0
 15 16  1  6
 15 17  1  0
 16 45  1  0
 16 46  1  0
 16 47  1  0
 17 18  1  0
 18 19  1  0
 18 48  1  0
 18 49  1  0
 19 20  1  0
 19 21  1  0
 19 50  1  6
 20 51  1  0
 21 22  1  6
 21 23  1  0
 22 52  1  0
 22 53  1  0
 22 54  1  0
 24 23  1  6
 24 25  1  0
 25 26  1  0
 25 27  1  0
 25 55  1  6
 26 56  1  0
 26 57  1  0
 27 28  1  0
 27 29  1  0
 28 58  1  0
 28 59  1  0
 28 60  1  0
 29 61  1  0
 29 62  1  0
 29 63  1  0
M  END
>  <i_m_ct_stereo_status>  (229) 
1

>  <s_m_source_file>  (229) 
/var/tmp/pbs.5076255.sched01/tmpzygr1bk5/76dkit4mfj.sdf

>  <i_m_source_file_index>  (229) 
29

>  <i_lp_mmshare_version>  (229) 
48012

>  <i_f3d_flags>  (229) 
0

>  <s_epik_input>  (229) 
W0NIM11DKFtDSDNdKShbQ0gyXTEpW0NIMl1bQ0BASF0yQyhbQ0gzXSkoW0NIM10pW0NAQEhdKEMoPU8pW0NIMl1bQ0BASF0zTzQpW0NASF0xW0NAXTIoW0NAXTM0NSlPW0NAXTYoW0NIM10pW0NAXShbQ0gzXSkoW0NAQEhdNVtPSF0pT1tDSDJdW0NASF02W09IXQ==

>  <s_epik_cmdline>  (229) 
J2VwaWtfcHl0aG9uJywgJy1waHQnLCAnMi4wJywgJy1waCcsICc3LjAnLCAnLXRuJywgJzgnLCAnLW1hJywgJzIwMCcsICctaW1hZScsICc8aW5maWxlLm1hZT4nLCAnLW9tYWUnLCAnPG91dGZpbGUubWFlPic=

>  <r_lp_tautomer_probability>  (229) 
1

>  <r_epik_Ionization_Penalty>  (229) 
9.40263e-07

>  <r_epik_Ionization_Penalty_Charging>  (229) 
0

>  <r_epik_Ionization_Penalty_Neutral>  (229) 
9.40263e-07

>  <r_epik_State_Penalty>  (229) 
-0

>  <r_epik_Charging_Adjusted_Penalty>  (229) 
0

>  <i_epik_Tot_Q>  (229) 
0

>  <i_epik_Tot_abs_Q>  (229) 
0

>  <s_lp_Force_Field>  (229) 
OPLS3e

>  <r_lp_Energy>  (229) 
69.264

>  <b_lp_Chiralities_Consistent>  (229) 
1

>  <s_lp_Variant>  (229) 
79:0-1

>  <s_i_glide_gridfile>  (229) 
pfpi4k_grid

>  <i_i_glide_lignum>  (229) 
29

>  <i_i_glide_rotatable_bonds>  (229) 
2

>  <r_i_docking_score>  (229) 
-2.26391

>  <r_i_glide_ligand_efficiency>  (229) 
-0.0780658

>  <r_i_glide_ligand_efficiency_sa>  (229) 
-0.239843

>  <r_i_glide_ligand_efficiency_ln>  (229) 
-0.518377

>  <r_i_glide_gscore>  (229) 
-2.26391

>  <r_i_glide_lipo>  (229) 
-0.293923

>  <r_i_glide_hbond>  (229) 
0

>  <r_i_glide_metal>  (229) 
-0

>  <r_i_glide_rewards>  (229) 
-0.682078

>  <r_i_glide_evdw>  (229) 
-25.0487

>  <r_i_glide_ecoul>  (229) 
-0.236465

>  <r_i_glide_erotb>  (229) 
0

>  <r_i_glide_esite>  (229) 
0

>  <r_i_glide_emodel>  (229) 
-28.4823

>  <r_i_glide_energy>  (229) 
-25.2852

>  <r_i_glide_einternal>  (229) 
0.510206

>  <r_i_glide_intrahb_reward>  (229) 
-0

>  <i_i_glide_confnum>  (229) 
2

>  <i_i_glide_posenum>  (229) 
2

>  <r_i_glide_eff_state_penalty>  (229) 
0

>  <ligand_id>  (229) 
79

>  <original_smiles>  (229) 
CC1(C)CC2C3C(=O)CC4OC45C(O)C4(C)OCC(O)C4(C)OC25C(C1)C3(C)C

>  <smiles>  (229) 
[H]OC1([H])C([H])([H])OC2(C([H])([H])[H])C([H])(O[H])C34OC3([H])C([H])([H])C(=O)C3([H])C5([H])C([H])([H])C(C([H])([H])[H])(C([H])([H])[H])C([H])([H])C([H])(C54OC12C([H])([H])[H])C3(C([H])([H])[H])C([H])([H])[H]

$$$$
79:0:1
     RDKit          3D

 63 68  0  0  1  0  0  0  0  0999 V2000
    5.2772   -1.3988   -0.8839 C   0  0  0  0  0  0  0  0  0  0  0  0
    4.8611   -2.7568   -0.2655 C   0  0  0  0  0  0  0  0  0  0  0  0
    5.1237   -3.8225   -1.3560 C   0  0  0  0  0  0  0  0  0  0  0  0
    5.7760   -3.0675    0.9522 C   0  0  0  0  0  0  0  0  0  0  0  0
    5.1148   -2.9271    2.3432 C   0  0  1  0  0  0  0  0  0  0  0  0
    4.6525   -1.4787    2.6929 C   0  0  2  0  0  0  0  0  0  0  0  0
    4.9233   -1.1007    4.1584 C   0  0  0  0  0  0  0  0  0  0  0  0
    5.0673    0.0768    4.4804 O   0  0  0  0  0  0  0  0  0  0  0  0
    5.0183   -2.2023    5.2218 C   0  0  0  0  0  0  0  0  0  0  0  0
    3.9852   -3.3145    5.1382 C   0  0  2  0  0  0  0  0  0  0  0  0
    4.5429   -4.5435    4.6770 O   0  0  0  0  0  0  0  0  0  0  0  0
    3.4517   -4.0513    3.8970 C   0  0  1  0  0  0  0  0  0  0  0  0
    2.2196   -4.9331    4.0218 C   0  0  1  0  0  0  0  0  0  0  0  0
    1.0318   -4.2262    3.7132 O   0  0  0  0  0  0  0  0  0  0  0  0
    2.3658   -6.2567    3.2489 C   0  0  2  0  0  0  0  0  0  0  0  0
    1.0377   -7.0557    3.2551 C   0  0  0  0  0  0  0  0  0  0  0  0
    3.2472   -7.1019    3.9924 O   0  0  0  0  0  0  0  0  0  0  0  0
    4.3516   -7.5217    3.2034 C   0  0  0  0  0  0  0  0  0  0  0  0
    3.9150   -7.3345    1.7545 C   0  0  1  0  0  0  0  0  0  0  0  0
    3.2575   -8.4986    1.2826 O   0  0  0  0  0  0  0  0  0  0  0  0
    3.0288   -6.0905    1.8493 C   0  0  1  0  0  0  0  0  0  0  0  0
    2.0423   -5.9502    0.6743 C   0  0  0  0  0  0  0  0  0  0  0  0
    4.0027   -5.0295    1.7704 O   0  0  0  0  0  0  0  0  0  0  0  0
    3.8254   -3.7581    2.4225 C   0  0  2  0  0  0  0  0  0  0  0  0
    2.9270   -2.7706    1.6127 C   0  0  2  0  0  0  0  0  0  0  0  0
    3.3382   -2.8098    0.1015 C   0  0  0  0  0  0  0  0  0  0  0  0
    3.1477   -1.3733    2.2716 C   0  0  0  0  0  0  0  0  0  0  0  0
    2.1051   -1.1528    3.4128 C   0  0  0  0  0  0  0  0  0  0  0  0
    2.8863   -0.1462    1.3641 C   0  0  0  0  0  0  0  0  0  0  0  0
    6.2121   -1.4859   -1.4344 H   0  0  0  0  0  0  0  0  0  0  0  0
    5.4516   -0.6300   -0.1342 H   0  0  0  0  0  0  0  0  0  0  0  0
    4.5354   -1.0247   -1.5880 H   0  0  0  0  0  0  0  0  0  0  0  0
    4.8803   -4.8251   -0.9914 H   0  0  0  0  0  0  0  0  0  0  0  0
    6.1740   -3.8365   -1.6628 H   0  0  0  0  0  0  0  0  0  0  0  0
    4.5163   -3.6419   -2.2473 H   0  0  0  0  0  0  0  0  0  0  0  0
    6.1457   -4.0934    0.8692 H   0  0  0  0  0  0  0  0  0  0  0  0
    6.6792   -2.4573    0.9189 H   0  0  0  0  0  0  0  0  0  0  0  0
    5.8616   -3.2967    3.0401 H   0  0  0  0  0  0  0  0  0  0  0  0
    5.2415   -0.7764    2.1061 H   0  0  0  0  0  0  0  0  0  0  0  0
    6.0117   -2.6459    5.1854 H   0  0  0  0  0  0  0  0  0  0  0  0
    4.9380   -1.7373    6.2031 H   0  0  0  0  0  0  0  0  0  0  0  0
    3.3986   -3.4193    6.0501 H   0  0  0  0  0  0  0  0  0  0  0  0
    2.1141   -5.1915    5.0776 H   0  0  0  0  0  0  0  0  0  0  0  0
    1.0133   -3.4365    4.2312 H   0  0  0  0  0  0  0  0  0  0  0  0
    0.2417   -6.5449    2.7138 H   0  0  0  0  0  0  0  0  0  0  0  0
    0.6833   -7.2162    4.2743 H   0  0  0  0  0  0  0  0  0  0  0  0
    1.1582   -8.0416    2.8047 H   0  0  0  0  0  0  0  0  0  0  0  0
    5.1804   -6.8480    3.4249 H   0  0  0  0  0  0  0  0  0  0  0  0
    4.6730   -8.5344    3.4458 H   0  0  0  0  0  0  0  0  0  0  0  0
    4.7738   -7.1692    1.1037 H   0  0  0  0  0  0  0  0  0  0  0  0
    3.8419   -9.2382    1.3522 H   0  0  0  0  0  0  0  0  0  0  0  0
    1.3708   -6.8022    0.5921 H   0  0  0  0  0  0  0  0  0  0  0  0
    2.5784   -5.8890   -0.2698 H   0  0  0  0  0  0  0  0  0  0  0  0
    1.4230   -5.0668    0.7767 H   0  0  0  0  0  0  0  0  0  0  0  0
    1.8715   -3.0323    1.6665 H   0  0  0  0  0  0  0  0  0  0  0  0
    2.7863   -2.0588   -0.4591 H   0  0  0  0  0  0  0  0  0  0  0  0
    2.9438   -3.7326   -0.3069 H   0  0  0  0  0  0  0  0  0  0  0  0
    1.0885   -1.1950    3.0144 H   0  0  0  0  0  0  0  0  0  0  0  0
    2.2163   -0.1731    3.8818 H   0  0  0  0  0  0  0  0  0  0  0  0
    2.1400   -1.8768    4.2151 H   0  0  0  0  0  0  0  0  0  0  0  0
    1.8541   -0.1288    1.0126 H   0  0  0  0  0  0  0  0  0  0  0  0
    3.5083   -0.1000    0.4814 H   0  0  0  0  0  0  0  0  0  0  0  0
    3.0541    0.7887    1.9004 H   0  0  0  0  0  0  0  0  0  0  0  0
  1  2  1  0
  1 30  1  0
  1 31  1  0
  1 32  1  0
  2 26  1  0
  2  3  1  0
  2  4  1  0
  3 33  1  0
  3 34  1  0
  3 35  1  0
  4  5  1  0
  4 36  1  0
  4 37  1  0
  5 24  1  0
  5  6  1  0
  5 38  1  1
  6 27  1  0
  6  7  1  0
  6 39  1  6
  7  8  2  0
  7  9  1  0
  9 10  1  0
  9 40  1  0
  9 41  1  0
 10 12  1  0
 10 11  1  0
 10 42  1  1
 12 11  1  1
 12 24  1  0
 12 13  1  0
 13 14  1  0
 13 15  1  0
 13 43  1  1
 14 44  1  0
 15 21  1  0
 15 16  1  6
 15 17  1  0
 16 45  1  0
 16 46  1  0
 16 47  1  0
 17 18  1  0
 18 19  1  0
 18 48  1  0
 18 49  1  0
 19 20  1  0
 19 21  1  0
 19 50  1  6
 20 51  1  0
 21 22  1  6
 21 23  1  0
 22 52  1  0
 22 53  1  0
 22 54  1  0
 24 23  1  6
 24 25  1  0
 25 26  1  0
 25 27  1  0
 25 55  1  6
 26 56  1  0
 26 57  1  0
 27 28  1  0
 27 29  1  0
 28 58  1  0
 28 59  1  0
 28 60  1  0
 29 61  1  0
 29 62  1  0
 29 63  1  0
M  END
>  <i_m_ct_stereo_status>  (230) 
1

>  <s_m_source_file>  (230) 
/var/tmp/pbs.5076255.sched01/tmpzygr1bk5/76dkit4mfj.sdf

>  <i_m_source_file_index>  (230) 
29

>  <i_lp_mmshare_version>  (230) 
48012

>  <i_f3d_flags>  (230) 
0

>  <s_epik_input>  (230) 
W0NIM11DKFtDSDNdKShbQ0gyXTEpW0NIMl1bQ0BASF0yQyhbQ0gzXSkoW0NIM10pW0NAQEhdKEMoPU8pW0NIMl1bQ0BASF0zTzQpW0NASF0xW0NAXTIoW0NAXTM0NSlPW0NAXTYoW0NIM10pW0NAXShbQ0gzXSkoW0NAQEhdNVtPSF0pT1tDSDJdW0NASF02W09IXQ==

>  <s_epik_cmdline>  (230) 
J2VwaWtfcHl0aG9uJywgJy1waHQnLCAnMi4wJywgJy1waCcsICc3LjAnLCAnLXRuJywgJzgnLCAnLW1hJywgJzIwMCcsICctaW1hZScsICc8aW5maWxlLm1hZT4nLCAnLW9tYWUnLCAnPG91dGZpbGUubWFlPic=

>  <r_lp_tautomer_probability>  (230) 
1

>  <r_epik_Ionization_Penalty>  (230) 
9.40263e-07

>  <r_epik_Ionization_Penalty_Charging>  (230) 
0

>  <r_epik_Ionization_Penalty_Neutral>  (230) 
9.40263e-07

>  <r_epik_State_Penalty>  (230) 
-0

>  <r_epik_Charging_Adjusted_Penalty>  (230) 
0

>  <i_epik_Tot_Q>  (230) 
0

>  <i_epik_Tot_abs_Q>  (230) 
0

>  <s_lp_Force_Field>  (230) 
OPLS3e

>  <r_lp_Energy>  (230) 
69.264

>  <b_lp_Chiralities_Consistent>  (230) 
1

>  <s_lp_Variant>  (230) 
79:0-1

>  <s_i_glide_gridfile>  (230) 
pfpi4k_grid

>  <i_i_glide_lignum>  (230) 
29

>  <i_i_glide_rotatable_bonds>  (230) 
2

>  <r_i_docking_score>  (230) 
-2.20976

>  <r_i_glide_ligand_efficiency>  (230) 
-0.0761987

>  <r_i_glide_ligand_efficiency_sa>  (230) 
-0.234106

>  <r_i_glide_ligand_efficiency_ln>  (230) 
-0.505979

>  <r_i_glide_gscore>  (230) 
-2.20976

>  <r_i_glide_lipo>  (230) 
-0.285723

>  <r_i_glide_hbond>  (230) 
0

>  <r_i_glide_metal>  (230) 
-0

>  <r_i_glide_rewards>  (230) 
-0.717525

>  <r_i_glide_evdw>  (230) 
-25.4546

>  <r_i_glide_ecoul>  (230) 
0.441448

>  <r_i_glide_erotb>  (230) 
0

>  <r_i_glide_esite>  (230) 
0

>  <r_i_glide_emodel>  (230) 
-28.0757

>  <r_i_glide_energy>  (230) 
-25.0132

>  <r_i_glide_einternal>  (230) 
0.681097

>  <r_i_glide_intrahb_reward>  (230) 
-0

>  <i_i_glide_confnum>  (230) 
2

>  <i_i_glide_posenum>  (230) 
21

>  <r_i_glide_eff_state_penalty>  (230) 
0

>  <ligand_id>  (230) 
79

>  <original_smiles>  (230) 
CC1(C)CC2C3C(=O)CC4OC45C(O)C4(C)OCC(O)C4(C)OC25C(C1)C3(C)C

>  <smiles>  (230) 
[H]OC1([H])C([H])([H])OC2(C([H])([H])[H])C([H])(O[H])C34OC3([H])C([H])([H])C(=O)C3([H])C5([H])C([H])([H])C(C([H])([H])[H])(C([H])([H])[H])C([H])([H])C([H])(C54OC12C([H])([H])[H])C3(C([H])([H])[H])C([H])([H])[H]

$$$$
79:0:2
     RDKit          3D

 63 68  0  0  1  0  0  0  0  0999 V2000
    4.0392   -0.6710    0.1675 C   0  0  0  0  0  0  0  0  0  0  0  0
    4.3075   -1.6726    1.3158 C   0  0  0  0  0  0  0  0  0  0  0  0
    4.9904   -2.9005    0.6665 C   0  0  0  0  0  0  0  0  0  0  0  0
    5.3039   -1.0355    2.3216 C   0  0  0  0  0  0  0  0  0  0  0  0
    4.7039   -0.5862    3.6741 C   0  0  1  0  0  0  0  0  0  0  0  0
    3.6343    0.5457    3.5656 C   0  0  2  0  0  0  0  0  0  0  0  0
    3.7527    1.5902    4.6897 C   0  0  0  0  0  0  0  0  0  0  0  0
    3.3399    2.7359    4.5248 O   0  0  0  0  0  0  0  0  0  0  0  0
    4.3949    1.2004    6.0245 C   0  0  0  0  0  0  0  0  0  0  0  0
    3.9819   -0.1481    6.5940 C   0  0  2  0  0  0  0  0  0  0  0  0
    5.0225   -1.1217    6.5040 O   0  0  0  0  0  0  0  0  0  0  0  0
    3.7964   -1.4927    5.8675 C   0  0  1  0  0  0  0  0  0  0  0  0
    3.1064   -2.6441    6.5845 C   0  0  1  0  0  0  0  0  0  0  0  0
    1.7155   -2.6833    6.3179 O   0  0  0  0  0  0  0  0  0  0  0  0
    3.8170   -3.9885    6.3404 C   0  0  2  0  0  0  0  0  0  0  0  0
    3.0060   -5.1660    6.9388 C   0  0  0  0  0  0  0  0  0  0  0  0
    5.0158   -4.0043    7.1204 O   0  0  0  0  0  0  0  0  0  0  0  0
    6.1597   -4.2394    6.3121 C   0  0  0  0  0  0  0  0  0  0  0  0
    5.6260   -4.8833    5.0372 C   0  0  1  0  0  0  0  0  0  0  0  0
    5.5619   -6.2893    5.1872 O   0  0  0  0  0  0  0  0  0  0  0  0
    4.2745   -4.1919    4.8648 C   0  0  1  0  0  0  0  0  0  0  0  0
    3.2962   -4.9889    3.9748 C   0  0  0  0  0  0  0  0  0  0  0  0
    4.6538   -2.9796    4.1828 O   0  0  0  0  0  0  0  0  0  0  0  0
    3.9408   -1.7400    4.3438 C   0  0  2  0  0  0  0  0  0  0  0  0
    2.6589   -1.6512    3.4512 C   0  0  2  0  0  0  0  0  0  0  0  0
    2.9881   -2.1642    2.0071 C   0  0  0  0  0  0  0  0  0  0  0  0
    2.2337   -0.1518    3.4829 C   0  0  0  0  0  0  0  0  0  0  0  0
    1.2500    0.0993    4.6690 C   0  0  0  0  0  0  0  0  0  0  0  0
    1.4043    0.3420    2.2696 C   0  0  0  0  0  0  0  0  0  0  0  0
    4.8884   -0.5925   -0.5091 H   0  0  0  0  0  0  0  0  0  0  0  0
    3.8627    0.3397    0.5255 H   0  0  0  0  0  0  0  0  0  0  0  0
    3.1851   -0.9708   -0.4388 H   0  0  0  0  0  0  0  0  0  0  0  0
    5.2410   -3.6518    1.4228 H   0  0  0  0  0  0  0  0  0  0  0  0
    5.9206   -2.6269    0.1608 H   0  0  0  0  0  0  0  0  0  0  0  0
    4.3368   -3.3767   -0.0694 H   0  0  0  0  0  0  0  0  0  0  0  0
    6.0996   -1.7522    2.5400 H   0  0  0  0  0  0  0  0  0  0  0  0
    5.8248   -0.1975    1.8584 H   0  0  0  0  0  0  0  0  0  0  0  0
    5.5682   -0.2766    4.2610 H   0  0  0  0  0  0  0  0  0  0  0  0
    3.8101    1.0992    2.6453 H   0  0  0  0  0  0  0  0  0  0  0  0
    5.4783    1.2290    5.9192 H   0  0  0  0  0  0  0  0  0  0  0  0
    4.1416    1.9657    6.7557 H   0  0  0  0  0  0  0  0  0  0  0  0
    3.5322   -0.0775    7.5830 H   0  0  0  0  0  0  0  0  0  0  0  0
    3.1724   -2.4421    7.6569 H   0  0  0  0  0  0  0  0  0  0  0  0
    1.5900   -2.8406    5.3960 H   0  0  0  0  0  0  0  0  0  0  0  0
    2.0454   -5.3047    6.4418 H   0  0  0  0  0  0  0  0  0  0  0  0
    2.8011   -5.0004    7.9964 H   0  0  0  0  0  0  0  0  0  0  0  0
    3.5483   -6.1092    6.8654 H   0  0  0  0  0  0  0  0  0  0  0  0
    6.5976   -3.2673    6.0775 H   0  0  0  0  0  0  0  0  0  0  0  0
    6.9185   -4.8277    6.8279 H   0  0  0  0  0  0  0  0  0  0  0  0
    6.2777   -4.6903    4.1878 H   0  0  0  0  0  0  0  0  0  0  0  0
    6.4368   -6.6191    5.3100 H   0  0  0  0  0  0  0  0  0  0  0  0
    3.0900   -5.9816    4.3681 H   0  0  0  0  0  0  0  0  0  0  0  0
    3.7175   -5.1362    2.9825 H   0  0  0  0  0  0  0  0  0  0  0  0
    2.3388   -4.4853    3.8760 H   0  0  0  0  0  0  0  0  0  0  0  0
    1.8433   -2.2667    3.8247 H   0  0  0  0  0  0  0  0  0  0  0  0
    2.1344   -2.0147    1.3478 H   0  0  0  0  0  0  0  0  0  0  0  0
    3.0438   -3.2449    2.0691 H   0  0  0  0  0  0  0  0  0  0  0  0
    0.3509   -0.5103    4.5583 H   0  0  0  0  0  0  0  0  0  0  0  0
    0.9192    1.1395    4.7075 H   0  0  0  0  0  0  0  0  0  0  0  0
    1.6414   -0.1296    5.6523 H   0  0  0  0  0  0  0  0  0  0  0  0
    0.4696   -0.2118    2.1752 H   0  0  0  0  0  0  0  0  0  0  0  0
    1.9041    0.2571    1.3142 H   0  0  0  0  0  0  0  0  0  0  0  0
    1.1428    1.3965    2.3743 H   0  0  0  0  0  0  0  0  0  0  0  0
  1  2  1  0
  1 30  1  0
  1 31  1  0
  1 32  1  0
  2 26  1  0
  2  3  1  0
  2  4  1  0
  3 33  1  0
  3 34  1  0
  3 35  1  0
  4  5  1  0
  4 36  1  0
  4 37  1  0
  5 24  1  0
  5  6  1  0
  5 38  1  1
  6 27  1  0
  6  7  1  0
  6 39  1  6
  7  8  2  0
  7  9  1  0
  9 10  1  0
  9 40  1  0
  9 41  1  0
 10 12  1  0
 10 11  1  0
 10 42  1  1
 12 11  1  1
 12 24  1  0
 12 13  1  0
 13 14  1  0
 13 15  1  0
 13 43  1  1
 14 44  1  0
 15 21  1  0
 15 16  1  1
 15 17  1  0
 16 45  1  0
 16 46  1  0
 16 47  1  0
 17 18  1  0
 18 19  1  0
 18 48  1  0
 18 49  1  0
 19 20  1  0
 19 21  1  0
 19 50  1  6
 20 51  1  0
 21 22  1  6
 21 23  1  0
 22 52  1  0
 22 53  1  0
 22 54  1  0
 24 23  1  1
 24 25  1  0
 25 26  1  0
 25 27  1  0
 25 55  1  1
 26 56  1  0
 26 57  1  0
 27 28  1  0
 27 29  1  0
 28 58  1  0
 28 59  1  0
 28 60  1  0
 29 61  1  0
 29 62  1  0
 29 63  1  0
M  END
>  <i_m_ct_stereo_status>  (231) 
1

>  <s_m_source_file>  (231) 
/var/tmp/pbs.5076255.sched01/tmpzygr1bk5/76dkit4mfj.sdf

>  <i_m_source_file_index>  (231) 
29

>  <i_lp_mmshare_version>  (231) 
48012

>  <i_f3d_flags>  (231) 
0

>  <s_epik_input>  (231) 
W0NIM11DKFtDSDNdKShbQ0gyXTEpW0NIMl1bQ0BASF0yQyhbQ0gzXSkoW0NIM10pW0NAQEhdKEMoPU8pW0NIMl1bQ0BASF0zTzQpW0NASF0xW0NAXTIoW0NAXTM0NSlPW0NAXTYoW0NIM10pW0NAXShbQ0gzXSkoW0NAQEhdNVtPSF0pT1tDSDJdW0NASF02W09IXQ==

>  <s_epik_cmdline>  (231) 
J2VwaWtfcHl0aG9uJywgJy1waHQnLCAnMi4wJywgJy1waCcsICc3LjAnLCAnLXRuJywgJzgnLCAnLW1hJywgJzIwMCcsICctaW1hZScsICc8aW5maWxlLm1hZT4nLCAnLW9tYWUnLCAnPG91dGZpbGUubWFlPic=

>  <r_lp_tautomer_probability>  (231) 
1

>  <r_epik_Ionization_Penalty>  (231) 
9.40263e-07

>  <r_epik_Ionization_Penalty_Charging>  (231) 
0

>  <r_epik_Ionization_Penalty_Neutral>  (231) 
9.40263e-07

>  <r_epik_State_Penalty>  (231) 
-0

>  <r_epik_Charging_Adjusted_Penalty>  (231) 
0

>  <i_epik_Tot_Q>  (231) 
0

>  <i_epik_Tot_abs_Q>  (231) 
0

>  <s_lp_Force_Field>  (231) 
OPLS3e

>  <r_lp_Energy>  (231) 
69.264

>  <b_lp_Chiralities_Consistent>  (231) 
1

>  <s_lp_Variant>  (231) 
79:0-1

>  <s_i_glide_gridfile>  (231) 
pfpi4k_grid

>  <i_i_glide_lignum>  (231) 
29

>  <i_i_glide_rotatable_bonds>  (231) 
2

>  <r_i_docking_score>  (231) 
-1.9395

>  <r_i_glide_ligand_efficiency>  (231) 
-0.0668794

>  <r_i_glide_ligand_efficiency_sa>  (231) 
-0.205475

>  <r_i_glide_ligand_efficiency_ln>  (231) 
-0.444097

>  <r_i_glide_gscore>  (231) 
-1.9395

>  <r_i_glide_lipo>  (231) 
-0.239749

>  <r_i_glide_hbond>  (231) 
0

>  <r_i_glide_metal>  (231) 
-0

>  <r_i_glide_rewards>  (231) 
-0.637415

>  <r_i_glide_evdw>  (231) 
-19.0263

>  <r_i_glide_ecoul>  (231) 
-0.692472

>  <r_i_glide_erotb>  (231) 
0

>  <r_i_glide_esite>  (231) 
-0.00715398

>  <r_i_glide_emodel>  (231) 
-22.5284

>  <r_i_glide_energy>  (231) 
-19.7188

>  <r_i_glide_einternal>  (231) 
0.313682

>  <r_i_glide_intrahb_reward>  (231) 
-0

>  <i_i_glide_confnum>  (231) 
1

>  <i_i_glide_posenum>  (231) 
11

>  <r_i_glide_eff_state_penalty>  (231) 
0

>  <ligand_id>  (231) 
79

>  <original_smiles>  (231) 
CC1(C)CC2C3C(=O)CC4OC45C(O)C4(C)OCC(O)C4(C)OC25C(C1)C3(C)C

>  <smiles>  (231) 
[H]OC1([H])C([H])([H])OC2(C([H])([H])[H])C([H])(O[H])C34OC3([H])C([H])([H])C(=O)C3([H])C5([H])C([H])([H])C(C([H])([H])[H])(C([H])([H])[H])C([H])([H])C([H])(C54OC12C([H])([H])[H])C3(C([H])([H])[H])C([H])([H])[H]

$$$$
80:0:0
     RDKit          3D

 69 74  0  0  1  0  0  0  0  0999 V2000
   -2.1025    2.3224    8.7345 C   0  0  0  0  0  0  0  0  0  0  0  0
   -2.7204    2.2255    7.4559 O   0  0  0  0  0  0  0  0  0  0  0  0
   -2.2969    3.1697    6.4724 C   0  0  2  0  0  0  0  0  0  0  0  0
   -3.2208    3.1349    5.2433 C   0  0  0  0  0  0  0  0  0  0  0  0
   -0.7500    3.0494    6.1604 C   0  0  2  0  0  0  0  0  0  0  0  0
   -0.3291    3.4388    4.7844 O   0  0  0  0  0  0  0  0  0  0  0  0
    0.0997    2.4581    3.7477 C   0  0  2  0  0  0  0  0  0  0  0  0
   -0.7213    1.2507    4.0284 C   0  0  1  0  0  0  0  0  0  0  0  0
   -1.3191    0.5481    2.9516 O   0  0  0  0  0  0  0  0  0  0  0  0
   -0.4333    0.6009    5.4129 C   0  0  1  0  0  0  0  0  0  0  0  0
   -1.7983   -0.0608    5.8666 C   0  0  0  0  0  0  0  0  0  0  0  0
    0.4860   -0.6605    5.3886 C   0  0  1  0  0  0  0  0  0  0  0  0
    0.4971   -1.4552    4.0976 C   0  0  0  0  0  0  0  0  0  0  0  0
    1.2576   -0.7329    2.9967 C   0  0  0  0  0  0  0  0  0  0  0  0
    2.1221    0.5197    3.4077 C   0  0  1  0  0  0  0  0  0  0  0  0
    2.9064    0.8970    2.1129 C   0  0  1  0  0  0  0  0  0  0  0  0
    3.2197   -0.0777    1.1324 O   0  0  0  0  0  0  0  0  0  0  0  0
    1.7400    1.8518    1.8041 C   0  0  0  0  0  0  0  0  0  0  0  0
    1.5916    2.0595    3.3292 C   0  0  1  0  0  0  0  0  0  0  0  0
    2.6541    3.1491    3.7034 C   0  0  1  0  0  0  0  0  0  0  0  0
    2.1614    4.4749    3.8685 O   0  0  0  0  0  0  0  0  0  0  0  0
    3.7093    2.7531    4.7662 C   0  0  0  0  0  0  0  0  0  0  0  0
    4.3972    3.6061    5.2957 O   0  0  0  0  0  0  0  0  0  0  0  0
    3.9380    1.2648    5.1401 C   0  0  0  0  0  0  0  0  0  0  0  0
    2.8974    0.1515    4.7530 C   0  0  2  0  0  0  0  0  0  0  0  0
    3.8622   -1.0375    4.4592 C   0  0  0  0  0  0  0  0  0  0  0  0
    1.8930   -0.4232    5.9105 C   0  0  1  0  0  0  0  0  0  0  0  0
    1.7120   -0.0040    7.4325 C   0  0  0  0  0  0  0  0  0  0  0  0
    0.4612    0.8962    7.7406 C   0  0  0  0  0  0  0  0  0  0  0  0
    0.0935    1.7382    6.4678 C   0  0  2  0  0  0  0  0  0  0  0  0
    1.4046    2.6071    6.6120 C   0  0  0  0  0  0  0  0  0  0  0  0
   -2.2246    1.3700    9.2607 H   0  0  0  0  0  0  0  0  0  0  0  0
   -2.4790    3.1647    9.3080 H   0  0  0  0  0  0  0  0  0  0  0  0
   -1.0476    2.5371    8.7068 H   0  0  0  0  0  0  0  0  0  0  0  0
   -2.4875    4.1505    6.9530 H   0  0  0  0  0  0  0  0  0  0  0  0
   -2.8945    3.8108    4.4575 H   0  0  0  0  0  0  0  0  0  0  0  0
   -4.2703    3.2929    5.4968 H   0  0  0  0  0  0  0  0  0  0  0  0
   -3.2579    2.2172    4.7797 H   0  0  0  0  0  0  0  0  0  0  0  0
   -0.4202    3.9035    6.7698 H   0  0  0  0  0  0  0  0  0  0  0  0
   -0.3392    2.9315    2.8702 H   0  0  0  0  0  0  0  0  0  0  0  0
   -1.6209    1.7530    4.0834 H   0  0  0  0  0  0  0  0  0  0  0  0
   -2.2727    0.6733    2.9771 H   0  0  0  0  0  0  0  0  0  0  0  0
   -1.7273   -0.5951    6.8066 H   0  0  0  0  0  0  0  0  0  0  0  0
   -2.1836   -0.7800    5.1450 H   0  0  0  0  0  0  0  0  0  0  0  0
   -2.6457    0.5740    5.9956 H   0  0  0  0  0  0  0  0  0  0  0  0
    0.0811   -1.3892    6.0991 H   0  0  0  0  0  0  0  0  0  0  0  0
    0.9997   -2.3977    4.2912 H   0  0  0  0  0  0  0  0  0  0  0  0
   -0.5062   -1.7387    3.7853 H   0  0  0  0  0  0  0  0  0  0  0  0
    1.8809   -1.5008    2.5472 H   0  0  0  0  0  0  0  0  0  0  0  0
    0.5939   -0.5205    2.1658 H   0  0  0  0  0  0  0  0  0  0  0  0
    3.8299    1.3991    2.3458 H   0  0  0  0  0  0  0  0  0  0  0  0
    2.4178   -0.3169    0.6741 H   0  0  0  0  0  0  0  0  0  0  0  0
    2.0023    2.7768    1.2924 H   0  0  0  0  0  0  0  0  0  0  0  0
    0.8770    1.3954    1.2972 H   0  0  0  0  0  0  0  0  0  0  0  0
    3.2965    3.3259    2.8444 H   0  0  0  0  0  0  0  0  0  0  0  0
    1.6382    4.6911    3.1068 H   0  0  0  0  0  0  0  0  0  0  0  0
    4.9040    1.0482    4.6846 H   0  0  0  0  0  0  0  0  0  0  0  0
    4.1530    1.2187    6.2087 H   0  0  0  0  0  0  0  0  0  0  0  0
    4.4884   -1.2585    5.3266 H   0  0  0  0  0  0  0  0  0  0  0  0
    4.5384   -0.8257    3.6326 H   0  0  0  0  0  0  0  0  0  0  0  0
    3.3481   -1.9649    4.2135 H   0  0  0  0  0  0  0  0  0  0  0  0
    2.2562   -1.4316    6.0960 H   0  0  0  0  0  0  0  0  0  0  0  0
    1.5676   -0.8962    8.0482 H   0  0  0  0  0  0  0  0  0  0  0  0
    2.6190    0.4275    7.8520 H   0  0  0  0  0  0  0  0  0  0  0  0
   -0.3643    0.2826    8.0765 H   0  0  0  0  0  0  0  0  0  0  0  0
    0.7319    1.4582    8.6355 H   0  0  0  0  0  0  0  0  0  0  0  0
    2.3411    2.1214    6.7280 H   0  0  0  0  0  0  0  0  0  0  0  0
    1.3838    3.1608    7.5548 H   0  0  0  0  0  0  0  0  0  0  0  0
    1.5521    3.4385    5.9458 H   0  0  0  0  0  0  0  0  0  0  0  0
  1  2  1  0
  1 32  1  0
  1 33  1  0
  1 34  1  0
  2  3  1  0
  3  4  1  0
  3  5  1  0
  3 35  1  1
  4 36  1  0
  4 37  1  0
  4 38  1  0
  5 30  1  0
  5  6  1  0
  5 39  1  1
  6  7  1  0
  7 19  1  0
  7  8  1  0
  7 40  1  6
  8  9  1  0
  8 10  1  0
  8 41  1  1
  9 42  1  0
 10 30  1  0
 10 11  1  1
 10 12  1  0
 11 43  1  0
 11 44  1  0
 11 45  1  0
 12 27  1  0
 12 13  1  0
 12 46  1  1
 13 14  1  0
 13 47  1  0
 13 48  1  0
 15 14  1  6
 14 49  1  0
 14 50  1  0
 15 19  1  0
 15 25  1  0
 15 16  1  0
 16 17  1  0
 16 18  1  0
 16 51  1  1
 17 52  1  0
 19 18  1  6
 18 53  1  0
 18 54  1  0
 19 20  1  0
 20 21  1  0
 20 22  1  0
 20 55  1  6
 21 56  1  0
 22 23  2  0
 22 24  1  0
 24 25  1  0
 24 57  1  0
 24 58  1  0
 25 26  1  6
 25 27  1  0
 26 59  1  0
 26 60  1  0
 26 61  1  0
 27 28  1  0
 27 62  1  1
 28 29  1  0
 28 63  1  0
 28 64  1  0
 29 30  1  0
 29 65  1  0
 29 66  1  0
 30 31  1  6
 31 67  1  0
 31 68  1  0
 31 69  1  0
M  END
>  <i_m_ct_stereo_status>  (232) 
1

>  <s_m_source_file>  (232) 
/var/tmp/pbs.5076255.sched01/tmpzygr1bk5/76dkit4mfj.sdf

>  <i_m_source_file_index>  (232) 
30

>  <i_lp_mmshare_version>  (232) 
48012

>  <i_f3d_flags>  (232) 
0

>  <s_epik_input>  (232) 
W09IXVtDQEhdMVtDSDJdW0NAXTIoW0NAXTEzNClbQ0BASF01T1tDQEBIXShbQ0BASF0oW0NIM10pT1tDSDNdKVtDQF02KFtDSDNdKVtDQEBdKFtDSDNdKShbQ0BASF01W09IXSlbQ0BASF0oW0NIMl1bQ0gyXTMpW0NASF0oW0NIMl1bQ0gyXTYpW0NAXTQoW0NIM10pW0NIMl1DKD1PKVtDQEBIXTJbT0hd

>  <s_epik_cmdline>  (232) 
J2VwaWtfcHl0aG9uJywgJy1waHQnLCAnMi4wJywgJy1waCcsICc3LjAnLCAnLXRuJywgJzgnLCAnLW1hJywgJzIwMCcsICctaW1hZScsICc8aW5maWxlLm1hZT4nLCAnLW9tYWUnLCAnPG91dGZpbGUubWFlPic=

>  <r_lp_tautomer_probability>  (232) 
1

>  <r_epik_Ionization_Penalty>  (232) 
3.10885e-07

>  <r_epik_Ionization_Penalty_Charging>  (232) 
0

>  <r_epik_Ionization_Penalty_Neutral>  (232) 
3.10885e-07

>  <r_epik_State_Penalty>  (232) 
-0

>  <r_epik_Charging_Adjusted_Penalty>  (232) 
0

>  <i_epik_Tot_Q>  (232) 
0

>  <i_epik_Tot_abs_Q>  (232) 
0

>  <s_lp_Force_Field>  (232) 
OPLS3e

>  <r_lp_Energy>  (232) 
238.359

>  <b_lp_Chiralities_Consistent>  (232) 
1

>  <s_lp_Variant>  (232) 
80:0-1

>  <s_i_glide_gridfile>  (232) 
pfpi4k_grid

>  <i_i_glide_lignum>  (232) 
30

>  <i_i_glide_rotatable_bonds>  (232) 
5

>  <r_i_docking_score>  (232) 
-2.33439

>  <r_i_glide_ligand_efficiency>  (232) 
-0.075303

>  <r_i_glide_ligand_efficiency_sa>  (232) 
-0.236555

>  <r_i_glide_ligand_efficiency_ln>  (232) 
-0.526477

>  <r_i_glide_gscore>  (232) 
-2.33439

>  <r_i_glide_lipo>  (232) 
-0.159809

>  <r_i_glide_hbond>  (232) 
-0.359494

>  <r_i_glide_metal>  (232) 
-0

>  <r_i_glide_rewards>  (232) 
-0.446143

>  <r_i_glide_evdw>  (232) 
-8.72607

>  <r_i_glide_ecoul>  (232) 
-6.83961

>  <r_i_glide_erotb>  (232) 
0.105465

>  <r_i_glide_esite>  (232) 
-0.012166

>  <r_i_glide_emodel>  (232) 
-12.3618

>  <r_i_glide_energy>  (232) 
-15.5657

>  <r_i_glide_einternal>  (232) 
6.63802

>  <r_i_glide_intrahb_reward>  (232) 
-0

>  <i_i_glide_confnum>  (232) 
6

>  <i_i_glide_posenum>  (232) 
23

>  <r_i_glide_eff_state_penalty>  (232) 
0

>  <ligand_id>  (232) 
80

>  <original_smiles>  (232) 
COC(C)C1OC2C(O)C3(C)C4CCC56C(O)CC25C(O)C(=O)CC6(C)C4CCC13C

>  <smiles>  (232) 
[H]OC1([H])C(=O)C([H])([H])C2(C([H])([H])[H])C3([H])C([H])([H])C([H])([H])C4(C([H])([H])[H])C([H])(C([H])(OC([H])([H])[H])C([H])([H])[H])OC5([H])C([H])(O[H])C4(C([H])([H])[H])C3([H])C([H])([H])C([H])([H])C23C([H])(O[H])C([H])([H])C153

$$$$
80:0:1
     RDKit          3D

 69 74  0  0  1  0  0  0  0  0999 V2000
   -1.1645    2.1850   11.0130 C   0  0  0  0  0  0  0  0  0  0  0  0
   -2.0272    2.4600    9.9063 O   0  0  0  0  0  0  0  0  0  0  0  0
   -1.8845    3.7509    9.3290 C   0  0  2  0  0  0  0  0  0  0  0  0
   -3.0873    4.0861    8.4146 C   0  0  0  0  0  0  0  0  0  0  0  0
   -0.4545    3.8610    8.6916 C   0  0  2  0  0  0  0  0  0  0  0  0
   -0.2187    5.0079    7.7715 O   0  0  0  0  0  0  0  0  0  0  0  0
   -0.0979    4.8678    6.2979 C   0  0  2  0  0  0  0  0  0  0  0  0
   -1.0410    3.7419    5.9794 C   0  0  1  0  0  0  0  0  0  0  0  0
   -1.8852    3.8317    4.8528 O   0  0  0  0  0  0  0  0  0  0  0  0
   -0.6202    2.3638    6.5987 C   0  0  1  0  0  0  0  0  0  0  0  0
   -1.9444    1.5066    6.8465 C   0  0  0  0  0  0  0  0  0  0  0  0
    0.1198    1.3997    5.5970 C   0  0  1  0  0  0  0  0  0  0  0  0
   -0.1934    1.5756    4.1212 C   0  0  0  0  0  0  0  0  0  0  0  0
    0.4713    2.8224    3.5482 C   0  0  0  0  0  0  0  0  0  0  0  0
    1.5665    3.5391    4.4345 C   0  0  1  0  0  0  0  0  0  0  0  0
    2.1837    4.6269    3.4907 C   0  0  1  0  0  0  0  0  0  0  0  0
    2.2319    4.4620    2.1185 O   0  0  0  0  0  0  0  0  0  0  0  0
    1.1318    5.5806    4.0789 C   0  0  0  0  0  0  0  0  0  0  0  0
    1.2445    4.8007    5.4091 C   0  0  1  0  0  0  0  0  0  0  0  0
    2.4958    5.4009    6.1401 C   0  0  1  0  0  0  0  0  0  0  0  0
    2.2361    6.3474    7.1640 O   0  0  0  0  0  0  0  0  0  0  0  0
    3.6536    4.4330    6.4681 C   0  0  0  0  0  0  0  0  0  0  0  0
    4.5531    4.7826    7.2309 O   0  0  0  0  0  0  0  0  0  0  0  0
    3.7271    3.0251    5.8283 C   0  0  0  0  0  0  0  0  0  0  0  0
    2.4832    2.3953    5.0871 C   0  0  2  0  0  0  0  0  0  0  0  0
    3.2153    1.6335    3.9372 C   0  0  0  0  0  0  0  0  0  0  0  0
    1.6069    1.2379    5.8537 C   0  0  1  0  0  0  0  0  0  0  0  0
    1.7133    0.6430    7.3335 C   0  0  0  0  0  0  0  0  0  0  0  0
    0.6429    1.1716    8.3973 C   0  0  0  0  0  0  0  0  0  0  0  0
    0.2280    2.6195    7.9734 C   0  0  2  0  0  0  0  0  0  0  0  0
    1.6663    3.1939    8.3097 C   0  0  0  0  0  0  0  0  0  0  0  0
   -1.2797    1.1428   11.2966 H   0  0  0  0  0  0  0  0  0  0  0  0
   -1.3841    2.8066   11.8771 H   0  0  0  0  0  0  0  0  0  0  0  0
   -0.1097    2.3253   10.7861 H   0  0  0  0  0  0  0  0  0  0  0  0
   -1.9835    4.4850   10.1476 H   0  0  0  0  0  0  0  0  0  0  0  0
   -2.9440    5.0571    7.9273 H   0  0  0  0  0  0  0  0  0  0  0  0
   -4.0609    4.0016    8.8544 H   0  0  0  0  0  0  0  0  0  0  0  0
   -3.2586    3.4517    7.5883 H   0  0  0  0  0  0  0  0  0  0  0  0
    0.0865    4.1574    9.6056 H   0  0  0  0  0  0  0  0  0  0  0  0
   -0.5926    5.7957    6.0035 H   0  0  0  0  0  0  0  0  0  0  0  0
   -1.8490    4.1407    6.4504 H   0  0  0  0  0  0  0  0  0  0  0  0
   -1.3861    3.5577    4.1023 H   0  0  0  0  0  0  0  0  0  0  0  0
   -1.7783    0.4835    7.1514 H   0  0  0  0  0  0  0  0  0  0  0  0
   -2.5709    1.4809    5.9495 H   0  0  0  0  0  0  0  0  0  0  0  0
   -2.5853    1.6945    7.6885 H   0  0  0  0  0  0  0  0  0  0  0  0
   -0.2606    0.3964    5.7708 H   0  0  0  0  0  0  0  0  0  0  0  0
    0.2018    0.7086    3.5924 H   0  0  0  0  0  0  0  0  0  0  0  0
   -1.2639    1.5430    3.9139 H   0  0  0  0  0  0  0  0  0  0  0  0
    0.9008    2.4892    2.6070 H   0  0  0  0  0  0  0  0  0  0  0  0
   -0.2839    3.5092    3.1681 H   0  0  0  0  0  0  0  0  0  0  0  0
    3.2084    4.9019    3.7844 H   0  0  0  0  0  0  0  0  0  0  0  0
    1.3320    4.4598    1.7460 H   0  0  0  0  0  0  0  0  0  0  0  0
    1.4304    6.6288    4.1446 H   0  0  0  0  0  0  0  0  0  0  0  0
    0.1489    5.5463    3.5913 H   0  0  0  0  0  0  0  0  0  0  0  0
    3.0013    6.0624    5.4454 H   0  0  0  0  0  0  0  0  0  0  0  0
    1.6227    6.9831    6.8352 H   0  0  0  0  0  0  0  0  0  0  0  0
    4.5686    3.1212    5.1409 H   0  0  0  0  0  0  0  0  0  0  0  0
    4.0943    2.3275    6.5807 H   0  0  0  0  0  0  0  0  0  0  0  0
    3.9403    0.9140    4.3308 H   0  0  0  0  0  0  0  0  0  0  0  0
    3.7675    2.3028    3.2872 H   0  0  0  0  0  0  0  0  0  0  0  0
    2.5461    1.0656    3.2925 H   0  0  0  0  0  0  0  0  0  0  0  0
    1.8488    0.3192    5.3099 H   0  0  0  0  0  0  0  0  0  0  0  0
    1.5630   -0.4345    7.2883 H   0  0  0  0  0  0  0  0  0  0  0  0
    2.7391    0.6957    7.7085 H   0  0  0  0  0  0  0  0  0  0  0  0
   -0.2005    0.4889    8.4594 H   0  0  0  0  0  0  0  0  0  0  0  0
    1.0610    1.0872    9.3960 H   0  0  0  0  0  0  0  0  0  0  0  0
    2.5328    2.7346    7.9006 H   0  0  0  0  0  0  0  0  0  0  0  0
    1.8901    3.0476    9.3688 H   0  0  0  0  0  0  0  0  0  0  0  0
    1.8263    4.2576    8.2626 H   0  0  0  0  0  0  0  0  0  0  0  0
  1  2  1  0
  1 32  1  0
  1 33  1  0
  1 34  1  0
  2  3  1  0
  3  4  1  0
  3  5  1  0
  3 35  1  1
  4 36  1  0
  4 37  1  0
  4 38  1  0
  5 30  1  0
  5  6  1  0
  5 39  1  1
  6  7  1  0
  7 19  1  0
  7  8  1  0
  7 40  1  6
  8  9  1  0
  8 10  1  0
  8 41  1  1
  9 42  1  0
 10 30  1  0
 10 11  1  1
 10 12  1  0
 11 43  1  0
 11 44  1  0
 11 45  1  0
 12 27  1  0
 12 13  1  0
 12 46  1  1
 13 14  1  0
 13 47  1  0
 13 48  1  0
 15 14  1  6
 14 49  1  0
 14 50  1  0
 15 19  1  0
 15 25  1  0
 15 16  1  0
 16 17  1  0
 16 18  1  0
 16 51  1  1
 17 52  1  0
 19 18  1  6
 18 53  1  0
 18 54  1  0
 19 20  1  0
 20 21  1  0
 20 22  1  0
 20 55  1  6
 21 56  1  0
 22 23  2  0
 22 24  1  0
 24 25  1  0
 24 57  1  0
 24 58  1  0
 25 26  1  6
 25 27  1  0
 26 59  1  0
 26 60  1  0
 26 61  1  0
 27 28  1  0
 27 62  1  6
 28 29  1  0
 28 63  1  0
 28 64  1  0
 29 30  1  0
 29 65  1  0
 29 66  1  0
 30 31  1  6
 31 67  1  0
 31 68  1  0
 31 69  1  0
M  END
>  <i_m_ct_stereo_status>  (233) 
1

>  <s_m_source_file>  (233) 
/var/tmp/pbs.5076255.sched01/tmpzygr1bk5/76dkit4mfj.sdf

>  <i_m_source_file_index>  (233) 
30

>  <i_lp_mmshare_version>  (233) 
48012

>  <i_f3d_flags>  (233) 
0

>  <s_epik_input>  (233) 
W09IXVtDQEhdMVtDSDJdW0NAXTIoW0NAXTEzNClbQ0BASF01T1tDQEBIXShbQ0BASF0oW0NIM10pT1tDSDNdKVtDQF02KFtDSDNdKVtDQEBdKFtDSDNdKShbQ0BASF01W09IXSlbQ0BASF0oW0NIMl1bQ0gyXTMpW0NASF0oW0NIMl1bQ0gyXTYpW0NAXTQoW0NIM10pW0NIMl1DKD1PKVtDQEBIXTJbT0hd

>  <s_epik_cmdline>  (233) 
J2VwaWtfcHl0aG9uJywgJy1waHQnLCAnMi4wJywgJy1waCcsICc3LjAnLCAnLXRuJywgJzgnLCAnLW1hJywgJzIwMCcsICctaW1hZScsICc8aW5maWxlLm1hZT4nLCAnLW9tYWUnLCAnPG91dGZpbGUubWFlPic=

>  <r_lp_tautomer_probability>  (233) 
1

>  <r_epik_Ionization_Penalty>  (233) 
3.10885e-07

>  <r_epik_Ionization_Penalty_Charging>  (233) 
0

>  <r_epik_Ionization_Penalty_Neutral>  (233) 
3.10885e-07

>  <r_epik_State_Penalty>  (233) 
-0

>  <r_epik_Charging_Adjusted_Penalty>  (233) 
0

>  <i_epik_Tot_Q>  (233) 
0

>  <i_epik_Tot_abs_Q>  (233) 
0

>  <s_lp_Force_Field>  (233) 
OPLS3e

>  <r_lp_Energy>  (233) 
238.359

>  <b_lp_Chiralities_Consistent>  (233) 
1

>  <s_lp_Variant>  (233) 
80:0-1

>  <s_i_glide_gridfile>  (233) 
pfpi4k_grid

>  <i_i_glide_lignum>  (233) 
30

>  <i_i_glide_rotatable_bonds>  (233) 
5

>  <r_i_docking_score>  (233) 
-2.03019

>  <r_i_glide_ligand_efficiency>  (233) 
-0.0654901

>  <r_i_glide_ligand_efficiency_sa>  (233) 
-0.205729

>  <r_i_glide_ligand_efficiency_ln>  (233) 
-0.457871

>  <r_i_glide_gscore>  (233) 
-2.03019

>  <r_i_glide_lipo>  (233) 
-0.0802482

>  <r_i_glide_hbond>  (233) 
-0.16

>  <r_i_glide_metal>  (233) 
-0

>  <r_i_glide_rewards>  (233) 
-0.446143

>  <r_i_glide_evdw>  (233) 
-13.8527

>  <r_i_glide_ecoul>  (233) 
-6.65895

>  <r_i_glide_erotb>  (233) 
0.105465

>  <r_i_glide_esite>  (233) 
0

>  <r_i_glide_emodel>  (233) 
-17.065

>  <r_i_glide_energy>  (233) 
-20.5117

>  <r_i_glide_einternal>  (233) 
4.28265

>  <r_i_glide_intrahb_reward>  (233) 
-0

>  <i_i_glide_confnum>  (233) 
6

>  <i_i_glide_posenum>  (233) 
18

>  <r_i_glide_eff_state_penalty>  (233) 
0

>  <ligand_id>  (233) 
80

>  <original_smiles>  (233) 
COC(C)C1OC2C(O)C3(C)C4CCC56C(O)CC25C(O)C(=O)CC6(C)C4CCC13C

>  <smiles>  (233) 
[H]OC1([H])C(=O)C([H])([H])C2(C([H])([H])[H])C3([H])C([H])([H])C([H])([H])C4(C([H])([H])[H])C([H])(C([H])(OC([H])([H])[H])C([H])([H])[H])OC5([H])C([H])(O[H])C4(C([H])([H])[H])C3([H])C([H])([H])C([H])([H])C23C([H])(O[H])C([H])([H])C153

$$$$
80:0:2
     RDKit          3D

 69 74  0  0  1  0  0  0  0  0999 V2000
   -2.3574    2.5602    8.7798 C   0  0  0  0  0  0  0  0  0  0  0  0
   -2.6435    2.2550    7.4181 O   0  0  0  0  0  0  0  0  0  0  0  0
   -2.0110    3.1032    6.4435 C   0  0  2  0  0  0  0  0  0  0  0  0
   -2.7976    3.0450    5.0966 C   0  0  0  0  0  0  0  0  0  0  0  0
   -0.4729    2.8163    6.4009 C   0  0  2  0  0  0  0  0  0  0  0  0
    0.2707    3.2651    5.1910 O   0  0  0  0  0  0  0  0  0  0  0  0
    0.7760    2.3312    4.1458 C   0  0  2  0  0  0  0  0  0  0  0  0
   -0.2760    1.2537    4.1331 C   0  0  1  0  0  0  0  0  0  0  0  0
   -0.6592    0.6934    2.9005 O   0  0  0  0  0  0  0  0  0  0  0  0
   -0.2693    0.4134    5.4782 C   0  0  1  0  0  0  0  0  0  0  0  0
   -1.7734   -0.1092    5.6294 C   0  0  0  0  0  0  0  0  0  0  0  0
    0.4864   -0.9229    5.4674 C   0  0  1  0  0  0  0  0  0  0  0  0
    0.6748   -1.6005    4.1187 C   0  0  0  0  0  0  0  0  0  0  0  0
    1.7122   -0.8894    3.2624 C   0  0  0  0  0  0  0  0  0  0  0  0
    2.6108    0.1959    3.9600 C   0  0  1  0  0  0  0  0  0  0  0  0
    3.6776    0.5894    2.8874 C   0  0  1  0  0  0  0  0  0  0  0  0
    4.0560   -0.3214    1.8616 O   0  0  0  0  0  0  0  0  0  0  0  0
    2.6994    1.7045    2.4708 C   0  0  0  0  0  0  0  0  0  0  0  0
    2.2724    1.7923    3.9589 C   0  0  1  0  0  0  0  0  0  0  0  0
    3.3558    2.6934    4.6466 C   0  0  1  0  0  0  0  0  0  0  0  0
    2.9884    4.0507    4.8784 O   0  0  0  0  0  0  0  0  0  0  0  0
    4.1475    2.0639    5.8177 C   0  0  0  0  0  0  0  0  0  0  0  0
    4.8344    2.7682    6.5472 O   0  0  0  0  0  0  0  0  0  0  0  0
    4.1170    0.5352    6.0713 C   0  0  0  0  0  0  0  0  0  0  0  0
    3.0544   -0.3880    5.3795 C   0  0  2  0  0  0  0  0  0  0  0  0
    3.9155   -1.6628    5.1246 C   0  0  0  0  0  0  0  0  0  0  0  0
    1.7758   -0.9188    6.2640 C   0  0  1  0  0  0  0  0  0  0  0  0
    1.3316   -0.6093    7.7682 C   0  0  0  0  0  0  0  0  0  0  0  0
    0.1343    0.4356    7.9514 C   0  0  0  0  0  0  0  0  0  0  0  0
    0.1413    1.3919    6.7218 C   0  0  2  0  0  0  0  0  0  0  0  0
    1.5028    2.0591    7.2012 C   0  0  0  0  0  0  0  0  0  0  0  0
   -2.7524    1.7582    9.4052 H   0  0  0  0  0  0  0  0  0  0  0  0
   -2.8391    3.4919    9.0716 H   0  0  0  0  0  0  0  0  0  0  0  0
   -1.2935    2.6440    9.0043 H   0  0  0  0  0  0  0  0  0  0  0  0
   -2.1529    4.1206    6.7966 H   0  0  0  0  0  0  0  0  0  0  0  0
   -2.2681    3.6746    4.3529 H   0  0  0  0  0  0  0  0  0  0  0  0
   -3.8113    3.3753    5.1884 H   0  0  0  0  0  0  0  0  0  0  0  0
   -2.8438    2.0566    4.6661 H   0  0  0  0  0  0  0  0  0  0  0  0
   -0.1690    3.5483    7.1561 H   0  0  0  0  0  0  0  0  0  0  0  0
    0.5887    2.9485    3.2630 H   0  0  0  0  0  0  0  0  0  0  0  0
   -1.0954    1.8561    4.0843 H   0  0  0  0  0  0  0  0  0  0  0  0
   -0.7353    1.3817    2.2667 H   0  0  0  0  0  0  0  0  0  0  0  0
   -1.8951   -0.8352    6.4642 H   0  0  0  0  0  0  0  0  0  0  0  0
   -2.1003   -0.6535    4.7330 H   0  0  0  0  0  0  0  0  0  0  0  0
   -2.4383    0.6317    5.8449 H   0  0  0  0  0  0  0  0  0  0  0  0
   -0.1007   -1.6761    6.0038 H   0  0  0  0  0  0  0  0  0  0  0  0
    1.0119   -2.6212    4.2865 H   0  0  0  0  0  0  0  0  0  0  0  0
   -0.2761   -1.7141    3.6068 H   0  0  0  0  0  0  0  0  0  0  0  0
    2.3161   -1.6910    2.8516 H   0  0  0  0  0  0  0  0  0  0  0  0
    1.2424   -0.5203    2.3561 H   0  0  0  0  0  0  0  0  0  0  0  0
    4.5948    0.9378    3.3386 H   0  0  0  0  0  0  0  0  0  0  0  0
    3.2843   -0.5490    1.3858 H   0  0  0  0  0  0  0  0  0  0  0  0
    3.1544    2.6250    2.0993 H   0  0  0  0  0  0  0  0  0  0  0  0
    1.9037    1.4101    1.7886 H   0  0  0  0  0  0  0  0  0  0  0  0
    4.1711    2.8680    3.9460 H   0  0  0  0  0  0  0  0  0  0  0  0
    2.6156    4.3961    4.0906 H   0  0  0  0  0  0  0  0  0  0  0  0
    5.1187    0.2292    5.7728 H   0  0  0  0  0  0  0  0  0  0  0  0
    4.1119    0.3592    7.1471 H   0  0  0  0  0  0  0  0  0  0  0  0
    4.3310   -2.0450    6.0580 H   0  0  0  0  0  0  0  0  0  0  0  0
    4.7596   -1.4659    4.4639 H   0  0  0  0  0  0  0  0  0  0  0  0
    3.3601   -2.4895    4.6804 H   0  0  0  0  0  0  0  0  0  0  0  0
    1.9925   -1.9803    6.3894 H   0  0  0  0  0  0  0  0  0  0  0  0
    0.9828   -1.5389    8.2272 H   0  0  0  0  0  0  0  0  0  0  0  0
    2.1881   -0.3552    8.3847 H   0  0  0  0  0  0  0  0  0  0  0  0
   -0.8030   -0.0893    8.0396 H   0  0  0  0  0  0  0  0  0  0  0  0
    0.2120    0.9279    8.9281 H   0  0  0  0  0  0  0  0  0  0  0  0
    2.3408    1.4441    7.4243 H   0  0  0  0  0  0  0  0  0  0  0  0
    1.3636    2.5222    8.1840 H   0  0  0  0  0  0  0  0  0  0  0  0
    1.8728    2.9168    6.6735 H   0  0  0  0  0  0  0  0  0  0  0  0
  1  2  1  0
  1 32  1  0
  1 33  1  0
  1 34  1  0
  2  3  1  0
  3  4  1  0
  3  5  1  0
  3 35  1  1
  4 36  1  0
  4 37  1  0
  4 38  1  0
  5 30  1  0
  5  6  1  0
  5 39  1  1
  6  7  1  0
  7 19  1  0
  7  8  1  0
  7 40  1  6
  8  9  1  0
  8 10  1  0
  8 41  1  1
  9 42  1  0
 10 30  1  0
 10 11  1  1
 10 12  1  0
 11 43  1  0
 11 44  1  0
 11 45  1  0
 12 27  1  0
 12 13  1  0
 12 46  1  1
 13 14  1  0
 13 47  1  0
 13 48  1  0
 15 14  1  6
 14 49  1  0
 14 50  1  0
 15 19  1  0
 15 25  1  0
 15 16  1  0
 16 17  1  0
 16 18  1  0
 16 51  1  1
 17 52  1  0
 19 18  1  6
 18 53  1  0
 18 54  1  0
 19 20  1  0
 20 21  1  0
 20 22  1  0
 20 55  1  6
 21 56  1  0
 22 23  2  0
 22 24  1  0
 24 25  1  0
 24 57  1  0
 24 58  1  0
 25 26  1  6
 25 27  1  0
 26 59  1  0
 26 60  1  0
 26 61  1  0
 27 28  1  0
 27 62  1  1
 28 29  1  0
 28 63  1  0
 28 64  1  0
 29 30  1  0
 29 65  1  0
 29 66  1  0
 30 31  1  6
 31 67  1  0
 31 68  1  0
 31 69  1  0
M  END
>  <i_m_ct_stereo_status>  (234) 
1

>  <s_m_source_file>  (234) 
/var/tmp/pbs.5076255.sched01/tmpzygr1bk5/76dkit4mfj.sdf

>  <i_m_source_file_index>  (234) 
30

>  <i_lp_mmshare_version>  (234) 
48012

>  <i_f3d_flags>  (234) 
0

>  <s_epik_input>  (234) 
W09IXVtDQEhdMVtDSDJdW0NAXTIoW0NAXTEzNClbQ0BASF01T1tDQEBIXShbQ0BASF0oW0NIM10pT1tDSDNdKVtDQF02KFtDSDNdKVtDQEBdKFtDSDNdKShbQ0BASF01W09IXSlbQ0BASF0oW0NIMl1bQ0gyXTMpW0NASF0oW0NIMl1bQ0gyXTYpW0NAXTQoW0NIM10pW0NIMl1DKD1PKVtDQEBIXTJbT0hd

>  <s_epik_cmdline>  (234) 
J2VwaWtfcHl0aG9uJywgJy1waHQnLCAnMi4wJywgJy1waCcsICc3LjAnLCAnLXRuJywgJzgnLCAnLW1hJywgJzIwMCcsICctaW1hZScsICc8aW5maWxlLm1hZT4nLCAnLW9tYWUnLCAnPG91dGZpbGUubWFlPic=

>  <r_lp_tautomer_probability>  (234) 
1

>  <r_epik_Ionization_Penalty>  (234) 
3.10885e-07

>  <r_epik_Ionization_Penalty_Charging>  (234) 
0

>  <r_epik_Ionization_Penalty_Neutral>  (234) 
3.10885e-07

>  <r_epik_State_Penalty>  (234) 
-0

>  <r_epik_Charging_Adjusted_Penalty>  (234) 
0

>  <i_epik_Tot_Q>  (234) 
0

>  <i_epik_Tot_abs_Q>  (234) 
0

>  <s_lp_Force_Field>  (234) 
OPLS3e

>  <r_lp_Energy>  (234) 
238.359

>  <b_lp_Chiralities_Consistent>  (234) 
1

>  <s_lp_Variant>  (234) 
80:0-1

>  <s_i_glide_gridfile>  (234) 
pfpi4k_grid

>  <i_i_glide_lignum>  (234) 
30

>  <i_i_glide_rotatable_bonds>  (234) 
5

>  <r_i_docking_score>  (234) 
-1.60247

>  <r_i_glide_ligand_efficiency>  (234) 
-0.0516924

>  <r_i_glide_ligand_efficiency_sa>  (234) 
-0.162386

>  <r_i_glide_ligand_efficiency_ln>  (234) 
-0.361405

>  <r_i_glide_gscore>  (234) 
-1.60247

>  <r_i_glide_lipo>  (234) 
-0.0809888

>  <r_i_glide_hbond>  (234) 
0

>  <r_i_glide_metal>  (234) 
-0

>  <r_i_glide_rewards>  (234) 
-0.446308

>  <r_i_glide_evdw>  (234) 
-17.4751

>  <r_i_glide_ecoul>  (234) 
-2.04585

>  <r_i_glide_erotb>  (234) 
0.105465

>  <r_i_glide_esite>  (234) 
0

>  <r_i_glide_emodel>  (234) 
-17.645

>  <r_i_glide_energy>  (234) 
-19.521

>  <r_i_glide_einternal>  (234) 
4.61557

>  <r_i_glide_intrahb_reward>  (234) 
-0

>  <i_i_glide_confnum>  (234) 
3

>  <i_i_glide_posenum>  (234) 
30

>  <r_i_glide_eff_state_penalty>  (234) 
0

>  <ligand_id>  (234) 
80

>  <original_smiles>  (234) 
COC(C)C1OC2C(O)C3(C)C4CCC56C(O)CC25C(O)C(=O)CC6(C)C4CCC13C

>  <smiles>  (234) 
[H]OC1([H])C(=O)C([H])([H])C2(C([H])([H])[H])C3([H])C([H])([H])C([H])([H])C4(C([H])([H])[H])C([H])(C([H])(OC([H])([H])[H])C([H])([H])[H])OC5([H])C([H])(O[H])C4(C([H])([H])[H])C3([H])C([H])([H])C([H])([H])C23C([H])(O[H])C([H])([H])C153

$$$$
81:0:0
     RDKit          3D

 74 79  0  0  1  0  0  0  0  0999 V2000
   -1.6447    1.8279    2.6219 C   0  0  0  0  0  0  0  0  0  0  0  0
   -0.1547    2.0449    2.9222 C   0  0  2  0  0  0  0  0  0  0  0  0
    0.6857    0.7624    2.9432 C   0  0  1  0  0  0  0  0  0  0  0  0
    2.1615    1.0970    2.6911 C   0  0  0  0  0  0  0  0  0  0  0  0
    2.6090    2.4243    3.3246 C   0  0  0  0  0  0  0  0  0  0  0  0
    1.6639    3.0548    4.4074 C   0  0  1  0  0  0  0  0  0  0  0  0
    0.1394    2.7979    4.2332 C   0  0  2  0  0  0  0  0  0  0  0  0
   -0.4339    2.0158    5.2711 O   0  0  0  0  0  0  0  0  0  0  0  0
   -0.0025    0.6944    5.5152 C   0  0  1  0  0  0  0  0  0  0  0  0
   -1.3556    0.0114    5.8469 C   0  0  0  0  0  0  0  0  0  0  0  0
    0.5128   -0.0552    4.2324 C   0  0  0  0  0  0  0  0  0  0  0  0
    0.9819    0.7556    6.7626 C   0  0  2  0  0  0  0  0  0  0  0  0
    1.4236   -0.5952    6.8660 O   0  0  0  0  0  0  0  0  0  0  0  0
    0.2452    0.8405    8.1274 C   0  0  0  0  0  0  0  0  0  0  0  0
   -0.4107    2.1751    8.4831 C   0  0  1  0  0  0  0  0  0  0  0  0
   -1.3857    1.9045    9.4719 O   0  0  0  0  0  0  0  0  0  0  0  0
    0.5366    3.2844    9.0044 C   0  0  1  0  0  0  0  0  0  0  0  0
    1.8068    2.7875    9.7121 C   0  0  0  0  0  0  0  0  0  0  0  0
    1.7453    2.3802   10.8749 O   0  0  0  0  0  0  0  0  0  0  0  0
    3.1337    2.7734    8.9828 C   0  0  0  0  0  0  0  0  0  0  0  0
    3.2937    1.7404    7.8528 C   0  0  1  0  0  0  0  0  0  0  0  0
    3.6875    0.3701    8.4591 C   0  0  0  0  0  0  0  0  0  0  0  0
    2.2579    1.7455    6.6353 C   0  0  1  0  0  0  0  0  0  0  0  0
    3.0687    1.0237    5.7160 O   0  0  0  0  0  0  0  0  0  0  0  0
    2.0659    3.2182    5.9369 C   0  0  1  0  0  0  0  0  0  0  0  0
    3.4510    3.9574    5.8618 C   0  0  0  0  0  0  0  0  0  0  0  0
    1.0331    4.3339    6.5629 C   0  0  1  0  0  0  0  0  0  0  0  0
    0.0369    4.9909    5.5436 C   0  0  0  0  0  0  0  0  0  0  0  0
   -0.1866    6.1996    5.5733 O   0  0  0  0  0  0  0  0  0  0  0  0
   -0.6276    4.1223    4.4578 C   0  0  1  0  0  0  0  0  0  0  0  0
   -0.8445    4.8954    3.2873 O   0  0  0  0  0  0  0  0  0  0  0  0
    0.6100    4.5533    8.1014 C   0  0  0  0  0  0  0  0  0  0  0  0
   -0.8265    5.1704    8.2704 C   0  0  0  0  0  0  0  0  0  0  0  0
    1.4929    5.6687    8.7392 C   0  0  0  0  0  0  0  0  0  0  0  0
   -2.1711    1.3525    3.4396 H   0  0  0  0  0  0  0  0  0  0  0  0
   -1.7754    1.2163    1.7288 H   0  0  0  0  0  0  0  0  0  0  0  0
   -2.1518    2.7734    2.4342 H   0  0  0  0  0  0  0  0  0  0  0  0
    0.2239    2.6260    2.0876 H   0  0  0  0  0  0  0  0  0  0  0  0
    0.3845    0.1300    2.1084 H   0  0  0  0  0  0  0  0  0  0  0  0
    2.8178    0.2840    3.0013 H   0  0  0  0  0  0  0  0  0  0  0  0
    2.3208    1.1684    1.6133 H   0  0  0  0  0  0  0  0  0  0  0  0
    3.6396    2.3437    3.6653 H   0  0  0  0  0  0  0  0  0  0  0  0
    2.6665    3.1316    2.4879 H   0  0  0  0  0  0  0  0  0  0  0  0
    1.7844    4.0616    4.0130 H   0  0  0  0  0  0  0  0  0  0  0  0
   -1.2033   -0.9936    6.2433 H   0  0  0  0  0  0  0  0  0  0  0  0
   -1.9812   -0.1009    4.9625 H   0  0  0  0  0  0  0  0  0  0  0  0
   -1.9438    0.5991    6.5514 H   0  0  0  0  0  0  0  0  0  0  0  0
   -0.1683   -0.8688    3.9722 H   0  0  0  0  0  0  0  0  0  0  0  0
    1.4329   -0.5982    4.4303 H   0  0  0  0  0  0  0  0  0  0  0  0
    2.0350   -0.7382    6.1554 H   0  0  0  0  0  0  0  0  0  0  0  0
   -0.5211    0.0722    8.1723 H   0  0  0  0  0  0  0  0  0  0  0  0
    0.8877    0.5104    8.9366 H   0  0  0  0  0  0  0  0  0  0  0  0
   -0.9652    2.5204    7.6145 H   0  0  0  0  0  0  0  0  0  0  0  0
   -0.9599    1.7885   10.3132 H   0  0  0  0  0  0  0  0  0  0  0  0
    0.0307    3.6588    9.8918 H   0  0  0  0  0  0  0  0  0  0  0  0
    3.3636    3.7678    8.6395 H   0  0  0  0  0  0  0  0  0  0  0  0
    3.8999    2.5831    9.7358 H   0  0  0  0  0  0  0  0  0  0  0  0
    4.2454    2.0575    7.4231 H   0  0  0  0  0  0  0  0  0  0  0  0
    2.9070   -0.0762    9.0695 H   0  0  0  0  0  0  0  0  0  0  0  0
    4.5571    0.4795    9.1080 H   0  0  0  0  0  0  0  0  0  0  0  0
    3.9693   -0.3519    7.6937 H   0  0  0  0  0  0  0  0  0  0  0  0
    2.6821    1.1249    4.8563 H   0  0  0  0  0  0  0  0  0  0  0  0
    3.7678    4.3832    6.8078 H   0  0  0  0  0  0  0  0  0  0  0  0
    3.4247    4.8126    5.1847 H   0  0  0  0  0  0  0  0  0  0  0  0
    4.2655    3.3206    5.5190 H   0  0  0  0  0  0  0  0  0  0  0  0
    1.6962    5.1971    6.5033 H   0  0  0  0  0  0  0  0  0  0  0  0
   -1.6269    3.8843    4.8239 H   0  0  0  0  0  0  0  0  0  0  0  0
   -0.3096    4.5705    2.5618 H   0  0  0  0  0  0  0  0  0  0  0  0
   -0.9047    6.1943    7.9076 H   0  0  0  0  0  0  0  0  0  0  0  0
   -1.1193    5.2438    9.3190 H   0  0  0  0  0  0  0  0  0  0  0  0
   -1.6078    4.5942    7.7769 H   0  0  0  0  0  0  0  0  0  0  0  0
    1.2516    6.6500    8.3271 H   0  0  0  0  0  0  0  0  0  0  0  0
    2.5579    5.5560    8.5620 H   0  0  0  0  0  0  0  0  0  0  0  0
    1.3409    5.7389    9.8179 H   0  0  0  0  0  0  0  0  0  0  0  0
  1  2  1  0
  1 35  1  0
  1 36  1  0
  1 37  1  0
  2  7  1  0
  2  3  1  0
  2 38  1  6
  3 11  1  0
  3  4  1  0
  3 39  1  6
  4  5  1  0
  4 40  1  0
  4 41  1  0
  5  6  1  0
  5 42  1  0
  5 43  1  0
  6 25  1  0
  6  7  1  0
  6 44  1  6
  7 30  1  0
  7  8  1  1
  8  9  1  0
  9 10  1  1
  9 11  1  0
  9 12  1  0
 10 45  1  0
 10 46  1  0
 10 47  1  0
 11 48  1  0
 11 49  1  0
 12 23  1  0
 12 13  1  1
 12 14  1  0
 13 50  1  0
 14 15  1  0
 14 51  1  0
 14 52  1  0
 15 16  1  0
 15 17  1  0
 15 53  1  6
 16 54  1  0
 17 32  1  0
 17 18  1  0
 17 55  1  1
 18 19  2  0
 18 20  1  0
 20 21  1  0
 20 56  1  0
 20 57  1  0
 21 22  1  0
 21 23  1  0
 21 58  1  6
 22 59  1  0
 22 60  1  0
 22 61  1  0
 23 24  1  6
 23 25  1  0
 24 62  1  0
 25 26  1  6
 25 27  1  0
 26 63  1  0
 26 64  1  0
 26 65  1  0
 27 28  1  0
 27 32  1  0
 27 66  1  1
 28 29  2  0
 28 30  1  0
 30 31  1  0
 30 67  1  1
 31 68  1  0
 32 33  1  0
 32 34  1  0
 33 69  1  0
 33 70  1  0
 33 71  1  0
 34 72  1  0
 34 73  1  0
 34 74  1  0
M  END
>  <i_m_ct_stereo_status>  (235) 
1

>  <s_m_source_file>  (235) 
/var/tmp/pbs.5076255.sched01/tmpzygr1bk5/76dkit4mfj.sdf

>  <i_m_source_file_index>  (235) 
31

>  <i_lp_mmshare_version>  (235) 
48012

>  <i_f3d_flags>  (235) 
0

>  <s_epik_input>  (235) 
W0NIM11bQ0BASF0xW0NAQEhdKFtDSDJdW0NIMl0yKVtDSDJdW0NAQF0oTzMpKFtDSDNdKVtDQEBdKFtPSF0pKFtDQEBdNChbT0hdKVtDQF01KFtDQEBIXTJbQ0BAXTEzNilbQ0gzXSlbQ0gyXVtDQEBIXShbT0hdKVtDQEBIXShDKD1PKVtDSDJdW0NASF00W0NIM10pQyhbQ0gzXSkoW0NIM10pW0NAQEhdNUMoPU8pW0NASF02W09IXQ==

>  <s_epik_cmdline>  (235) 
J2VwaWtfcHl0aG9uJywgJy1waHQnLCAnMi4wJywgJy1waCcsICc3LjAnLCAnLXRuJywgJzgnLCAnLW1hJywgJzIwMCcsICctaW1hZScsICc8aW5maWxlLm1hZT4nLCAnLW9tYWUnLCAnPG91dGZpbGUubWFlPic=

>  <r_lp_tautomer_probability>  (235) 
1

>  <r_epik_Ionization_Penalty>  (235) 
4.87576e-07

>  <r_epik_Ionization_Penalty_Charging>  (235) 
0

>  <r_epik_Ionization_Penalty_Neutral>  (235) 
4.87576e-07

>  <r_epik_State_Penalty>  (235) 
-0

>  <r_epik_Charging_Adjusted_Penalty>  (235) 
0

>  <i_epik_Tot_Q>  (235) 
0

>  <i_epik_Tot_abs_Q>  (235) 
0

>  <s_lp_Force_Field>  (235) 
OPLS3e

>  <r_lp_Energy>  (235) 
152.681

>  <b_lp_Chiralities_Consistent>  (235) 
1

>  <s_lp_Variant>  (235) 
81:0-1

>  <s_i_glide_gridfile>  (235) 
pfpi4k_grid

>  <i_i_glide_lignum>  (235) 
31

>  <i_i_glide_rotatable_bonds>  (235) 
4

>  <r_i_docking_score>  (235) 
-2.47999

>  <r_i_glide_ligand_efficiency>  (235) 
-0.072941

>  <r_i_glide_ligand_efficiency_sa>  (235) 
-0.236301

>  <r_i_glide_ligand_efficiency_ln>  (235) 
-0.5479

>  <r_i_glide_gscore>  (235) 
-2.47999

>  <r_i_glide_lipo>  (235) 
-0.00429573

>  <r_i_glide_hbond>  (235) 
-0.00383783

>  <r_i_glide_metal>  (235) 
-0

>  <r_i_glide_rewards>  (235) 
-0.15953

>  <r_i_glide_evdw>  (235) 
-22.0746

>  <r_i_glide_ecoul>  (235) 
-7.918

>  <r_i_glide_erotb>  (235) 
0

>  <r_i_glide_esite>  (235) 
-0.0209024

>  <r_i_glide_emodel>  (235) 
-33.6449

>  <r_i_glide_energy>  (235) 
-29.9926

>  <r_i_glide_einternal>  (235) 
2.70238

>  <r_i_glide_intrahb_reward>  (235) 
-0

>  <i_i_glide_confnum>  (235) 
2

>  <i_i_glide_posenum>  (235) 
30

>  <r_i_glide_eff_state_penalty>  (235) 
0

>  <ligand_id>  (235) 
81

>  <original_smiles>  (235) 
CC1C2CCC3C14OC(C)(C2)C1(O)CC(O)C2C(=O)CC(C)C1(O)C3(C)C(C(=O)C4O)C2(C)C

>  <smiles>  (235) 
[H]OC1([H])C(=O)C2([H])C(C([H])([H])[H])(C([H])([H])[H])C3([H])C(=O)C([H])([H])C([H])(C([H])([H])[H])C4(O[H])C(O[H])(C([H])([H])C3([H])O[H])C3(C([H])([H])[H])OC15C([H])(C([H])([H])[H])C([H])(C([H])([H])C([H])([H])C5([H])C24C([H])([H])[H])C3([H])[H]

$$$$
81:0:1
     RDKit          3D

 74 79  0  0  1  0  0  0  0  0999 V2000
   -2.7228    3.0924    3.2894 C   0  0  0  0  0  0  0  0  0  0  0  0
   -1.2399    2.6992    3.1372 C   0  0  2  0  0  0  0  0  0  0  0  0
   -0.9519    1.1979    3.3121 C   0  0  1  0  0  0  0  0  0  0  0  0
    0.3744    0.8266    2.6289 C   0  0  0  0  0  0  0  0  0  0  0  0
    1.4488    1.9179    2.7448 C   0  0  0  0  0  0  0  0  0  0  0  0
    1.2049    3.0409    3.8212 C   0  0  1  0  0  0  0  0  0  0  0  0
   -0.2775    3.4292    4.0912 C   0  0  2  0  0  0  0  0  0  0  0  0
   -0.7115    3.1365    5.4081 O   0  0  0  0  0  0  0  0  0  0  0  0
   -0.7187    1.8110    5.8970 C   0  0  1  0  0  0  0  0  0  0  0  0
   -2.0240    1.8373    6.7380 C   0  0  0  0  0  0  0  0  0  0  0  0
   -0.9723    0.7333    4.7794 C   0  0  0  0  0  0  0  0  0  0  0  0
    0.5749    1.6383    6.8068 C   0  0  2  0  0  0  0  0  0  0  0  0
    0.5116    0.2582    7.1460 O   0  0  0  0  0  0  0  0  0  0  0  0
    0.4097    2.2326    8.2341 C   0  0  0  0  0  0  0  0  0  0  0  0
    0.4339    3.7584    8.3548 C   0  0  1  0  0  0  0  0  0  0  0  0
   -0.1789    4.0797    9.5893 O   0  0  0  0  0  0  0  0  0  0  0  0
    1.8316    4.4240    8.3072 C   0  0  1  0  0  0  0  0  0  0  0  0
    2.9952    3.5512    8.7975 C   0  0  0  0  0  0  0  0  0  0  0  0
    3.1866    3.4017   10.0053 O   0  0  0  0  0  0  0  0  0  0  0  0
    3.9107    2.8694    7.8038 C   0  0  0  0  0  0  0  0  0  0  0  0
    3.3065    1.7090    6.9960 C   0  0  1  0  0  0  0  0  0  0  0  0
    3.3609    0.4087    7.8373 C   0  0  0  0  0  0  0  0  0  0  0  0
    1.9943    1.9655    6.1127 C   0  0  1  0  0  0  0  0  0  0  0  0
    2.1384    0.8302    5.2693 O   0  0  0  0  0  0  0  0  0  0  0  0
    2.1177    3.2511    5.1059 C   0  0  1  0  0  0  0  0  0  0  0  0
    3.5603    3.3116    4.5016 C   0  0  0  0  0  0  0  0  0  0  0  0
    1.8338    4.7801    5.6264 C   0  0  1  0  0  0  0  0  0  0  0  0
    0.8657    5.6229    4.7316 C   0  0  0  0  0  0  0  0  0  0  0  0
    1.1180    6.7943    4.4861 O   0  0  0  0  0  0  0  0  0  0  0  0
   -0.3931    4.9617    4.1395 C   0  0  1  0  0  0  0  0  0  0  0  0
   -0.7522    5.5471    2.8973 O   0  0  0  0  0  0  0  0  0  0  0  0
    2.0507    5.3890    7.1003 C   0  0  0  0  0  0  0  0  0  0  0  0
    1.0754    6.5756    7.4353 C   0  0  0  0  0  0  0  0  0  0  0  0
    3.4319    6.1099    7.1766 C   0  0  0  0  0  0  0  0  0  0  0  0
   -3.0838    2.9971    4.3049 H   0  0  0  0  0  0  0  0  0  0  0  0
   -3.3567    2.4941    2.6450 H   0  0  0  0  0  0  0  0  0  0  0  0
   -2.8858    4.1235    2.9859 H   0  0  0  0  0  0  0  0  0  0  0  0
   -0.9869    2.9416    2.1055 H   0  0  0  0  0  0  0  0  0  0  0  0
   -1.7146    0.6300    2.7896 H   0  0  0  0  0  0  0  0  0  0  0  0
    0.7615   -0.1264    2.9932 H   0  0  0  0  0  0  0  0  0  0  0  0
    0.1818    0.6531    1.5667 H   0  0  0  0  0  0  0  0  0  0  0  0
    2.4340    1.4511    2.8199 H   0  0  0  0  0  0  0  0  0  0  0  0
    1.4696    2.3993    1.7582 H   0  0  0  0  0  0  0  0  0  0  0  0
    1.5407    3.8231    3.1462 H   0  0  0  0  0  0  0  0  0  0  0  0
   -2.1286    0.9371    7.3480 H   0  0  0  0  0  0  0  0  0  0  0  0
   -2.9028    1.8905    6.1016 H   0  0  0  0  0  0  0  0  0  0  0  0
   -2.0903    2.7142    7.3842 H   0  0  0  0  0  0  0  0  0  0  0  0
   -1.9441    0.2578    4.9326 H   0  0  0  0  0  0  0  0  0  0  0  0
   -0.2906   -0.1055    4.8898 H   0  0  0  0  0  0  0  0  0  0  0  0
    0.8518   -0.1917    6.3792 H   0  0  0  0  0  0  0  0  0  0  0  0
   -0.5191    1.8754    8.6749 H   0  0  0  0  0  0  0  0  0  0  0  0
    1.1222    1.7890    8.9217 H   0  0  0  0  0  0  0  0  0  0  0  0
   -0.2146    4.1732    7.5880 H   0  0  0  0  0  0  0  0  0  0  0  0
    0.3190    3.6857   10.2967 H   0  0  0  0  0  0  0  0  0  0  0  0
    1.8153    5.1105    9.1526 H   0  0  0  0  0  0  0  0  0  0  0  0
    4.3503    3.6070    7.1552 H   0  0  0  0  0  0  0  0  0  0  0  0
    4.7626    2.4893    8.3688 H   0  0  0  0  0  0  0  0  0  0  0  0
    4.1120    1.5245    6.2824 H   0  0  0  0  0  0  0  0  0  0  0  0
    2.7221    0.4350    8.7164 H   0  0  0  0  0  0  0  0  0  0  0  0
    4.3752    0.2350    8.2019 H   0  0  0  0  0  0  0  0  0  0  0  0
    3.0930   -0.4729    7.2548 H   0  0  0  0  0  0  0  0  0  0  0  0
    2.9186    0.9622    4.7495 H   0  0  0  0  0  0  0  0  0  0  0  0
    4.3040    3.7031    5.1882 H   0  0  0  0  0  0  0  0  0  0  0  0
    3.6158    3.9877    3.6475 H   0  0  0  0  0  0  0  0  0  0  0  0
    3.9354    2.3513    4.1474 H   0  0  0  0  0  0  0  0  0  0  0  0
    2.7003    5.2608    5.1747 H   0  0  0  0  0  0  0  0  0  0  0  0
   -1.2086    5.2191    4.8122 H   0  0  0  0  0  0  0  0  0  0  0  0
   -0.2187    5.1641    2.1905 H   0  0  0  0  0  0  0  0  0  0  0  0
    1.2527    7.4679    6.8357 H   0  0  0  0  0  0  0  0  0  0  0  0
    1.1932    6.9278    8.4612 H   0  0  0  0  0  0  0  0  0  0  0  0
    0.0225    6.3211    7.3227 H   0  0  0  0  0  0  0  0  0  0  0  0
    3.4318    7.0246    6.5810 H   0  0  0  0  0  0  0  0  0  0  0  0
    4.2629    5.5329    6.7847 H   0  0  0  0  0  0  0  0  0  0  0  0
    3.6825    6.4039    8.1973 H   0  0  0  0  0  0  0  0  0  0  0  0
  1  2  1  0
  1 35  1  0
  1 36  1  0
  1 37  1  0
  2  7  1  0
  2  3  1  0
  2 38  1  6
  3 11  1  0
  3  4  1  0
  3 39  1  6
  4  5  1  0
  4 40  1  0
  4 41  1  0
  5  6  1  0
  5 42  1  0
  5 43  1  0
  6 25  1  0
  6  7  1  0
  6 44  1  6
  7 30  1  0
  7  8  1  1
  8  9  1  0
  9 10  1  1
  9 11  1  0
  9 12  1  0
 10 45  1  0
 10 46  1  0
 10 47  1  0
 11 48  1  0
 11 49  1  0
 12 23  1  0
 12 13  1  1
 12 14  1  0
 13 50  1  0
 14 15  1  0
 14 51  1  0
 14 52  1  0
 15 16  1  0
 15 17  1  0
 15 53  1  6
 16 54  1  0
 17 32  1  0
 17 18  1  0
 17 55  1  1
 18 19  2  0
 18 20  1  0
 20 21  1  0
 20 56  1  0
 20 57  1  0
 21 22  1  0
 21 23  1  0
 21 58  1  6
 22 59  1  0
 22 60  1  0
 22 61  1  0
 23 24  1  6
 23 25  1  0
 24 62  1  0
 25 26  1  6
 25 27  1  0
 26 63  1  0
 26 64  1  0
 26 65  1  0
 27 28  1  0
 27 32  1  0
 27 66  1  6
 28 29  2  0
 28 30  1  0
 30 31  1  0
 30 67  1  1
 31 68  1  0
 32 33  1  0
 32 34  1  0
 33 69  1  0
 33 70  1  0
 33 71  1  0
 34 72  1  0
 34 73  1  0
 34 74  1  0
M  END
>  <i_m_ct_stereo_status>  (236) 
1

>  <s_m_source_file>  (236) 
/var/tmp/pbs.5076255.sched01/tmpzygr1bk5/76dkit4mfj.sdf

>  <i_m_source_file_index>  (236) 
31

>  <i_lp_mmshare_version>  (236) 
48012

>  <i_f3d_flags>  (236) 
0

>  <s_epik_input>  (236) 
W0NIM11bQ0BASF0xW0NAQEhdKFtDSDJdW0NIMl0yKVtDSDJdW0NAQF0oTzMpKFtDSDNdKVtDQEBdKFtPSF0pKFtDQEBdNChbT0hdKVtDQF01KFtDQEBIXTJbQ0BAXTEzNilbQ0gzXSlbQ0gyXVtDQEBIXShbT0hdKVtDQEBIXShDKD1PKVtDSDJdW0NASF00W0NIM10pQyhbQ0gzXSkoW0NIM10pW0NAQEhdNUMoPU8pW0NASF02W09IXQ==

>  <s_epik_cmdline>  (236) 
J2VwaWtfcHl0aG9uJywgJy1waHQnLCAnMi4wJywgJy1waCcsICc3LjAnLCAnLXRuJywgJzgnLCAnLW1hJywgJzIwMCcsICctaW1hZScsICc8aW5maWxlLm1hZT4nLCAnLW9tYWUnLCAnPG91dGZpbGUubWFlPic=

>  <r_lp_tautomer_probability>  (236) 
1

>  <r_epik_Ionization_Penalty>  (236) 
4.87576e-07

>  <r_epik_Ionization_Penalty_Charging>  (236) 
0

>  <r_epik_Ionization_Penalty_Neutral>  (236) 
4.87576e-07

>  <r_epik_State_Penalty>  (236) 
-0

>  <r_epik_Charging_Adjusted_Penalty>  (236) 
0

>  <i_epik_Tot_Q>  (236) 
0

>  <i_epik_Tot_abs_Q>  (236) 
0

>  <s_lp_Force_Field>  (236) 
OPLS3e

>  <r_lp_Energy>  (236) 
152.681

>  <b_lp_Chiralities_Consistent>  (236) 
1

>  <s_lp_Variant>  (236) 
81:0-1

>  <s_i_glide_gridfile>  (236) 
pfpi4k_grid

>  <i_i_glide_lignum>  (236) 
31

>  <i_i_glide_rotatable_bonds>  (236) 
4

>  <r_i_docking_score>  (236) 
-2.33067

>  <r_i_glide_ligand_efficiency>  (236) 
-0.0685492

>  <r_i_glide_ligand_efficiency_sa>  (236) 
-0.222073

>  <r_i_glide_ligand_efficiency_ln>  (236) 
-0.514911

>  <r_i_glide_gscore>  (236) 
-2.33067

>  <r_i_glide_lipo>  (236) 
0

>  <r_i_glide_hbond>  (236) 
0

>  <r_i_glide_metal>  (236) 
-0

>  <r_i_glide_rewards>  (236) 
-0.15953

>  <r_i_glide_evdw>  (236) 
-22.78

>  <r_i_glide_ecoul>  (236) 
-6.67487

>  <r_i_glide_erotb>  (236) 
0

>  <r_i_glide_esite>  (236) 
-0.0309147

>  <r_i_glide_emodel>  (236) 
-33.1417

>  <r_i_glide_energy>  (236) 
-29.4548

>  <r_i_glide_einternal>  (236) 
1.84947

>  <r_i_glide_intrahb_reward>  (236) 
-0

>  <i_i_glide_confnum>  (236) 
1

>  <i_i_glide_posenum>  (236) 
2

>  <r_i_glide_eff_state_penalty>  (236) 
0

>  <ligand_id>  (236) 
81

>  <original_smiles>  (236) 
CC1C2CCC3C14OC(C)(C2)C1(O)CC(O)C2C(=O)CC(C)C1(O)C3(C)C(C(=O)C4O)C2(C)C

>  <smiles>  (236) 
[H]OC1([H])C(=O)C2([H])C(C([H])([H])[H])(C([H])([H])[H])C3([H])C(=O)C([H])([H])C([H])(C([H])([H])[H])C4(O[H])C(O[H])(C([H])([H])C3([H])O[H])C3(C([H])([H])[H])OC15C([H])(C([H])([H])[H])C([H])(C([H])([H])C([H])([H])C5([H])C24C([H])([H])[H])C3([H])[H]

$$$$
81:0:2
     RDKit          3D

 74 79  0  0  1  0  0  0  0  0999 V2000
   -2.4027    3.6895    3.4211 C   0  0  0  0  0  0  0  0  0  0  0  0
   -1.0033    3.0563    3.4658 C   0  0  2  0  0  0  0  0  0  0  0  0
   -1.0129    1.5250    3.6353 C   0  0  1  0  0  0  0  0  0  0  0  0
    0.2960    0.9169    3.1159 C   0  0  0  0  0  0  0  0  0  0  0  0
    1.5189    1.7893    3.3949 C   0  0  0  0  0  0  0  0  0  0  0  0
    1.3468    2.9390    4.4639 C   0  0  1  0  0  0  0  0  0  0  0  0
   -0.0626    3.6049    4.5539 C   0  0  2  0  0  0  0  0  0  0  0  0
   -0.7121    3.3907    5.7947 O   0  0  0  0  0  0  0  0  0  0  0  0
   -1.0202    2.0881    6.2409 C   0  0  1  0  0  0  0  0  0  0  0  0
   -2.3976    2.3468    6.8952 C   0  0  0  0  0  0  0  0  0  0  0  0
   -1.3104    1.0727    5.0738 C   0  0  0  0  0  0  0  0  0  0  0  0
    0.0891    1.6742    7.3018 C   0  0  2  0  0  0  0  0  0  0  0  0
   -0.2594    0.3225    7.5853 O   0  0  0  0  0  0  0  0  0  0  0  0
   -0.1504    2.2864    8.7118 C   0  0  0  0  0  0  0  0  0  0  0  0
    0.1416    3.7817    8.8708 C   0  0  1  0  0  0  0  0  0  0  0  0
   -0.5548    4.2139   10.0248 O   0  0  0  0  0  0  0  0  0  0  0  0
    1.6307    4.1785    9.0163 C   0  0  1  0  0  0  0  0  0  0  0  0
    2.5418    3.1031    9.6276 C   0  0  0  0  0  0  0  0  0  0  0  0
    2.5478    2.9206   10.8501 O   0  0  0  0  0  0  0  0  0  0  0  0
    3.4360    2.2633    8.7458 C   0  0  0  0  0  0  0  0  0  0  0  0
    2.7398    1.2339    7.8394 C   0  0  1  0  0  0  0  0  0  0  0  0
    2.4448   -0.0516    8.6540 C   0  0  0  0  0  0  0  0  0  0  0  0
    1.6269    1.7348    6.8064 C   0  0  1  0  0  0  0  0  0  0  0  0
    1.6631    0.5831    5.9680 O   0  0  0  0  0  0  0  0  0  0  0  0
    2.1179    2.9713    5.8520 C   0  0  1  0  0  0  0  0  0  0  0  0
    3.6192    2.7587    5.4326 C   0  0  0  0  0  0  0  0  0  0  0  0
    2.0513    4.5321    6.3664 C   0  0  1  0  0  0  0  0  0  0  0  0
    1.3691    5.5292    5.3819 C   0  0  0  0  0  0  0  0  0  0  0  0
    1.8661    6.6470    5.1776 O   0  0  0  0  0  0  0  0  0  0  0  0
    0.0998    5.1396    4.6288 C   0  0  1  0  0  0  0  0  0  0  0  0
    0.0770    5.7366    3.3447 O   0  0  0  0  0  0  0  0  0  0  0  0
    2.1802    5.0855    7.8727 C   0  0  0  0  0  0  0  0  0  0  0  0
    1.4080    6.4290    8.1047 C   0  0  0  0  0  0  0  0  0  0  0  0
    3.6507    5.5338    8.1373 C   0  0  0  0  0  0  0  0  0  0  0  0
   -2.8954    3.6809    4.3863 H   0  0  0  0  0  0  0  0  0  0  0  0
   -3.0456    3.1832    2.7064 H   0  0  0  0  0  0  0  0  0  0  0  0
   -2.3340    4.7277    3.1052 H   0  0  0  0  0  0  0  0  0  0  0  0
   -0.5731    3.2553    2.4800 H   0  0  0  0  0  0  0  0  0  0  0  0
   -1.7809    1.1059    3.0107 H   0  0  0  0  0  0  0  0  0  0  0  0
    0.4433   -0.0935    3.5080 H   0  0  0  0  0  0  0  0  0  0  0  0
    0.2058    0.7774    2.0332 H   0  0  0  0  0  0  0  0  0  0  0  0
    2.3745    1.1456    3.5935 H   0  0  0  0  0  0  0  0  0  0  0  0
    1.7600    2.2599    2.4281 H   0  0  0  0  0  0  0  0  0  0  0  0
    1.9035    3.6396    3.8582 H   0  0  0  0  0  0  0  0  0  0  0  0
   -2.7487    1.4830    7.4666 H   0  0  0  0  0  0  0  0  0  0  0  0
   -3.1645    2.5507    6.1566 H   0  0  0  0  0  0  0  0  0  0  0  0
   -2.3885    3.2201    7.5524 H   0  0  0  0  0  0  0  0  0  0  0  0
   -2.3673    0.7771    5.0844 H   0  0  0  0  0  0  0  0  0  0  0  0
   -0.8110    0.1265    5.2531 H   0  0  0  0  0  0  0  0  0  0  0  0
    0.1616   -0.1612    6.8831 H   0  0  0  0  0  0  0  0  0  0  0  0
   -1.1762    2.1134    9.0215 H   0  0  0  0  0  0  0  0  0  0  0  0
    0.3743    1.7190    9.4707 H   0  0  0  0  0  0  0  0  0  0  0  0
   -0.3121    4.3127    8.0390 H   0  0  0  0  0  0  0  0  0  0  0  0
   -0.2555    3.7171   10.7761 H   0  0  0  0  0  0  0  0  0  0  0  0
    1.6337    4.8559    9.8685 H   0  0  0  0  0  0  0  0  0  0  0  0
    4.0844    2.9068    8.1744 H   0  0  0  0  0  0  0  0  0  0  0  0
    4.1232    1.7329    9.4089 H   0  0  0  0  0  0  0  0  0  0  0  0
    3.5832    0.9044    7.2317 H   0  0  0  0  0  0  0  0  0  0  0  0
    1.7112    0.0936    9.4428 H   0  0  0  0  0  0  0  0  0  0  0  0
    3.3516   -0.4089    9.1383 H   0  0  0  0  0  0  0  0  0  0  0  0
    2.0983   -0.8714    8.0230 H   0  0  0  0  0  0  0  0  0  0  0  0
    2.5320    0.5333    5.5987 H   0  0  0  0  0  0  0  0  0  0  0  0
    4.3249    3.0058    6.2156 H   0  0  0  0  0  0  0  0  0  0  0  0
    3.9049    3.4074    4.6081 H   0  0  0  0  0  0  0  0  0  0  0  0
    3.8521    1.7440    5.1104 H   0  0  0  0  0  0  0  0  0  0  0  0
    3.0450    4.8390    6.0408 H   0  0  0  0  0  0  0  0  0  0  0  0
   -0.7471    5.5547    5.1795 H   0  0  0  0  0  0  0  0  0  0  0  0
    0.2593    6.6748    3.3891 H   0  0  0  0  0  0  0  0  0  0  0  0
    1.8219    7.2717    7.5530 H   0  0  0  0  0  0  0  0  0  0  0  0
    1.4556    6.7527    9.1430 H   0  0  0  0  0  0  0  0  0  0  0  0
    0.3516    6.3746    7.8543 H   0  0  0  0  0  0  0  0  0  0  0  0
    3.8965    6.4327    7.5706 H   0  0  0  0  0  0  0  0  0  0  0  0
    4.4037    4.8130    7.8434 H   0  0  0  0  0  0  0  0  0  0  0  0
    3.8128    5.7774    9.1915 H   0  0  0  0  0  0  0  0  0  0  0  0
  1  2  1  0
  1 35  1  0
  1 36  1  0
  1 37  1  0
  2  7  1  0
  2  3  1  0
  2 38  1  6
  3 11  1  0
  3  4  1  0
  3 39  1  6
  4  5  1  0
  4 40  1  0
  4 41  1  0
  5  6  1  0
  5 42  1  0
  5 43  1  0
  6 25  1  0
  6  7  1  0
  6 44  1  6
  7 30  1  0
  7  8  1  1
  8  9  1  0
  9 10  1  1
  9 11  1  0
  9 12  1  0
 10 45  1  0
 10 46  1  0
 10 47  1  0
 11 48  1  0
 11 49  1  0
 12 23  1  0
 12 13  1  1
 12 14  1  0
 13 50  1  0
 14 15  1  0
 14 51  1  0
 14 52  1  0
 15 16  1  0
 15 17  1  0
 15 53  1  6
 16 54  1  0
 17 32  1  0
 17 18  1  0
 17 55  1  1
 18 19  2  0
 18 20  1  0
 20 21  1  0
 20 56  1  0
 20 57  1  0
 21 22  1  0
 21 23  1  0
 21 58  1  6
 22 59  1  0
 22 60  1  0
 22 61  1  0
 23 24  1  6
 23 25  1  0
 24 62  1  0
 25 26  1  6
 25 27  1  0
 26 63  1  0
 26 64  1  0
 26 65  1  0
 27 28  1  0
 27 32  1  0
 27 66  1  6
 28 29  2  0
 28 30  1  0
 30 31  1  0
 30 67  1  1
 31 68  1  0
 32 33  1  0
 32 34  1  0
 33 69  1  0
 33 70  1  0
 33 71  1  0
 34 72  1  0
 34 73  1  0
 34 74  1  0
M  END
>  <i_m_ct_stereo_status>  (237) 
1

>  <s_m_source_file>  (237) 
/var/tmp/pbs.5076255.sched01/tmpzygr1bk5/76dkit4mfj.sdf

>  <i_m_source_file_index>  (237) 
31

>  <i_lp_mmshare_version>  (237) 
48012

>  <i_f3d_flags>  (237) 
0

>  <s_epik_input>  (237) 
W0NIM11bQ0BASF0xW0NAQEhdKFtDSDJdW0NIMl0yKVtDSDJdW0NAQF0oTzMpKFtDSDNdKVtDQEBdKFtPSF0pKFtDQEBdNChbT0hdKVtDQF01KFtDQEBIXTJbQ0BAXTEzNilbQ0gzXSlbQ0gyXVtDQEBIXShbT0hdKVtDQEBIXShDKD1PKVtDSDJdW0NASF00W0NIM10pQyhbQ0gzXSkoW0NIM10pW0NAQEhdNUMoPU8pW0NASF02W09IXQ==

>  <s_epik_cmdline>  (237) 
J2VwaWtfcHl0aG9uJywgJy1waHQnLCAnMi4wJywgJy1waCcsICc3LjAnLCAnLXRuJywgJzgnLCAnLW1hJywgJzIwMCcsICctaW1hZScsICc8aW5maWxlLm1hZT4nLCAnLW9tYWUnLCAnPG91dGZpbGUubWFlPic=

>  <r_lp_tautomer_probability>  (237) 
1

>  <r_epik_Ionization_Penalty>  (237) 
4.87576e-07

>  <r_epik_Ionization_Penalty_Charging>  (237) 
0

>  <r_epik_Ionization_Penalty_Neutral>  (237) 
4.87576e-07

>  <r_epik_State_Penalty>  (237) 
-0

>  <r_epik_Charging_Adjusted_Penalty>  (237) 
0

>  <i_epik_Tot_Q>  (237) 
0

>  <i_epik_Tot_abs_Q>  (237) 
0

>  <s_lp_Force_Field>  (237) 
OPLS3e

>  <r_lp_Energy>  (237) 
152.681

>  <b_lp_Chiralities_Consistent>  (237) 
1

>  <s_lp_Variant>  (237) 
81:0-1

>  <s_i_glide_gridfile>  (237) 
pfpi4k_grid

>  <i_i_glide_lignum>  (237) 
31

>  <i_i_glide_rotatable_bonds>  (237) 
4

>  <r_i_docking_score>  (237) 
-2.23697

>  <r_i_glide_ligand_efficiency>  (237) 
-0.0657931

>  <r_i_glide_ligand_efficiency_sa>  (237) 
-0.213144

>  <r_i_glide_ligand_efficiency_ln>  (237) 
-0.494208

>  <r_i_glide_gscore>  (237) 
-2.23697

>  <r_i_glide_lipo>  (237) 
-0.0615275

>  <r_i_glide_hbond>  (237) 
0

>  <r_i_glide_metal>  (237) 
-0

>  <r_i_glide_rewards>  (237) 
-0.65953

>  <r_i_glide_evdw>  (237) 
-23.5784

>  <r_i_glide_ecoul>  (237) 
-2.21138

>  <r_i_glide_erotb>  (237) 
0

>  <r_i_glide_esite>  (237) 
-0.00528317

>  <r_i_glide_emodel>  (237) 
-34.1244

>  <r_i_glide_energy>  (237) 
-25.7897

>  <r_i_glide_einternal>  (237) 
2.08396

>  <r_i_glide_intrahb_reward>  (237) 
-0.5

>  <i_i_glide_confnum>  (237) 
2

>  <i_i_glide_posenum>  (237) 
17

>  <r_i_glide_eff_state_penalty>  (237) 
0

>  <ligand_id>  (237) 
81

>  <original_smiles>  (237) 
CC1C2CCC3C14OC(C)(C2)C1(O)CC(O)C2C(=O)CC(C)C1(O)C3(C)C(C(=O)C4O)C2(C)C

>  <smiles>  (237) 
[H]OC1([H])C(=O)C2([H])C(C([H])([H])[H])(C([H])([H])[H])C3([H])C(=O)C([H])([H])C([H])(C([H])([H])[H])C4(O[H])C(O[H])(C([H])([H])C3([H])O[H])C3(C([H])([H])[H])OC15C([H])(C([H])([H])[H])C([H])(C([H])([H])C([H])([H])C5([H])C24C([H])([H])[H])C3([H])[H]

$$$$
82:0:0
     RDKit          3D

 57 62  0  0  1  0  0  0  0  0999 V2000
    0.4150  -10.3387    2.8800 C   0  0  0  0  0  0  0  0  0  0  0  0
    0.7753   -8.8813    3.0658 C   0  0  0  0  0  0  0  0  0  0  0  0
    0.0421   -8.0409    3.8279 C   0  0  0  0  0  0  0  0  0  0  0  0
    0.4194   -6.5678    3.9833 C   0  0  1  0  0  0  0  0  0  0  0  0
    1.2301   -6.3549    5.2917 C   0  0  0  0  0  0  0  0  0  0  0  0
    2.5679   -7.1559    5.3841 C   0  0  1  0  0  0  0  0  0  0  0  0
    2.3259   -8.5138    5.6850 O   0  0  0  0  0  0  0  0  0  0  0  0
    3.3325   -6.9594    4.0617 C   0  0  1  0  0  0  0  0  0  0  0  0
    4.7770   -7.4634    3.7833 C   0  0  1  0  0  0  0  0  0  0  0  0
    5.0761   -8.8538    4.3736 C   0  0  0  0  0  0  0  0  0  0  0  0
    5.1826   -7.3920    2.2719 C   0  0  0  0  0  0  0  0  0  0  0  0
    4.8944   -6.0888    1.4585 C   0  0  0  0  0  0  0  0  0  0  0  0
    3.4351   -5.8100    0.9572 C   0  0  2  0  0  0  0  0  0  0  0  0
    3.3550   -4.5499    0.0828 C   0  0  0  0  0  0  0  0  0  0  0  0
    3.6072   -3.4010    0.9206 N   0  0  0  0  0  0  0  0  0  0  0  0
    3.5539   -2.0983    0.3057 C   0  0  0  0  0  0  0  0  0  0  0  0
    3.6111   -1.1513    1.5207 C   0  0  1  0  0  0  0  0  0  0  0  0
    2.9857    0.0882    1.2787 O   0  0  0  0  0  0  0  0  0  0  0  0
    2.9386   -1.9615    2.6600 C   0  0  0  0  0  0  0  0  0  0  0  0
    2.6483   -3.3127    1.9918 C   0  0  2  0  0  0  0  0  0  0  0  0
    2.7561   -4.3998    2.8573 O   0  0  0  0  0  0  0  0  0  0  0  0
    2.5354   -5.6465    2.1667 C   0  0  1  0  0  0  0  0  0  0  0  0
    1.1592   -6.1190    2.7130 C   0  0  2  0  0  0  0  0  0  0  0  0
    0.3692   -6.2618    1.5407 O   0  0  0  0  0  0  0  0  0  0  0  0
    2.4155   -6.9618    2.8520 C   0  0  2  0  0  0  0  0  0  0  0  0
    2.0450   -8.3811    2.3693 C   0  0  0  0  0  0  0  0  0  0  0  0
    1.2037  -10.9941    3.2565 H   0  0  0  0  0  0  0  0  0  0  0  0
    0.2543  -10.5753    1.8319 H   0  0  0  0  0  0  0  0  0  0  0  0
   -0.5077  -10.5792    3.4160 H   0  0  0  0  0  0  0  0  0  0  0  0
   -0.8350   -8.3875    4.3621 H   0  0  0  0  0  0  0  0  0  0  0  0
   -0.5064   -5.9933    4.0448 H   0  0  0  0  0  0  0  0  0  0  0  0
    1.4703   -5.2924    5.3705 H   0  0  0  0  0  0  0  0  0  0  0  0
    0.6187   -6.5823    6.1699 H   0  0  0  0  0  0  0  0  0  0  0  0
    3.1646   -6.7684    6.2113 H   0  0  0  0  0  0  0  0  0  0  0  0
    1.8733   -8.9084    4.9531 H   0  0  0  0  0  0  0  0  0  0  0  0
    3.5997   -5.9199    4.2391 H   0  0  0  0  0  0  0  0  0  0  0  0
    5.4507   -6.7870    4.3174 H   0  0  0  0  0  0  0  0  0  0  0  0
    4.4045   -9.6160    3.9812 H   0  0  0  0  0  0  0  0  0  0  0  0
    4.9700   -8.8494    5.4597 H   0  0  0  0  0  0  0  0  0  0  0  0
    6.0979   -9.1643    4.1530 H   0  0  0  0  0  0  0  0  0  0  0  0
    6.2656   -7.5347    2.2501 H   0  0  0  0  0  0  0  0  0  0  0  0
    4.7873   -8.2502    1.7327 H   0  0  0  0  0  0  0  0  0  0  0  0
    5.2668   -5.2340    2.0197 H   0  0  0  0  0  0  0  0  0  0  0  0
    5.5227   -6.1357    0.5647 H   0  0  0  0  0  0  0  0  0  0  0  0
    3.1114   -6.6546    0.3681 H   0  0  0  0  0  0  0  0  0  0  0  0
    4.0806   -4.6087   -0.7317 H   0  0  0  0  0  0  0  0  0  0  0  0
    2.3701   -4.4749   -0.3777 H   0  0  0  0  0  0  0  0  0  0  0  0
    4.3814   -1.9277   -0.3855 H   0  0  0  0  0  0  0  0  0  0  0  0
    2.6153   -1.9628   -0.2404 H   0  0  0  0  0  0  0  0  0  0  0  0
    4.6545   -0.9721    1.7863 H   0  0  0  0  0  0  0  0  0  0  0  0
    2.1611   -0.0641    0.8344 H   0  0  0  0  0  0  0  0  0  0  0  0
    3.6182   -2.0980    3.5028 H   0  0  0  0  0  0  0  0  0  0  0  0
    2.0046   -1.5261    3.0149 H   0  0  0  0  0  0  0  0  0  0  0  0
    1.6515   -3.2960    1.5721 H   0  0  0  0  0  0  0  0  0  0  0  0
    0.2163   -7.1958    1.4074 H   0  0  0  0  0  0  0  0  0  0  0  0
    2.8595   -9.0854    2.5340 H   0  0  0  0  0  0  0  0  0  0  0  0
    1.8579   -8.3739    1.2925 H   0  0  0  0  0  0  0  0  0  0  0  0
  1  2  1  0
  1 27  1  0
  1 28  1  0
  1 29  1  0
  2 26  1  0
  2  3  2  0
  3  4  1  0
  3 30  1  0
  4 23  1  0
  4  5  1  0
  4 31  1  1
  5  6  1  0
  5 32  1  0
  5 33  1  0
  6  7  1  0
  6  8  1  0
  6 34  1  1
  7 35  1  0
  8 25  1  0
  8  9  1  0
  8 36  1  1
  9 10  1  0
  9 11  1  0
  9 37  1  1
 10 38  1  0
 10 39  1  0
 10 40  1  0
 11 12  1  0
 11 41  1  0
 11 42  1  0
 12 13  1  0
 12 43  1  0
 12 44  1  0
 13 22  1  0
 13 14  1  0
 13 45  1  6
 14 15  1  0
 14 46  1  0
 14 47  1  0
 15 20  1  0
 15 16  1  0
 16 17  1  0
 16 48  1  0
 16 49  1  0
 17 18  1  0
 17 19  1  0
 17 50  1  1
 18 51  1  0
 19 20  1  0
 19 52  1  0
 19 53  1  0
 20 21  1  0
 20 54  1  6
 22 21  1  1
 22 25  1  0
 22 23  1  0
 23 24  1  1
 23 25  1  0
 24 55  1  0
 25 26  1  6
 26 56  1  0
 26 57  1  0
M  END
>  <i_m_ct_stereo_status>  (238) 
1

>  <s_m_source_file>  (238) 
/var/tmp/pbs.5076255.sched01/tmpzygr1bk5/76dkit4mfj.sdf

>  <i_m_source_file_index>  (238) 
32

>  <i_lp_mmshare_version>  (238) 
48012

>  <i_f3d_flags>  (238) 
0

>  <s_epik_input>  (238) 
W0NIM11DKFtDSDJdMSk9W0NIXVtDQEhdKFtDQEBdMjNbT0hdKVtDSDJdW0NAQEhdKFtPSF0pW0NASF0oW0NAQF0xM1tDQF0yNDUpW0NAQEhdKFtDSDNdKVtDSDJdW0NIMl1bQ0BASF00W0NIMl1ONltDQEBIXShPNSlbQ0gyXVtDQEBIXShbQ0gyXTYpW09IXQ==

>  <s_epik_cmdline>  (238) 
J2VwaWtfcHl0aG9uJywgJy1waHQnLCAnMi4wJywgJy1waCcsICc3LjAnLCAnLXRuJywgJzgnLCAnLW1hJywgJzIwMCcsICctaW1hZScsICc8aW5maWxlLm1hZT4nLCAnLW9tYWUnLCAnPG91dGZpbGUubWFlPic=

>  <r_epik_Ionization_Penalty>  (238) 
0.399526

>  <r_epik_Ionization_Penalty_Charging>  (238) 
0

>  <r_epik_Ionization_Penalty_Neutral>  (238) 
0.399526

>  <r_epik_State_Penalty>  (238) 
0.398784

>  <r_epik_Charging_Adjusted_Penalty>  (238) 
0.398784

>  <i_epik_Tot_Q>  (238) 
0

>  <i_epik_Tot_abs_Q>  (238) 
0

>  <s_epik_Chemistry_Notes>  (238) 
This compound contains an acetal/aminal-like group ( X-CH(R)-Y where X, Y are N, S, or O) that may be acid/base labile, releasing an aldehyde.

>  <s_lp_Force_Field>  (238) 
OPLS3e

>  <r_lp_Energy>  (238) 
94.9686

>  <b_lp_Chiralities_Consistent>  (238) 
1

>  <s_lp_Variant>  (238) 
82:0-1

>  <s_i_glide_gridfile>  (238) 
pfpi4k_grid

>  <i_i_glide_lignum>  (238) 
32

>  <i_i_glide_rotatable_bonds>  (238) 
3

>  <r_i_docking_score>  (238) 
-3.39329

>  <r_i_glide_ligand_efficiency>  (238) 
-0.130511

>  <r_i_glide_ligand_efficiency_sa>  (238) 
-0.386638

>  <r_i_glide_ligand_efficiency_ln>  (238) 
-0.796902

>  <r_i_glide_gscore>  (238) 
-3.39329

>  <r_i_glide_lipo>  (238) 
-0.181273

>  <r_i_glide_hbond>  (238) 
-0.0337561

>  <r_i_glide_metal>  (238) 
-0

>  <r_i_glide_rewards>  (238) 
-0.944488

>  <r_i_glide_evdw>  (238) 
-22.5902

>  <r_i_glide_ecoul>  (238) 
-7.32795

>  <r_i_glide_erotb>  (238) 
0

>  <r_i_glide_esite>  (238) 
-0.00506466

>  <r_i_glide_emodel>  (238) 
-36.5541

>  <r_i_glide_energy>  (238) 
-29.9182

>  <r_i_glide_einternal>  (238) 
0.231773

>  <r_i_glide_intrahb_reward>  (238) 
-0

>  <i_i_glide_confnum>  (238) 
1

>  <i_i_glide_posenum>  (238) 
7

>  <r_i_glide_eff_state_penalty>  (238) 
0

>  <ligand_id>  (238) 
82

>  <original_smiles>  (238) 
CC1=CC2CC(O)C3C(C)CCC4CN5CC(O)CC5OC45C2(O)C35C1

>  <smiles>  (238) 
[H]OC1([H])C([H])([H])N2C([H])([H])C3([H])C([H])([H])C([H])([H])C([H])(C([H])([H])[H])C4([H])C([H])(O[H])C([H])([H])C5([H])C([H])=C(C([H])([H])[H])C([H])([H])C46C5(O[H])C36OC2([H])C1([H])[H]

$$$$
82:0:1
     RDKit          3D

 57 62  0  0  1  0  0  0  0  0999 V2000
    5.7404   -1.0536    2.2561 C   0  0  0  0  0  0  0  0  0  0  0  0
    4.7763   -2.1884    1.9874 C   0  0  0  0  0  0  0  0  0  0  0  0
    3.7813   -2.0954    1.0800 C   0  0  0  0  0  0  0  0  0  0  0  0
    2.8058   -3.2461    0.8552 C   0  0  1  0  0  0  0  0  0  0  0  0
    3.2467   -4.0953   -0.3638 C   0  0  0  0  0  0  0  0  0  0  0  0
    4.6584   -4.7551   -0.2428 C   0  0  1  0  0  0  0  0  0  0  0  0
    5.6896   -3.8074   -0.4568 O   0  0  0  0  0  0  0  0  0  0  0  0
    4.7398   -5.4371    1.1352 C   0  0  1  0  0  0  0  0  0  0  0  0
    5.9192   -6.3283    1.6196 C   0  0  1  0  0  0  0  0  0  0  0  0
    7.3078   -5.8197    1.1871 C   0  0  0  0  0  0  0  0  0  0  0  0
    5.8829   -6.6276    3.1568 C   0  0  0  0  0  0  0  0  0  0  0  0
    4.5439   -7.0819    3.8245 C   0  0  0  0  0  0  0  0  0  0  0  0
    3.4422   -6.0089    4.1305 C   0  0  2  0  0  0  0  0  0  0  0  0
    2.2443   -6.6079    4.8888 C   0  0  0  0  0  0  0  0  0  0  0  0
    1.5427   -7.4990    3.9927 N   0  0  0  0  0  0  0  0  0  0  0  0
    0.3636   -8.1755    4.4878 C   0  0  0  0  0  0  0  0  0  0  0  0
   -0.2128   -8.8221    3.2119 C   0  0  1  0  0  0  0  0  0  0  0  0
   -1.6116   -9.0234    3.2797 O   0  0  0  0  0  0  0  0  0  0  0  0
    0.2194   -7.8428    2.0822 C   0  0  0  0  0  0  0  0  0  0  0  0
    1.0754   -6.8009    2.8245 C   0  0  2  0  0  0  0  0  0  0  0  0
    2.1415   -6.3284    2.0573 O   0  0  0  0  0  0  0  0  0  0  0  0
    2.9662   -5.4191    2.8156 C   0  0  1  0  0  0  0  0  0  0  0  0
    2.6745   -4.0453    2.1592 C   0  0  2  0  0  0  0  0  0  0  0  0
    2.2078   -3.2521    3.2344 O   0  0  0  0  0  0  0  0  0  0  0  0
    4.0782   -4.6164    2.2296 C   0  0  2  0  0  0  0  0  0  0  0  0
    4.9752   -3.4854    2.7802 C   0  0  0  0  0  0  0  0  0  0  0  0
    6.7598   -1.3532    2.0203 H   0  0  0  0  0  0  0  0  0  0  0  0
    5.7017   -0.7528    3.3041 H   0  0  0  0  0  0  0  0  0  0  0  0
    5.4992   -0.1836    1.6438 H   0  0  0  0  0  0  0  0  0  0  0  0
    3.6352   -1.2056    0.4796 H   0  0  0  0  0  0  0  0  0  0  0  0
    1.8382   -2.7907    0.6419 H   0  0  0  0  0  0  0  0  0  0  0  0
    2.5166   -4.8965   -0.4957 H   0  0  0  0  0  0  0  0  0  0  0  0
    3.1976   -3.5102   -1.2874 H   0  0  0  0  0  0  0  0  0  0  0  0
    4.7752   -5.5064   -1.0266 H   0  0  0  0  0  0  0  0  0  0  0  0
    5.5915   -3.4654   -1.3287 H   0  0  0  0  0  0  0  0  0  0  0  0
    4.0527   -6.2488    0.9045 H   0  0  0  0  0  0  0  0  0  0  0  0
    5.8063   -7.2920    1.1139 H   0  0  0  0  0  0  0  0  0  0  0  0
    7.5074   -4.8168    1.5608 H   0  0  0  0  0  0  0  0  0  0  0  0
    7.3882   -5.7888    0.1005 H   0  0  0  0  0  0  0  0  0  0  0  0
    8.0999   -6.4770    1.5487 H   0  0  0  0  0  0  0  0  0  0  0  0
    6.5973   -7.4387    3.3164 H   0  0  0  0  0  0  0  0  0  0  0  0
    6.2974   -5.7907    3.7151 H   0  0  0  0  0  0  0  0  0  0  0  0
    4.1198   -7.8975    3.2423 H   0  0  0  0  0  0  0  0  0  0  0  0
    4.8128   -7.5307    4.7839 H   0  0  0  0  0  0  0  0  0  0  0  0
    3.8835   -5.2301    4.7443 H   0  0  0  0  0  0  0  0  0  0  0  0
    2.5843   -7.1381    5.7797 H   0  0  0  0  0  0  0  0  0  0  0  0
    1.5799   -5.8127    5.2261 H   0  0  0  0  0  0  0  0  0  0  0  0
    0.5956   -8.9178    5.2555 H   0  0  0  0  0  0  0  0  0  0  0  0
   -0.3463   -7.4573    4.9060 H   0  0  0  0  0  0  0  0  0  0  0  0
    0.2652   -9.7880    3.0513 H   0  0  0  0  0  0  0  0  0  0  0  0
   -1.7883   -9.7070    3.9258 H   0  0  0  0  0  0  0  0  0  0  0  0
    0.8335   -8.3570    1.3410 H   0  0  0  0  0  0  0  0  0  0  0  0
   -0.6121   -7.3525    1.5792 H   0  0  0  0  0  0  0  0  0  0  0  0
    0.4656   -5.9556    3.1408 H   0  0  0  0  0  0  0  0  0  0  0  0
    2.6711   -2.4256    3.2095 H   0  0  0  0  0  0  0  0  0  0  0  0
    6.0237   -3.7714    2.7655 H   0  0  0  0  0  0  0  0  0  0  0  0
    4.7208   -3.2863    3.8239 H   0  0  0  0  0  0  0  0  0  0  0  0
  1  2  1  0
  1 27  1  0
  1 28  1  0
  1 29  1  0
  2 26  1  0
  2  3  2  0
  3  4  1  0
  3 30  1  0
  4 23  1  0
  4  5  1  0
  4 31  1  6
  5  6  1  0
  5 32  1  0
  5 33  1  0
  6  7  1  0
  6  8  1  0
  6 34  1  6
  7 35  1  0
  8 25  1  0
  8  9  1  0
  8 36  1  6
  9 10  1  0
  9 11  1  0
  9 37  1  6
 10 38  1  0
 10 39  1  0
 10 40  1  0
 11 12  1  0
 11 41  1  0
 11 42  1  0
 12 13  1  0
 12 43  1  0
 12 44  1  0
 13 22  1  0
 13 14  1  0
 13 45  1  1
 14 15  1  0
 14 46  1  0
 14 47  1  0
 15 20  1  0
 15 16  1  0
 16 17  1  0
 16 48  1  0
 16 49  1  0
 17 18  1  0
 17 19  1  0
 17 50  1  6
 18 51  1  0
 19 20  1  0
 19 52  1  0
 19 53  1  0
 20 21  1  0
 20 54  1  1
 22 21  1  6
 22 25  1  0
 22 23  1  0
 23 24  1  6
 23 25  1  0
 24 55  1  0
 25 26  1  1
 26 56  1  0
 26 57  1  0
M  END
>  <i_m_ct_stereo_status>  (239) 
1

>  <s_m_source_file>  (239) 
/var/tmp/pbs.5076255.sched01/tmpzygr1bk5/76dkit4mfj.sdf

>  <i_m_source_file_index>  (239) 
32

>  <i_lp_mmshare_version>  (239) 
48012

>  <i_f3d_flags>  (239) 
0

>  <s_epik_input>  (239) 
W0NIM11DKFtDSDJdMSk9W0NIXVtDQEhdKFtDQEBdMjNbT0hdKVtDSDJdW0NAQEhdKFtPSF0pW0NASF0oW0NAQF0xM1tDQF0yNDUpW0NAQEhdKFtDSDNdKVtDSDJdW0NIMl1bQ0BASF00W0NIMl1ONltDQEBIXShPNSlbQ0gyXVtDQEBIXShbQ0gyXTYpW09IXQ==

>  <s_epik_cmdline>  (239) 
J2VwaWtfcHl0aG9uJywgJy1waHQnLCAnMi4wJywgJy1waCcsICc3LjAnLCAnLXRuJywgJzgnLCAnLW1hJywgJzIwMCcsICctaW1hZScsICc8aW5maWxlLm1hZT4nLCAnLW9tYWUnLCAnPG91dGZpbGUubWFlPic=

>  <r_epik_Ionization_Penalty>  (239) 
0.399526

>  <r_epik_Ionization_Penalty_Charging>  (239) 
0

>  <r_epik_Ionization_Penalty_Neutral>  (239) 
0.399526

>  <r_epik_State_Penalty>  (239) 
0.398784

>  <r_epik_Charging_Adjusted_Penalty>  (239) 
0.398784

>  <i_epik_Tot_Q>  (239) 
0

>  <i_epik_Tot_abs_Q>  (239) 
0

>  <s_epik_Chemistry_Notes>  (239) 
This compound contains an acetal/aminal-like group ( X-CH(R)-Y where X, Y are N, S, or O) that may be acid/base labile, releasing an aldehyde.

>  <s_lp_Force_Field>  (239) 
OPLS3e

>  <r_lp_Energy>  (239) 
94.9686

>  <b_lp_Chiralities_Consistent>  (239) 
1

>  <s_lp_Variant>  (239) 
82:0-1

>  <s_i_glide_gridfile>  (239) 
pfpi4k_grid

>  <i_i_glide_lignum>  (239) 
32

>  <i_i_glide_rotatable_bonds>  (239) 
3

>  <r_i_docking_score>  (239) 
-3.36744

>  <r_i_glide_ligand_efficiency>  (239) 
-0.129517

>  <r_i_glide_ligand_efficiency_sa>  (239) 
-0.383693

>  <r_i_glide_ligand_efficiency_ln>  (239) 
-0.790832

>  <r_i_glide_gscore>  (239) 
-3.36744

>  <r_i_glide_lipo>  (239) 
-0.394024

>  <r_i_glide_hbond>  (239) 
-0.16

>  <r_i_glide_metal>  (239) 
-0

>  <r_i_glide_rewards>  (239) 
-0.944488

>  <r_i_glide_evdw>  (239) 
-25.0769

>  <r_i_glide_ecoul>  (239) 
-3.88019

>  <r_i_glide_erotb>  (239) 
0

>  <r_i_glide_esite>  (239) 
-0.0330506

>  <r_i_glide_emodel>  (239) 
-35.3702

>  <r_i_glide_energy>  (239) 
-28.9571

>  <r_i_glide_einternal>  (239) 
0.714271

>  <r_i_glide_intrahb_reward>  (239) 
-0

>  <i_i_glide_confnum>  (239) 
1

>  <i_i_glide_posenum>  (239) 
4

>  <r_i_glide_eff_state_penalty>  (239) 
0

>  <ligand_id>  (239) 
82

>  <original_smiles>  (239) 
CC1=CC2CC(O)C3C(C)CCC4CN5CC(O)CC5OC45C2(O)C35C1

>  <smiles>  (239) 
[H]OC1([H])C([H])([H])N2C([H])([H])C3([H])C([H])([H])C([H])([H])C([H])(C([H])([H])[H])C4([H])C([H])(O[H])C([H])([H])C5([H])C([H])=C(C([H])([H])[H])C([H])([H])C46C5(O[H])C36OC2([H])C1([H])[H]

$$$$
82:0:2
     RDKit          3D

 57 62  0  0  1  0  0  0  0  0999 V2000
    0.3962  -10.2210    2.8813 C   0  0  0  0  0  0  0  0  0  0  0  0
    0.8609   -8.7850    3.0142 C   0  0  0  0  0  0  0  0  0  0  0  0
    0.1643   -7.8552    3.7016 C   0  0  0  0  0  0  0  0  0  0  0  0
    0.6503   -6.4090    3.8075 C   0  0  1  0  0  0  0  0  0  0  0  0
    1.4183   -6.1910    5.1426 C   0  0  0  0  0  0  0  0  0  0  0  0
    2.6873   -7.0789    5.3334 C   0  0  1  0  0  0  0  0  0  0  0  0
    2.3247   -8.3978    5.6889 O   0  0  0  0  0  0  0  0  0  0  0  0
    3.5171   -7.0082    4.0385 C   0  0  1  0  0  0  0  0  0  0  0  0
    4.9277   -7.6328    3.8525 C   0  0  1  0  0  0  0  0  0  0  0  0
    5.0942   -9.0114    4.5197 C   0  0  0  0  0  0  0  0  0  0  0  0
    5.4015   -7.6666    2.3588 C   0  0  0  0  0  0  0  0  0  0  0  0
    5.2491   -6.3863    1.4742 C   0  0  0  0  0  0  0  0  0  0  0  0
    3.8386   -6.0263    0.8930 C   0  0  2  0  0  0  0  0  0  0  0  0
    3.8909   -4.8069   -0.0408 C   0  0  0  0  0  0  0  0  0  0  0  0
    4.1911   -3.6397    0.7516 N   0  0  0  0  0  0  0  0  0  0  0  0
    4.2616   -2.3685    0.0738 C   0  0  0  0  0  0  0  0  0  0  0  0
    4.3575   -1.3738    1.2462 C   0  0  1  0  0  0  0  0  0  0  0  0
    3.8538   -0.0989    0.9208 O   0  0  0  0  0  0  0  0  0  0  0  0
    3.5603   -2.0706    2.3829 C   0  0  0  0  0  0  0  0  0  0  0  0
    3.1851   -3.4285    1.7619 C   0  0  2  0  0  0  0  0  0  0  0  0
    3.1791   -4.4746    2.6861 O   0  0  0  0  0  0  0  0  0  0  0  0
    2.8978   -5.7382    2.0483 C   0  0  1  0  0  0  0  0  0  0  0  0
    1.4715   -6.0862    2.5477 C   0  0  2  0  0  0  0  0  0  0  0  0
    0.7229   -6.2462    1.3484 O   0  0  0  0  0  0  0  0  0  0  0  0
    2.6532   -7.0053    2.7891 C   0  0  2  0  0  0  0  0  0  0  0  0
    2.1958   -8.4168    2.3558 C   0  0  0  0  0  0  0  0  0  0  0  0
    1.1152  -10.9097    3.3269 H   0  0  0  0  0  0  0  0  0  0  0  0
    0.2695  -10.4990    1.8353 H   0  0  0  0  0  0  0  0  0  0  0  0
   -0.5652  -10.3616    3.3800 H   0  0  0  0  0  0  0  0  0  0  0  0
   -0.7538   -8.1080    4.2149 H   0  0  0  0  0  0  0  0  0  0  0  0
   -0.2258   -5.7628    3.7998 H   0  0  0  0  0  0  0  0  0  0  0  0
    1.7342   -5.1474    5.1830 H   0  0  0  0  0  0  0  0  0  0  0  0
    0.7545   -6.3323    5.9986 H   0  0  0  0  0  0  0  0  0  0  0  0
    3.2781   -6.6966    6.1667 H   0  0  0  0  0  0  0  0  0  0  0  0
    3.1098   -8.9183    5.7604 H   0  0  0  0  0  0  0  0  0  0  0  0
    3.8526   -5.9836    4.1765 H   0  0  0  0  0  0  0  0  0  0  0  0
    5.6289   -6.9828    4.3834 H   0  0  0  0  0  0  0  0  0  0  0  0
    4.3840   -9.7398    4.1307 H   0  0  0  0  0  0  0  0  0  0  0  0
    4.9569   -8.9470    5.5992 H   0  0  0  0  0  0  0  0  0  0  0  0
    6.0968   -9.4074    4.3542 H   0  0  0  0  0  0  0  0  0  0  0  0
    6.4699   -7.8907    2.3922 H   0  0  0  0  0  0  0  0  0  0  0  0
    4.9640   -8.5188    1.8418 H   0  0  0  0  0  0  0  0  0  0  0  0
    5.6610   -5.5341    2.0118 H   0  0  0  0  0  0  0  0  0  0  0  0
    5.9079   -6.5238    0.6136 H   0  0  0  0  0  0  0  0  0  0  0  0
    3.4808   -6.8811    0.3311 H   0  0  0  0  0  0  0  0  0  0  0  0
    4.6427   -4.9581   -0.8190 H   0  0  0  0  0  0  0  0  0  0  0  0
    2.9332   -4.6815   -0.5482 H   0  0  0  0  0  0  0  0  0  0  0  0
    5.1255   -2.3011   -0.5905 H   0  0  0  0  0  0  0  0  0  0  0  0
    3.3572   -2.1825   -0.5127 H   0  0  0  0  0  0  0  0  0  0  0  0
    5.3995   -1.2739    1.5503 H   0  0  0  0  0  0  0  0  0  0  0  0
    4.3712    0.2664    0.2217 H   0  0  0  0  0  0  0  0  0  0  0  0
    4.1870   -2.2210    3.2635 H   0  0  0  0  0  0  0  0  0  0  0  0
    2.6531   -1.5426    2.6725 H   0  0  0  0  0  0  0  0  0  0  0  0
    2.2068   -3.3668    1.2832 H   0  0  0  0  0  0  0  0  0  0  0  0
    0.5651   -7.1802    1.2186 H   0  0  0  0  0  0  0  0  0  0  0  0
    2.9446   -9.1692    2.5915 H   0  0  0  0  0  0  0  0  0  0  0  0
    2.0551   -8.4487    1.2733 H   0  0  0  0  0  0  0  0  0  0  0  0
  1  2  1  0
  1 27  1  0
  1 28  1  0
  1 29  1  0
  2 26  1  0
  2  3  2  0
  3  4  1  0
  3 30  1  0
  4 23  1  0
  4  5  1  0
  4 31  1  1
  5  6  1  0
  5 32  1  0
  5 33  1  0
  6  7  1  0
  6  8  1  0
  6 34  1  1
  7 35  1  0
  8 25  1  0
  8  9  1  0
  8 36  1  1
  9 10  1  0
  9 11  1  0
  9 37  1  1
 10 38  1  0
 10 39  1  0
 10 40  1  0
 11 12  1  0
 11 41  1  0
 11 42  1  0
 12 13  1  0
 12 43  1  0
 12 44  1  0
 13 22  1  0
 13 14  1  0
 13 45  1  6
 14 15  1  0
 14 46  1  0
 14 47  1  0
 15 20  1  0
 15 16  1  0
 16 17  1  0
 16 48  1  0
 16 49  1  0
 17 18  1  0
 17 19  1  0
 17 50  1  1
 18 51  1  0
 19 20  1  0
 19 52  1  0
 19 53  1  0
 20 21  1  0
 20 54  1  6
 22 21  1  1
 22 25  1  0
 22 23  1  0
 23 24  1  1
 23 25  1  0
 24 55  1  0
 25 26  1  6
 26 56  1  0
 26 57  1  0
M  END
>  <i_m_ct_stereo_status>  (240) 
1

>  <s_m_source_file>  (240) 
/var/tmp/pbs.5076255.sched01/tmpzygr1bk5/76dkit4mfj.sdf

>  <i_m_source_file_index>  (240) 
32

>  <i_lp_mmshare_version>  (240) 
48012

>  <i_f3d_flags>  (240) 
0

>  <s_epik_input>  (240) 
W0NIM11DKFtDSDJdMSk9W0NIXVtDQEhdKFtDQEBdMjNbT0hdKVtDSDJdW0NAQEhdKFtPSF0pW0NASF0oW0NAQF0xM1tDQF0yNDUpW0NAQEhdKFtDSDNdKVtDSDJdW0NIMl1bQ0BASF00W0NIMl1ONltDQEBIXShPNSlbQ0gyXVtDQEBIXShbQ0gyXTYpW09IXQ==

>  <s_epik_cmdline>  (240) 
J2VwaWtfcHl0aG9uJywgJy1waHQnLCAnMi4wJywgJy1waCcsICc3LjAnLCAnLXRuJywgJzgnLCAnLW1hJywgJzIwMCcsICctaW1hZScsICc8aW5maWxlLm1hZT4nLCAnLW9tYWUnLCAnPG91dGZpbGUubWFlPic=

>  <r_epik_Ionization_Penalty>  (240) 
0.399526

>  <r_epik_Ionization_Penalty_Charging>  (240) 
0

>  <r_epik_Ionization_Penalty_Neutral>  (240) 
0.399526

>  <r_epik_State_Penalty>  (240) 
0.398784

>  <r_epik_Charging_Adjusted_Penalty>  (240) 
0.398784

>  <i_epik_Tot_Q>  (240) 
0

>  <i_epik_Tot_abs_Q>  (240) 
0

>  <s_epik_Chemistry_Notes>  (240) 
This compound contains an acetal/aminal-like group ( X-CH(R)-Y where X, Y are N, S, or O) that may be acid/base labile, releasing an aldehyde.

>  <s_lp_Force_Field>  (240) 
OPLS3e

>  <r_lp_Energy>  (240) 
94.9686

>  <b_lp_Chiralities_Consistent>  (240) 
1

>  <s_lp_Variant>  (240) 
82:0-1

>  <s_i_glide_gridfile>  (240) 
pfpi4k_grid

>  <i_i_glide_lignum>  (240) 
32

>  <i_i_glide_rotatable_bonds>  (240) 
3

>  <r_i_docking_score>  (240) 
-3.10529

>  <r_i_glide_ligand_efficiency>  (240) 
-0.119434

>  <r_i_glide_ligand_efficiency_sa>  (240) 
-0.353824

>  <r_i_glide_ligand_efficiency_ln>  (240) 
-0.729268

>  <r_i_glide_gscore>  (240) 
-3.10529

>  <r_i_glide_lipo>  (240) 
-0.217078

>  <r_i_glide_hbond>  (240) 
0

>  <r_i_glide_metal>  (240) 
-0

>  <r_i_glide_rewards>  (240) 
-0.946208

>  <r_i_glide_evdw>  (240) 
-23.3937

>  <r_i_glide_ecoul>  (240) 
-5.14882

>  <r_i_glide_erotb>  (240) 
0

>  <r_i_glide_esite>  (240) 
0

>  <r_i_glide_emodel>  (240) 
-34.4003

>  <r_i_glide_energy>  (240) 
-28.5425

>  <r_i_glide_einternal>  (240) 
0.761446

>  <r_i_glide_intrahb_reward>  (240) 
-0

>  <i_i_glide_confnum>  (240) 
1

>  <i_i_glide_posenum>  (240) 
23

>  <r_i_glide_eff_state_penalty>  (240) 
0

>  <ligand_id>  (240) 
82

>  <original_smiles>  (240) 
CC1=CC2CC(O)C3C(C)CCC4CN5CC(O)CC5OC45C2(O)C35C1

>  <smiles>  (240) 
[H]OC1([H])C([H])([H])N2C([H])([H])C3([H])C([H])([H])C([H])([H])C([H])(C([H])([H])[H])C4([H])C([H])(O[H])C([H])([H])C5([H])C([H])=C(C([H])([H])[H])C([H])([H])C46C5(O[H])C36OC2([H])C1([H])[H]

$$$$
82:1:0
     RDKit          3D

 58 63  0  0  1  0  0  0  0  0999 V2000
    5.2443   -0.6879    2.4375 C   0  0  0  0  0  0  0  0  0  0  0  0
    4.6753   -2.0390    2.0503 C   0  0  0  0  0  0  0  0  0  0  0  0
    3.5797   -2.1798    1.2750 C   0  0  0  0  0  0  0  0  0  0  0  0
    3.0323   -3.5629    0.9314 C   0  0  1  0  0  0  0  0  0  0  0  0
    3.5479   -4.0030   -0.4674 C   0  0  0  0  0  0  0  0  0  0  0  0
    5.0975   -4.1236   -0.6003 C   0  0  1  0  0  0  0  0  0  0  0  0
    5.6943   -2.8462   -0.7213 O   0  0  0  0  0  0  0  0  0  0  0  0
    5.6210   -4.9231    0.6075 C   0  0  1  0  0  0  0  0  0  0  0  0
    7.0915   -5.3801    0.8050 C   0  0  1  0  0  0  0  0  0  0  0  0
    8.1378   -4.3544    0.3427 C   0  0  0  0  0  0  0  0  0  0  0  0
    7.4045   -5.8933    2.2446 C   0  0  0  0  0  0  0  0  0  0  0  0
    6.4320   -6.9048    2.9383 C   0  0  0  0  0  0  0  0  0  0  0  0
    5.0771   -6.3967    3.5443 C   0  0  2  0  0  0  0  0  0  0  0  0
    4.3170   -7.5171    4.2883 C   0  0  0  0  0  0  0  0  0  0  0  0
    3.7368   -8.4396    3.3024 N   0  0  1  0  0  0  0  0  0  0  0  0
    2.9479   -9.5529    3.8070 C   0  0  0  0  0  0  0  0  0  0  0  0
    2.2167  -10.0402    2.5562 C   0  0  1  0  0  0  0  0  0  0  0  0
    0.8411  -10.2742    2.7958 O   0  0  0  0  0  0  0  0  0  0  0  0
    2.3726   -8.9001    1.5223 C   0  0  0  0  0  0  0  0  0  0  0  0
    2.8193   -7.6551    2.2979 C   0  0  2  0  0  0  0  0  0  0  0  0
    3.6516   -6.8143    1.5764 O   0  0  0  0  0  0  0  0  0  0  0  0
    4.2247   -5.7989    2.4112 C   0  0  1  0  0  0  0  0  0  0  0  0
    3.4018   -4.5418    2.0799 C   0  0  2  0  0  0  0  0  0  0  0  0
    2.8792   -4.1420    3.3268 O   0  0  0  0  0  0  0  0  0  0  0  0
    4.8912   -4.5696    1.8948 C   0  0  2  0  0  0  0  0  0  0  0  0
    5.4169   -3.2776    2.5590 C   0  0  0  0  0  0  0  0  0  0  0  0
    6.2623   -0.5736    2.0634 H   0  0  0  0  0  0  0  0  0  0  0  0
    5.2674   -0.5726    3.5218 H   0  0  0  0  0  0  0  0  0  0  0  0
    4.6394    0.1207    2.0266 H   0  0  0  0  0  0  0  0  0  0  0  0
    3.0561   -1.3307    0.8624 H   0  0  0  0  0  0  0  0  0  0  0  0
    1.9515   -3.4779    0.9107 H   0  0  0  0  0  0  0  0  0  0  0  0
    3.1212   -4.9842   -0.6722 H   0  0  0  0  0  0  0  0  0  0  0  0
    3.1648   -3.3464   -1.2491 H   0  0  0  0  0  0  0  0  0  0  0  0
    5.3348   -4.6627   -1.5193 H   0  0  0  0  0  0  0  0  0  0  0  0
    5.4474   -2.3521    0.0439 H   0  0  0  0  0  0  0  0  0  0  0  0
    5.2247   -5.8822    0.2982 H   0  0  0  0  0  0  0  0  0  0  0  0
    7.2362   -6.2359    0.1442 H   0  0  0  0  0  0  0  0  0  0  0  0
    8.0522   -3.4074    0.8704 H   0  0  0  0  0  0  0  0  0  0  0  0
    8.0311   -4.1438   -0.7199 H   0  0  0  0  0  0  0  0  0  0  0  0
    9.1464   -4.7380    0.4865 H   0  0  0  0  0  0  0  0  0  0  0  0
    8.3707   -6.3949    2.1828 H   0  0  0  0  0  0  0  0  0  0  0  0
    7.5812   -5.0585    2.9011 H   0  0  0  0  0  0  0  0  0  0  0  0
    6.2563   -7.7507    2.2704 H   0  0  0  0  0  0  0  0  0  0  0  0
    6.9906   -7.3101    3.7794 H   0  0  0  0  0  0  0  0  0  0  0  0
    5.2972   -5.6024    4.2603 H   0  0  0  0  0  0  0  0  0  0  0  0
    4.9771   -8.0224    4.9889 H   0  0  0  0  0  0  0  0  0  0  0  0
    3.5129   -7.0741    4.8735 H   0  0  0  0  0  0  0  0  0  0  0  0
    3.5117  -10.3556    4.2822 H   0  0  0  0  0  0  0  0  0  0  0  0
    2.2119   -9.1970    4.5290 H   0  0  0  0  0  0  0  0  0  0  0  0
    2.6625  -10.9594    2.1633 H   0  0  0  0  0  0  0  0  0  0  0  0
    0.4400  -10.6014    2.0004 H   0  0  0  0  0  0  0  0  0  0  0  0
    3.1313   -9.1779    0.7809 H   0  0  0  0  0  0  0  0  0  0  0  0
    1.4503   -8.6595    0.9909 H   0  0  0  0  0  0  0  0  0  0  0  0
    1.9982   -7.1333    2.8044 H   0  0  0  0  0  0  0  0  0  0  0  0
    3.1017   -3.2371    3.4491 H   0  0  0  0  0  0  0  0  0  0  0  0
    6.4753   -3.1612    2.3587 H   0  0  0  0  0  0  0  0  0  0  0  0
    5.2918   -3.3393    3.6400 H   0  0  0  0  0  0  0  0  0  0  0  0
    4.5124   -8.8621    2.7986 H   0  0  0  0  0  0  0  0  0  0  0  0
  1  2  1  0
  1 27  1  0
  1 28  1  0
  1 29  1  0
  2 26  1  0
  2  3  2  0
  3  4  1  0
  3 30  1  0
  4 23  1  0
  4  5  1  0
  4 31  1  6
  5  6  1  0
  5 32  1  0
  5 33  1  0
  6  7  1  0
  6  8  1  0
  6 34  1  6
  7 35  1  0
  8 25  1  0
  8  9  1  0
  8 36  1  6
  9 10  1  0
  9 11  1  0
  9 37  1  6
 10 38  1  0
 10 39  1  0
 10 40  1  0
 11 12  1  0
 11 41  1  0
 11 42  1  0
 12 13  1  0
 12 43  1  0
 12 44  1  0
 13 22  1  0
 13 14  1  0
 13 45  1  1
 14 15  1  0
 14 46  1  0
 14 47  1  0
 15 20  1  0
 15 16  1  0
 15 58  1  6
 16 17  1  0
 16 48  1  0
 16 49  1  0
 17 18  1  0
 17 19  1  0
 17 50  1  6
 18 51  1  0
 19 20  1  0
 19 52  1  0
 19 53  1  0
 20 21  1  0
 20 54  1  1
 22 21  1  6
 22 25  1  0
 22 23  1  0
 23 24  1  6
 23 25  1  0
 24 55  1  0
 25 26  1  1
 26 56  1  0
 26 57  1  0
M  CHG  1  15   1
M  END
>  <i_m_ct_stereo_status>  (241) 
1

>  <s_m_source_file>  (241) 
/var/tmp/pbs.5076255.sched01/tmpzygr1bk5/76dkit4mfj.sdf

>  <i_m_source_file_index>  (241) 
33

>  <i_lp_mmshare_version>  (241) 
48012

>  <i_f3d_flags>  (241) 
0

>  <s_epik_input>  (241) 
W0NIM11DKFtDSDJdMSk9W0NIXVtDQEhdKFtDQEBdMjNbT0hdKVtDSDJdW0NAQEhdKFtPSF0pW0NASF0oW0NAQF0xM1tDQF0yNDUpW0NAQEhdKFtDSDNdKVtDSDJdW0NIMl1bQ0BASF00W0NIMl1ONltDQEBIXShPNSlbQ0gyXVtDQEBIXShbQ0gyXTYpW09IXQ==

>  <s_epik_cmdline>  (241) 
J2VwaWtfcHl0aG9uJywgJy1waHQnLCAnMi4wJywgJy1waCcsICc3LjAnLCAnLXRuJywgJzgnLCAnLW1hJywgJzIwMCcsICctaW1hZScsICc8aW5maWxlLm1hZT4nLCAnLW9tYWUnLCAnPG91dGZpbGUubWFlPic=

>  <r_epik_Ionization_Penalty>  (241) 
0.422049

>  <r_epik_Ionization_Penalty_Charging>  (241) 
0.422049

>  <r_epik_Ionization_Penalty_Neutral>  (241) 
5.78607e-07

>  <r_epik_State_Penalty>  (241) 
0.422819

>  <r_epik_Charging_Adjusted_Penalty>  (241) 
0.844868

>  <i_epik_Tot_Q>  (241) 
1

>  <i_epik_Tot_abs_Q>  (241) 
1

>  <s_epik_Chemistry_Notes>  (241) 
This compound contains an acetal/aminal-like group ( X-CH(R)-Y where X, Y are N, S, or O) that may be acid/base labile, releasing an aldehyde.

>  <s_lp_Force_Field>  (241) 
OPLS3e

>  <r_lp_Energy>  (241) 
91.4301

>  <b_lp_Chiralities_Consistent>  (241) 
1

>  <s_lp_Variant>  (241) 
82:0-2

>  <s_i_glide_gridfile>  (241) 
pfpi4k_grid

>  <i_i_glide_lignum>  (241) 
33

>  <i_i_glide_rotatable_bonds>  (241) 
3

>  <r_i_docking_score>  (241) 
-3.44435

>  <r_i_glide_ligand_efficiency>  (241) 
-0.132475

>  <r_i_glide_ligand_efficiency_sa>  (241) 
-0.392457

>  <r_i_glide_ligand_efficiency_ln>  (241) 
-0.808895

>  <r_i_glide_gscore>  (241) 
-3.44435

>  <r_i_glide_lipo>  (241) 
-0.719795

>  <r_i_glide_hbond>  (241) 
0

>  <r_i_glide_metal>  (241) 
-0

>  <r_i_glide_rewards>  (241) 
-0.937615

>  <r_i_glide_evdw>  (241) 
-23.2734

>  <r_i_glide_ecoul>  (241) 
-4.11455

>  <r_i_glide_erotb>  (241) 
0

>  <r_i_glide_esite>  (241) 
-0.00608927

>  <r_i_glide_emodel>  (241) 
-33.6995

>  <r_i_glide_energy>  (241) 
-27.3879

>  <r_i_glide_einternal>  (241) 
0.342173

>  <r_i_glide_intrahb_reward>  (241) 
-0

>  <i_i_glide_confnum>  (241) 
1

>  <i_i_glide_posenum>  (241) 
28

>  <r_i_glide_eff_state_penalty>  (241) 
0

>  <ligand_id>  (241) 
82

>  <original_smiles>  (241) 
CC1=CC2CC(O)C3C(C)CCC4CN5CC(O)CC5OC45C2(O)C35C1

>  <smiles>  (241) 
[H]OC1([H])C([H])([H])C2([H])C([H])=C(C([H])([H])[H])C([H])([H])C34C1([H])C([H])(C([H])([H])[H])C([H])([H])C([H])([H])C1([H])C3(OC3([H])C([H])([H])C([H])(O[H])C([H])([H])[N+]3([H])C1([H])[H])C24O[H]

$$$$
82:1:1
     RDKit          3D

 58 63  0  0  1  0  0  0  0  0999 V2000
    2.8201   -1.9455   -2.8710 C   0  0  0  0  0  0  0  0  0  0  0  0
    3.0306   -2.4777   -1.4736 C   0  0  0  0  0  0  0  0  0  0  0  0
    2.3941   -3.5769   -0.9905 C   0  0  0  0  0  0  0  0  0  0  0  0
    2.6319   -4.0740    0.4351 C   0  0  1  0  0  0  0  0  0  0  0  0
    3.7160   -5.1833    0.4708 C   0  0  0  0  0  0  0  0  0  0  0  0
    5.0951   -4.7301   -0.0861 C   0  0  1  0  0  0  0  0  0  0  0  0
    5.0109   -4.5903   -1.4930 O   0  0  0  0  0  0  0  0  0  0  0  0
    5.4818   -3.4175    0.6064 C   0  0  1  0  0  0  0  0  0  0  0  0
    6.8344   -2.6871    0.4544 C   0  0  1  0  0  0  0  0  0  0  0  0
    7.4641   -2.7742   -0.9452 C   0  0  0  0  0  0  0  0  0  0  0  0
    6.7794   -1.2068    0.9484 C   0  0  0  0  0  0  0  0  0  0  0  0
    6.1333   -0.8882    2.3454 C   0  0  0  0  0  0  0  0  0  0  0  0
    4.5897   -0.8289    2.5156 C   0  0  2  0  0  0  0  0  0  0  0  0
    4.1879   -0.3936    3.9483 C   0  0  0  0  0  0  0  0  0  0  0  0
    4.4217   -1.4982    4.8902 N   0  0  1  0  0  0  0  0  0  0  0  0
    4.0526   -1.3055    6.2875 C   0  0  0  0  0  0  0  0  0  0  0  0
    4.0691   -2.7315    6.8519 C   0  0  1  0  0  0  0  0  0  0  0  0
    2.9259   -2.9771    7.6458 O   0  0  0  0  0  0  0  0  0  0  0  0
    4.0710   -3.6636    5.6187 C   0  0  0  0  0  0  0  0  0  0  0  0
    3.6680   -2.7962    4.4051 C   0  0  2  0  0  0  0  0  0  0  0  0
    4.2647   -3.1827    3.2250 O   0  0  0  0  0  0  0  0  0  0  0  0
    4.0307   -2.2136    2.1731 C   0  0  1  0  0  0  0  0  0  0  0  0
    2.9482   -2.8281    1.2861 C   0  0  0  0  0  0  0  0  0  0  0  0
    1.9055   -1.8593    1.2952 O   0  0  0  0  0  0  0  0  0  0  0  0
    4.2919   -2.4772    0.7229 C   0  0  2  0  0  0  0  0  0  0  0  0
    3.9960   -1.6918   -0.5812 C   0  0  0  0  0  0  0  0  0  0  0  0
    3.7498   -1.9218   -3.4381 H   0  0  0  0  0  0  0  0  0  0  0  0
    2.4320   -0.9268   -2.8050 H   0  0  0  0  0  0  0  0  0  0  0  0
    2.0913   -2.5509   -3.4092 H   0  0  0  0  0  0  0  0  0  0  0  0
    1.7442   -4.1597   -1.6214 H   0  0  0  0  0  0  0  0  0  0  0  0
    1.7330   -4.5348    0.8143 H   0  0  0  0  0  0  0  0  0  0  0  0
    3.8284   -5.5201    1.5045 H   0  0  0  0  0  0  0  0  0  0  0  0
    3.3803   -6.0539   -0.0894 H   0  0  0  0  0  0  0  0  0  0  0  0
    5.8342   -5.5006    0.1401 H   0  0  0  0  0  0  0  0  0  0  0  0
    4.4612   -5.2899   -1.8267 H   0  0  0  0  0  0  0  0  0  0  0  0
    5.6509   -3.8219    1.6005 H   0  0  0  0  0  0  0  0  0  0  0  0
    7.5334   -3.2182    1.1101 H   0  0  0  0  0  0  0  0  0  0  0  0
    6.8154   -2.3369   -1.7023 H   0  0  0  0  0  0  0  0  0  0  0  0
    7.6452   -3.8116   -1.2191 H   0  0  0  0  0  0  0  0  0  0  0  0
    8.4268   -2.2589   -0.9770 H   0  0  0  0  0  0  0  0  0  0  0  0
    7.8252   -0.9318    1.0445 H   0  0  0  0  0  0  0  0  0  0  0  0
    6.3810   -0.5341    0.1896 H   0  0  0  0  0  0  0  0  0  0  0  0
    6.4998   -1.6336    3.0334 H   0  0  0  0  0  0  0  0  0  0  0  0
    6.4872    0.0763    2.7115 H   0  0  0  0  0  0  0  0  0  0  0  0
    4.1906   -0.0857    1.8195 H   0  0  0  0  0  0  0  0  0  0  0  0
    4.7335    0.5035    4.2573 H   0  0  0  0  0  0  0  0  0  0  0  0
    3.1242   -0.1488    3.9637 H   0  0  0  0  0  0  0  0  0  0  0  0
    4.7170   -0.6368    6.8466 H   0  0  0  0  0  0  0  0  0  0  0  0
    3.0377   -0.9009    6.3440 H   0  0  0  0  0  0  0  0  0  0  0  0
    4.9619   -2.9038    7.4604 H   0  0  0  0  0  0  0  0  0  0  0  0
    3.0282   -3.8266    8.0501 H   0  0  0  0  0  0  0  0  0  0  0  0
    5.0746   -4.0648    5.4525 H   0  0  0  0  0  0  0  0  0  0  0  0
    3.3811   -4.5109    5.7166 H   0  0  0  0  0  0  0  0  0  0  0  0
    2.5924   -2.6500    4.3124 H   0  0  0  0  0  0  0  0  0  0  0  0
    1.6666   -1.5850    0.3913 H   0  0  0  0  0  0  0  0  0  0  0  0
    4.9077   -1.4657   -1.1235 H   0  0  0  0  0  0  0  0  0  0  0  0
    3.5254   -0.7365   -0.3216 H   0  0  0  0  0  0  0  0  0  0  0  0
    5.4122   -1.6977    4.8862 H   0  0  0  0  0  0  0  0  0  0  0  0
  1  2  1  0
  1 27  1  0
  1 28  1  0
  1 29  1  0
  2 26  1  0
  2  3  2  0
  3  4  1  0
  3 30  1  0
  4 23  1  0
  4  5  1  0
  4 31  1  1
  5  6  1  0
  5 32  1  0
  5 33  1  0
  6  7  1  0
  6  8  1  0
  6 34  1  6
  7 35  1  0
  8 25  1  0
  8  9  1  0
  8 36  1  1
  9 10  1  0
  9 11  1  0
  9 37  1  1
 10 38  1  0
 10 39  1  0
 10 40  1  0
 11 12  1  0
 11 41  1  0
 11 42  1  0
 12 13  1  0
 12 43  1  0
 12 44  1  0
 13 22  1  0
 13 14  1  0
 13 45  1  6
 14 15  1  0
 14 46  1  0
 14 47  1  0
 15 20  1  0
 15 16  1  0
 15 58  1  1
 16 17  1  0
 16 48  1  0
 16 49  1  0
 17 18  1  0
 17 19  1  0
 17 50  1  1
 18 51  1  0
 19 20  1  0
 19 52  1  0
 19 53  1  0
 20 21  1  0
 20 54  1  6
 22 21  1  1
 22 25  1  0
 22 23  1  0
 23 24  1  0
 23 25  1  0
 24 55  1  0
 25 26  1  6
 26 56  1  0
 26 57  1  0
M  CHG  1  15   1
M  END
>  <i_m_ct_stereo_status>  (242) 
1

>  <s_m_source_file>  (242) 
/var/tmp/pbs.5076255.sched01/tmpzygr1bk5/76dkit4mfj.sdf

>  <i_m_source_file_index>  (242) 
33

>  <i_lp_mmshare_version>  (242) 
48012

>  <i_f3d_flags>  (242) 
0

>  <s_epik_input>  (242) 
W0NIM11DKFtDSDJdMSk9W0NIXVtDQEhdKFtDQEBdMjNbT0hdKVtDSDJdW0NAQEhdKFtPSF0pW0NASF0oW0NAQF0xM1tDQF0yNDUpW0NAQEhdKFtDSDNdKVtDSDJdW0NIMl1bQ0BASF00W0NIMl1ONltDQEBIXShPNSlbQ0gyXVtDQEBIXShbQ0gyXTYpW09IXQ==

>  <s_epik_cmdline>  (242) 
J2VwaWtfcHl0aG9uJywgJy1waHQnLCAnMi4wJywgJy1waCcsICc3LjAnLCAnLXRuJywgJzgnLCAnLW1hJywgJzIwMCcsICctaW1hZScsICc8aW5maWxlLm1hZT4nLCAnLW9tYWUnLCAnPG91dGZpbGUubWFlPic=

>  <r_epik_Ionization_Penalty>  (242) 
0.422049

>  <r_epik_Ionization_Penalty_Charging>  (242) 
0.422049

>  <r_epik_Ionization_Penalty_Neutral>  (242) 
5.78607e-07

>  <r_epik_State_Penalty>  (242) 
0.422819

>  <r_epik_Charging_Adjusted_Penalty>  (242) 
0.844868

>  <i_epik_Tot_Q>  (242) 
1

>  <i_epik_Tot_abs_Q>  (242) 
1

>  <s_epik_Chemistry_Notes>  (242) 
This compound contains an acetal/aminal-like group ( X-CH(R)-Y where X, Y are N, S, or O) that may be acid/base labile, releasing an aldehyde.

>  <s_lp_Force_Field>  (242) 
OPLS3e

>  <r_lp_Energy>  (242) 
91.4301

>  <b_lp_Chiralities_Consistent>  (242) 
1

>  <s_lp_Variant>  (242) 
82:0-2

>  <s_i_glide_gridfile>  (242) 
pfpi4k_grid

>  <i_i_glide_lignum>  (242) 
33

>  <i_i_glide_rotatable_bonds>  (242) 
3

>  <r_i_docking_score>  (242) 
-3.387

>  <r_i_glide_ligand_efficiency>  (242) 
-0.130269

>  <r_i_glide_ligand_efficiency_sa>  (242) 
-0.385922

>  <r_i_glide_ligand_efficiency_ln>  (242) 
-0.795426

>  <r_i_glide_gscore>  (242) 
-3.387

>  <r_i_glide_lipo>  (242) 
-0.354764

>  <r_i_glide_hbond>  (242) 
-0.304

>  <r_i_glide_metal>  (242) 
-0

>  <r_i_glide_rewards>  (242) 
-0.937615

>  <r_i_glide_evdw>  (242) 
-13.5288

>  <r_i_glide_ecoul>  (242) 
-7.42788

>  <r_i_glide_erotb>  (242) 
0

>  <r_i_glide_esite>  (242) 
0

>  <r_i_glide_emodel>  (242) 
-26.4844

>  <r_i_glide_energy>  (242) 
-20.9567

>  <r_i_glide_einternal>  (242) 
1.29808

>  <r_i_glide_intrahb_reward>  (242) 
-0

>  <i_i_glide_confnum>  (242) 
2

>  <i_i_glide_posenum>  (242) 
21

>  <r_i_glide_eff_state_penalty>  (242) 
0

>  <ligand_id>  (242) 
82

>  <original_smiles>  (242) 
CC1=CC2CC(O)C3C(C)CCC4CN5CC(O)CC5OC45C2(O)C35C1

>  <smiles>  (242) 
[H]OC1([H])C([H])([H])C2([H])C([H])=C(C([H])([H])[H])C([H])([H])C34C1([H])C([H])(C([H])([H])[H])C([H])([H])C([H])([H])C1([H])C3(OC3([H])C([H])([H])C([H])(O[H])C([H])([H])[N+]3([H])C1([H])[H])C24O[H]

$$$$
82:1:2
     RDKit          3D

 58 63  0  0  1  0  0  0  0  0999 V2000
    5.1252   -0.7456    2.5144 C   0  0  0  0  0  0  0  0  0  0  0  0
    4.5741   -2.1133    2.1554 C   0  0  0  0  0  0  0  0  0  0  0  0
    3.4423   -2.2809    1.4387 C   0  0  0  0  0  0  0  0  0  0  0  0
    2.9112   -3.6782    1.1213 C   0  0  1  0  0  0  0  0  0  0  0  0
    3.3611   -4.1069   -0.3066 C   0  0  0  0  0  0  0  0  0  0  0  0
    4.9056   -4.1910   -0.5145 C   0  0  1  0  0  0  0  0  0  0  0  0
    5.4692   -2.9005   -0.6695 O   0  0  0  0  0  0  0  0  0  0  0  0
    5.5096   -4.9748    0.6601 C   0  0  1  0  0  0  0  0  0  0  0  0
    7.0000   -5.3918    0.7892 C   0  0  1  0  0  0  0  0  0  0  0  0
    7.9946   -4.3381    0.2783 C   0  0  0  0  0  0  0  0  0  0  0  0
    7.3962   -5.8997    2.2120 C   0  0  0  0  0  0  0  0  0  0  0  0
    6.4841   -6.9328    2.9506 C   0  0  0  0  0  0  0  0  0  0  0  0
    5.1494   -6.4563    3.6220 C   0  0  2  0  0  0  0  0  0  0  0  0
    4.4573   -7.5913    4.4013 C   0  0  0  0  0  0  0  0  0  0  0  0
    3.8497   -8.5302    3.4488 N   0  0  1  0  0  0  0  0  0  0  0  0
    3.1232   -9.6650    3.9931 C   0  0  0  0  0  0  0  0  0  0  0  0
    2.3401  -10.1828    2.7875 C   0  0  1  0  0  0  0  0  0  0  0  0
    0.9945  -10.4667    3.1246 O   0  0  0  0  0  0  0  0  0  0  0  0
    2.4040   -9.0402    1.7408 C   0  0  0  0  0  0  0  0  0  0  0  0
    2.8595   -7.7723    2.4878 C   0  0  2  0  0  0  0  0  0  0  0  0
    3.6362   -6.9106    1.7274 O   0  0  0  0  0  0  0  0  0  0  0  0
    4.2305   -5.8813    2.5355 C   0  0  1  0  0  0  0  0  0  0  0  0
    3.3647   -4.6429    2.2434 C   0  0  2  0  0  0  0  0  0  0  0  0
    2.8965   -4.2557    3.5198 O   0  0  0  0  0  0  0  0  0  0  0  0
    4.8443   -4.6362    1.9853 C   0  0  2  0  0  0  0  0  0  0  0  0
    5.3787   -3.3321    2.6202 C   0  0  0  0  0  0  0  0  0  0  0  0
    6.1195   -0.6048    2.0885 H   0  0  0  0  0  0  0  0  0  0  0  0
    5.1976   -0.6294    3.5960 H   0  0  0  0  0  0  0  0  0  0  0  0
    4.4786    0.0452    2.1338 H   0  0  0  0  0  0  0  0  0  0  0  0
    2.8782   -1.4456    1.0531 H   0  0  0  0  0  0  0  0  0  0  0  0
    1.8278   -3.6188    1.1588 H   0  0  0  0  0  0  0  0  0  0  0  0
    2.9423   -5.0964   -0.4806 H   0  0  0  0  0  0  0  0  0  0  0  0
    2.9175   -3.4639   -1.0650 H   0  0  0  0  0  0  0  0  0  0  0  0
    5.1026   -4.7227   -1.4491 H   0  0  0  0  0  0  0  0  0  0  0  0
    4.9729   -2.4475   -1.3238 H   0  0  0  0  0  0  0  0  0  0  0  0
    5.1215   -5.9427    0.3737 H   0  0  0  0  0  0  0  0  0  0  0  0
    7.1323   -6.2469    0.1153 H   0  0  0  0  0  0  0  0  0  0  0  0
    7.9125   -3.3937    0.8120 H   0  0  0  0  0  0  0  0  0  0  0  0
    7.8305   -4.1205   -0.7735 H   0  0  0  0  0  0  0  0  0  0  0  0
    9.0186   -4.6982    0.3660 H   0  0  0  0  0  0  0  0  0  0  0  0
    8.3696   -6.3808    2.0954 H   0  0  0  0  0  0  0  0  0  0  0  0
    7.5874   -5.0511    2.8701 H   0  0  0  0  0  0  0  0  0  0  0  0
    6.2947   -7.7876    2.2904 H   0  0  0  0  0  0  0  0  0  0  0  0
    7.0943   -7.3246    3.7611 H   0  0  0  0  0  0  0  0  0  0  0  0
    5.3871   -5.6572    4.3268 H   0  0  0  0  0  0  0  0  0  0  0  0
    5.1620   -8.0820    5.0693 H   0  0  0  0  0  0  0  0  0  0  0  0
    3.6721   -7.1704    5.0287 H   0  0  0  0  0  0  0  0  0  0  0  0
    3.7336  -10.4485    4.4465 H   0  0  0  0  0  0  0  0  0  0  0  0
    2.4170   -9.3208    4.7524 H   0  0  0  0  0  0  0  0  0  0  0  0
    2.7969  -11.0849    2.3683 H   0  0  0  0  0  0  0  0  0  0  0  0
    0.9711  -11.2246    3.6890 H   0  0  0  0  0  0  0  0  0  0  0  0
    3.1196   -9.2882    0.9479 H   0  0  0  0  0  0  0  0  0  0  0  0
    1.4388   -8.8451    1.2765 H   0  0  0  0  0  0  0  0  0  0  0  0
    2.0533   -7.2707    3.0378 H   0  0  0  0  0  0  0  0  0  0  0  0
    3.1025   -3.3487    3.6314 H   0  0  0  0  0  0  0  0  0  0  0  0
    6.4212   -3.1864    2.3673 H   0  0  0  0  0  0  0  0  0  0  0  0
    5.3108   -3.3948    3.7058 H   0  0  0  0  0  0  0  0  0  0  0  0
    4.6118   -8.9335    2.9024 H   0  0  0  0  0  0  0  0  0  0  0  0
  1  2  1  0
  1 27  1  0
  1 28  1  0
  1 29  1  0
  2 26  1  0
  2  3  2  0
  3  4  1  0
  3 30  1  0
  4 23  1  0
  4  5  1  0
  4 31  1  6
  5  6  1  0
  5 32  1  0
  5 33  1  0
  6  7  1  0
  6  8  1  0
  6 34  1  6
  7 35  1  0
  8 25  1  0
  8  9  1  0
  8 36  1  6
  9 10  1  0
  9 11  1  0
  9 37  1  6
 10 38  1  0
 10 39  1  0
 10 40  1  0
 11 12  1  0
 11 41  1  0
 11 42  1  0
 12 13  1  0
 12 43  1  0
 12 44  1  0
 13 22  1  0
 13 14  1  0
 13 45  1  1
 14 15  1  0
 14 46  1  0
 14 47  1  0
 15 20  1  0
 15 16  1  0
 15 58  1  6
 16 17  1  0
 16 48  1  0
 16 49  1  0
 17 18  1  0
 17 19  1  0
 17 50  1  6
 18 51  1  0
 19 20  1  0
 19 52  1  0
 19 53  1  0
 20 21  1  0
 20 54  1  1
 22 21  1  6
 22 25  1  0
 22 23  1  0
 23 24  1  6
 23 25  1  0
 24 55  1  0
 25 26  1  1
 26 56  1  0
 26 57  1  0
M  CHG  1  15   1
M  END
>  <i_m_ct_stereo_status>  (243) 
1

>  <s_m_source_file>  (243) 
/var/tmp/pbs.5076255.sched01/tmpzygr1bk5/76dkit4mfj.sdf

>  <i_m_source_file_index>  (243) 
33

>  <i_lp_mmshare_version>  (243) 
48012

>  <i_f3d_flags>  (243) 
0

>  <s_epik_input>  (243) 
W0NIM11DKFtDSDJdMSk9W0NIXVtDQEhdKFtDQEBdMjNbT0hdKVtDSDJdW0NAQEhdKFtPSF0pW0NASF0oW0NAQF0xM1tDQF0yNDUpW0NAQEhdKFtDSDNdKVtDSDJdW0NIMl1bQ0BASF00W0NIMl1ONltDQEBIXShPNSlbQ0gyXVtDQEBIXShbQ0gyXTYpW09IXQ==

>  <s_epik_cmdline>  (243) 
J2VwaWtfcHl0aG9uJywgJy1waHQnLCAnMi4wJywgJy1waCcsICc3LjAnLCAnLXRuJywgJzgnLCAnLW1hJywgJzIwMCcsICctaW1hZScsICc8aW5maWxlLm1hZT4nLCAnLW9tYWUnLCAnPG91dGZpbGUubWFlPic=

>  <r_epik_Ionization_Penalty>  (243) 
0.422049

>  <r_epik_Ionization_Penalty_Charging>  (243) 
0.422049

>  <r_epik_Ionization_Penalty_Neutral>  (243) 
5.78607e-07

>  <r_epik_State_Penalty>  (243) 
0.422819

>  <r_epik_Charging_Adjusted_Penalty>  (243) 
0.844868

>  <i_epik_Tot_Q>  (243) 
1

>  <i_epik_Tot_abs_Q>  (243) 
1

>  <s_epik_Chemistry_Notes>  (243) 
This compound contains an acetal/aminal-like group ( X-CH(R)-Y where X, Y are N, S, or O) that may be acid/base labile, releasing an aldehyde.

>  <s_lp_Force_Field>  (243) 
OPLS3e

>  <r_lp_Energy>  (243) 
91.4301

>  <b_lp_Chiralities_Consistent>  (243) 
1

>  <s_lp_Variant>  (243) 
82:0-2

>  <s_i_glide_gridfile>  (243) 
pfpi4k_grid

>  <i_i_glide_lignum>  (243) 
33

>  <i_i_glide_rotatable_bonds>  (243) 
3

>  <r_i_docking_score>  (243) 
-3.28723

>  <r_i_glide_ligand_efficiency>  (243) 
-0.126432

>  <r_i_glide_ligand_efficiency_sa>  (243) 
-0.374554

>  <r_i_glide_ligand_efficiency_ln>  (243) 
-0.771994

>  <r_i_glide_gscore>  (243) 
-3.28723

>  <r_i_glide_lipo>  (243) 
-0.660979

>  <r_i_glide_hbond>  (243) 
0

>  <r_i_glide_metal>  (243) 
-0

>  <r_i_glide_rewards>  (243) 
-0.937615

>  <r_i_glide_evdw>  (243) 
-23.3916

>  <r_i_glide_ecoul>  (243) 
-3.4174

>  <r_i_glide_erotb>  (243) 
0

>  <r_i_glide_esite>  (243) 
-0.0064427

>  <r_i_glide_emodel>  (243) 
-32.6308

>  <r_i_glide_energy>  (243) 
-26.809

>  <r_i_glide_einternal>  (243) 
0.714491

>  <r_i_glide_intrahb_reward>  (243) 
-0

>  <i_i_glide_confnum>  (243) 
1

>  <i_i_glide_posenum>  (243) 
34

>  <r_i_glide_eff_state_penalty>  (243) 
0

>  <ligand_id>  (243) 
82

>  <original_smiles>  (243) 
CC1=CC2CC(O)C3C(C)CCC4CN5CC(O)CC5OC45C2(O)C35C1

>  <smiles>  (243) 
[H]OC1([H])C([H])([H])C2([H])C([H])=C(C([H])([H])[H])C([H])([H])C34C1([H])C([H])(C([H])([H])[H])C([H])([H])C([H])([H])C1([H])C3(OC3([H])C([H])([H])C([H])(O[H])C([H])([H])[N+]3([H])C1([H])[H])C24O[H]

$$$$
85:0:0
     RDKit          3D

 71 78  0  0  1  0  0  0  0  0999 V2000
   -0.1542   -9.9023    3.0696 C   0  0  0  0  0  0  0  0  0  0  0  0
   -0.0003   -8.9128    4.0803 O   0  0  0  0  0  0  0  0  0  0  0  0
    1.2233   -8.4114    4.2904 C   0  0  0  0  0  0  0  0  0  0  0  0
    2.2166   -8.7410    3.6406 O   0  0  0  0  0  0  0  0  0  0  0  0
    1.2486   -7.4408    5.5050 C   0  0  2  0  0  0  0  0  0  0  0  0
    0.1357   -6.3246    5.5072 C   0  0  0  0  0  0  0  0  0  0  0  0
    0.6183   -4.8488    5.4499 C   0  0  2  0  0  0  0  0  0  0  0  0
   -0.1395   -3.8730    6.3808 C   0  0  0  0  0  0  0  0  0  0  0  0
    0.9338   -2.7867    6.6032 C   0  0  0  0  0  0  0  0  0  0  0  0
    2.1220   -3.2622    5.8871 N   0  0  0  0  0  0  0  0  0  0  0  0
    1.9328   -3.1793    4.4714 C   0  0  1  0  0  0  0  0  0  0  0  0
    0.7508   -4.1049    4.0767 C   0  0  1  0  0  0  0  0  0  0  0  0
    0.9700   -5.0235    3.0053 O   0  0  0  0  0  0  0  0  0  0  0  0
    2.1812   -5.6409    2.8451 C   0  0  0  0  0  0  0  0  0  0  0  0
    2.5420   -6.0241    1.5130 C   0  0  0  0  0  0  0  0  0  0  0  0
    1.6360   -5.8580    0.5037 O   0  0  0  0  0  0  0  0  0  0  0  0
    3.8157   -6.5390    1.1977 C   0  0  0  0  0  0  0  0  0  0  0  0
    4.8118   -6.6638    2.1823 C   0  0  0  0  0  0  0  0  0  0  0  0
    4.4835   -6.3117    3.5055 C   0  0  0  0  0  0  0  0  0  0  0  0
    3.1938   -5.8805    3.8230 C   0  0  0  0  0  0  0  0  0  0  0  0
    3.0576   -5.6865    5.3728 C   0  0  1  0  0  0  0  0  0  0  0  0
    4.5550   -5.3183    5.7199 C   0  0  1  0  0  0  0  0  0  0  0  0
    5.3455   -6.1918    4.7258 C   0  0  0  0  0  0  0  0  0  0  0  0
    5.0142   -3.8054    5.6604 C   0  0  1  0  0  0  0  0  0  0  0  0
    6.3675   -3.7442    6.0820 O   0  0  0  0  0  0  0  0  0  0  0  0
    4.8890   -3.0069    4.3195 C   0  0  0  0  0  0  0  0  0  0  0  0
    3.9180   -1.7737    4.2881 C   0  0  0  0  0  0  0  0  0  0  0  0
    2.5150   -2.0268    3.7760 N   0  0  2  0  0  0  0  0  0  0  0  0
    1.6605   -0.8303    3.6127 C   0  0  0  0  0  0  0  0  0  0  0  0
    2.0098    0.0103    2.3733 C   0  0  0  0  0  0  0  0  0  0  0  0
    3.0517   -0.4245    1.3517 C   0  0  0  0  0  0  0  0  0  0  0  0
    3.3037    0.7848    2.2323 C   0  0  0  0  0  0  0  0  0  0  0  0
    2.0153   -4.6976    6.0351 C   0  0  2  0  0  0  0  0  0  0  0  0
    2.6311   -7.0249    5.8733 N   0  0  0  0  0  0  0  0  0  0  0  0
    3.0105   -7.4325    7.2301 C   0  0  0  0  0  0  0  0  0  0  0  0
   -1.1976  -10.2013    2.9840 H   0  0  0  0  0  0  0  0  0  0  0  0
    0.4341  -10.7949    3.2965 H   0  0  0  0  0  0  0  0  0  0  0  0
    0.1711   -9.5229    2.0990 H   0  0  0  0  0  0  0  0  0  0  0  0
    0.9027   -8.0835    6.3122 H   0  0  0  0  0  0  0  0  0  0  0  0
   -0.6037   -6.4968    4.7269 H   0  0  0  0  0  0  0  0  0  0  0  0
   -0.4242   -6.4393    6.4372 H   0  0  0  0  0  0  0  0  0  0  0  0
   -1.0521   -3.4728    5.9393 H   0  0  0  0  0  0  0  0  0  0  0  0
   -0.4043   -4.3420    7.3279 H   0  0  0  0  0  0  0  0  0  0  0  0
    0.6055   -1.8029    6.2599 H   0  0  0  0  0  0  0  0  0  0  0  0
    1.1463   -2.7029    7.6680 H   0  0  0  0  0  0  0  0  0  0  0  0
    2.7267   -3.7146    4.0376 H   0  0  0  0  0  0  0  0  0  0  0  0
   -0.1462   -3.5226    3.8737 H   0  0  0  0  0  0  0  0  0  0  0  0
    2.0396   -5.9593   -0.3447 H   0  0  0  0  0  0  0  0  0  0  0  0
    4.0427   -6.8162    0.1792 H   0  0  0  0  0  0  0  0  0  0  0  0
    5.7989   -7.0149    1.9349 H   0  0  0  0  0  0  0  0  0  0  0  0
    4.8023   -5.5909    6.7428 H   0  0  0  0  0  0  0  0  0  0  0  0
    5.4630   -7.1951    5.1309 H   0  0  0  0  0  0  0  0  0  0  0  0
    6.3352   -5.8101    4.4825 H   0  0  0  0  0  0  0  0  0  0  0  0
    4.5219   -3.2358    6.4451 H   0  0  0  0  0  0  0  0  0  0  0  0
    6.9049   -4.2495    5.4948 H   0  0  0  0  0  0  0  0  0  0  0  0
    5.8495   -2.5542    4.1184 H   0  0  0  0  0  0  0  0  0  0  0  0
    4.7551   -3.6345    3.4360 H   0  0  0  0  0  0  0  0  0  0  0  0
    3.8943   -1.2463    5.2569 H   0  0  0  0  0  0  0  0  0  0  0  0
    4.4512   -1.1220    3.6092 H   0  0  0  0  0  0  0  0  0  0  0  0
    0.6235   -1.1495    3.4842 H   0  0  0  0  0  0  0  0  0  0  0  0
    1.6692   -0.1958    4.5024 H   0  0  0  0  0  0  0  0  0  0  0  0
    1.1473    0.5521    1.9891 H   0  0  0  0  0  0  0  0  0  0  0  0
    3.5570   -1.3764    1.5194 H   0  0  0  0  0  0  0  0  0  0  0  0
    2.8274   -0.2442    0.3042 H   0  0  0  0  0  0  0  0  0  0  0  0
    3.2821    1.7410    1.7034 H   0  0  0  0  0  0  0  0  0  0  0  0
    3.9588    0.7759    3.0989 H   0  0  0  0  0  0  0  0  0  0  0  0
    2.0121   -4.9032    7.1038 H   0  0  0  0  0  0  0  0  0  0  0  0
    4.0884   -7.4435    7.3723 H   0  0  0  0  0  0  0  0  0  0  0  0
    2.7141   -8.4688    7.4018 H   0  0  0  0  0  0  0  0  0  0  0  0
    2.5445   -6.8282    8.0075 H   0  0  0  0  0  0  0  0  0  0  0  0
    2.6386   -2.3528    2.8218 H   0  0  0  0  0  0  0  0  0  0  0  0
  1  2  1  0
  1 36  1  0
  1 37  1  0
  1 38  1  0
  2  3  1  0
  3  4  2  0
  3  5  1  0
  5 34  1  0
  5  6  1  0
  5 39  1  1
  7  6  1  6
  6 40  1  0
  6 41  1  0
  7 12  1  0
  7 33  1  0
  7  8  1  0
  8  9  1  0
  8 42  1  0
  8 43  1  0
  9 10  1  0
  9 44  1  0
  9 45  1  0
 10 33  1  0
 10 11  1  0
 11 28  1  0
 11 12  1  0
 11 46  1  6
 12 13  1  0
 12 47  1  6
 13 14  1  0
 14 20  2  0
 14 15  1  0
 15 16  1  0
 15 17  2  0
 16 48  1  0
 17 18  1  0
 17 49  1  0
 18 19  2  0
 18 50  1  0
 19 23  1  0
 19 20  1  0
 20 21  1  0
 21 22  1  0
 21 33  1  0
 21 34  1  1
 22 23  1  0
 22 24  1  0
 22 51  1  1
 23 52  1  0
 23 53  1  0
 24 25  1  0
 24 26  1  0
 24 54  1  1
 25 55  1  0
 26 27  1  0
 26 56  1  0
 26 57  1  0
 27 28  1  0
 27 58  1  0
 27 59  1  0
 28 29  1  0
 28 71  1  6
 29 30  1  0
 29 60  1  0
 29 61  1  0
 30 32  1  0
 30 31  1  0
 30 62  1  0
 31 32  1  0
 31 63  1  0
 31 64  1  0
 32 65  1  0
 32 66  1  0
 33 67  1  1
 34 35  1  0
 35 68  1  0
 35 69  1  0
 35 70  1  0
M  CHG  1  28   1
M  END
>  <i_m_ct_stereo_status>  (244) 
1

>  <s_m_source_file>  (244) 
/var/tmp/pbs.5076255.sched01/tmpzygr1bk5/76dkit4mfj.sdf

>  <i_m_source_file_index>  (244) 
36

>  <i_lp_mmshare_version>  (244) 
48012

>  <i_f3d_flags>  (244) 
0

>  <s_epik_input>  (244) 
W0NIM11PQyg9TylbQ0BIXShbQ0gyXTEpTihbQ0gzXSlbQ0BdMihbQ0BIXTNOKFtDSDJdW0NIMl00KVtDQEhdNVtDQEBIXTZbQ0BAXTEzNCljN2MoTzYpYyhbT0hdKVtjSF1bY0hdYzdbQ0gyXVtDQEhdMltDQEBIXShbT0hdKVtDSDJdW0NIMl1ONVtDSDJdW0NIXThbQ0gyXVtDSDJdOA==

>  <s_epik_cmdline>  (244) 
J2VwaWtfcHl0aG9uJywgJy1waHQnLCAnMi4wJywgJy1waCcsICc3LjAnLCAnLXRuJywgJzgnLCAnLW1hJywgJzIwMCcsICctaW1hZScsICc8aW5maWxlLm1hZT4nLCAnLW9tYWUnLCAnPG91dGZpbGUubWFlPic=

>  <r_lp_tautomer_probability>  (244) 
1

>  <r_epik_Ionization_Penalty>  (244) 
0.0728779

>  <r_epik_Ionization_Penalty_Charging>  (244) 
0.0621416

>  <r_epik_Ionization_Penalty_Neutral>  (244) 
0.0107364

>  <r_epik_State_Penalty>  (244) 
0.399437

>  <r_epik_Charging_Adjusted_Penalty>  (244) 
0.461579

>  <i_epik_Tot_Q>  (244) 
1

>  <i_epik_Tot_abs_Q>  (244) 
1

>  <s_epik_Chemistry_Notes>  (244) 
This compound has an ester and may undergo hydrolysis at high or low pH. This compound contains an acetal/aminal-like group ( X-CH(R)-Y where X, Y are N, S, or O) that may be acid/base labile, releasing an aldehyde.

>  <s_lp_Force_Field>  (244) 
OPLS3e

>  <r_lp_Energy>  (244) 
134.243

>  <b_lp_Chiralities_Consistent>  (244) 
1

>  <s_lp_Variant>  (244) 
85:0-1

>  <s_i_glide_gridfile>  (244) 
pfpi4k_grid

>  <i_i_glide_lignum>  (244) 
36

>  <i_i_glide_rotatable_bonds>  (244) 
6

>  <r_i_docking_score>  (244) 
-1.93751

>  <r_i_glide_ligand_efficiency>  (244) 
-0.0553574

>  <r_i_glide_ligand_efficiency_sa>  (244) 
-0.181078

>  <r_i_glide_ligand_efficiency_ln>  (244) 
-0.425326

>  <r_i_glide_gscore>  (244) 
-1.93751

>  <r_i_glide_lipo>  (244) 
-0.190825

>  <r_i_glide_hbond>  (244) 
0

>  <r_i_glide_metal>  (244) 
-0

>  <r_i_glide_rewards>  (244) 
-0.1234

>  <r_i_glide_evdw>  (244) 
-19.865

>  <r_i_glide_ecoul>  (244) 
-5.84811

>  <r_i_glide_erotb>  (244) 
0.261423

>  <r_i_glide_esite>  (244) 
-0.0142395

>  <r_i_glide_emodel>  (244) 
-22.521

>  <r_i_glide_energy>  (244) 
-25.7131

>  <r_i_glide_einternal>  (244) 
10.9723

>  <r_i_glide_intrahb_reward>  (244) 
-0

>  <i_i_glide_confnum>  (244) 
1

>  <i_i_glide_posenum>  (244) 
4

>  <r_i_glide_eff_state_penalty>  (244) 
0

>  <ligand_id>  (244) 
85

>  <original_smiles>  (244) 
COC(=O)C1CC23CCN4C5C2Oc2c(O)ccc6c2C(C(C6)C(O)CCN5CC2CC2)(C43)N1C

>  <smiles>  (244) 
[H]Oc1c([H])c([H])c2c3c1OC1([H])C45C([H])([H])C([H])([H])N6C4([H])C3(N(C([H])([H])[H])C([H])(C(=O)OC([H])([H])[H])C5([H])[H])C([H])(C2([H])[H])C([H])(O[H])C([H])([H])C([H])([H])[N+]([H])(C([H])([H])C2([H])C([H])([H])C2([H])[H])C61[H]

$$$$
85:0:1
     RDKit          3D

 71 78  0  0  1  0  0  0  0  0999 V2000
   -3.4250    2.9174    8.3388 C   0  0  0  0  0  0  0  0  0  0  0  0
   -2.2005    3.4350    7.8423 O   0  0  0  0  0  0  0  0  0  0  0  0
   -1.2238    2.5582    7.5524 C   0  0  0  0  0  0  0  0  0  0  0  0
   -1.3648    1.3387    7.6910 O   0  0  0  0  0  0  0  0  0  0  0  0
    0.0918    3.2659    7.0988 C   0  0  2  0  0  0  0  0  0  0  0  0
    0.0910    3.7941    5.6140 C   0  0  0  0  0  0  0  0  0  0  0  0
    1.1623    3.2074    4.6530 C   0  0  2  0  0  0  0  0  0  0  0  0
    1.8482    4.2305    3.7229 C   0  0  0  0  0  0  0  0  0  0  0  0
    3.1891    3.5274    3.4623 C   0  0  0  0  0  0  0  0  0  0  0  0
    3.1571    2.2967    4.2650 N   0  0  0  0  0  0  0  0  0  0  0  0
    2.2386    1.3560    3.6812 C   0  0  1  0  0  0  0  0  0  0  0  0
    0.8061    1.9802    3.7311 C   0  0  1  0  0  0  0  0  0  0  0  0
   -0.2314    1.1800    4.3046 O   0  0  0  0  0  0  0  0  0  0  0  0
    0.0216    0.3542    5.3783 C   0  0  0  0  0  0  0  0  0  0  0  0
   -0.7903   -0.7872    5.5051 C   0  0  0  0  0  0  0  0  0  0  0  0
   -1.8504   -0.9625    4.6539 O   0  0  0  0  0  0  0  0  0  0  0  0
   -0.5805   -1.7674    6.5048 C   0  0  0  0  0  0  0  0  0  0  0  0
    0.5074   -1.6340    7.3957 C   0  0  0  0  0  0  0  0  0  0  0  0
    1.3245   -0.5132    7.2895 C   0  0  0  0  0  0  0  0  0  0  0  0
    1.0456    0.5035    6.3571 C   0  0  0  0  0  0  0  0  0  0  0  0
    2.0143    1.7027    6.5776 C   0  0  1  0  0  0  0  0  0  0  0  0
    3.2686    0.9270    7.1535 C   0  0  1  0  0  0  0  0  0  0  0  0
    2.6056   -0.1767    7.9999 C   0  0  0  0  0  0  0  0  0  0  0  0
    4.3465    0.3358    6.1572 C   0  0  1  0  0  0  0  0  0  0  0  0
    5.3919   -0.2431    6.9220 O   0  0  0  0  0  0  0  0  0  0  0  0
    3.9231   -0.7160    5.0817 C   0  0  0  0  0  0  0  0  0  0  0  0
    4.0793   -0.2819    3.5872 C   0  0  0  0  0  0  0  0  0  0  0  0
    2.8115    0.2196    2.9007 N   0  0  2  0  0  0  0  0  0  0  0  0
    2.8939    0.4623    1.4345 C   0  0  0  0  0  0  0  0  0  0  0  0
    3.3445   -0.7561    0.6074 C   0  0  0  0  0  0  0  0  0  0  0  0
    3.4769   -2.1352    1.2134 C   0  0  0  0  0  0  0  0  0  0  0  0
    4.7183   -1.3514    0.8028 C   0  0  0  0  0  0  0  0  0  0  0  0
    2.3772    2.7064    5.4155 C   0  0  2  0  0  0  0  0  0  0  0  0
    1.3195    2.5672    7.5779 N   0  0  0  0  0  0  0  0  0  0  0  0
    2.1249    3.4043    8.4757 C   0  0  0  0  0  0  0  0  0  0  0  0
   -4.1210    3.7165    8.5685 H   0  0  0  0  0  0  0  0  0  0  0  0
   -3.2816    2.3188    9.2407 H   0  0  0  0  0  0  0  0  0  0  0  0
   -3.8719    2.2727    7.5847 H   0  0  0  0  0  0  0  0  0  0  0  0
    0.0489    4.2017    7.6545 H   0  0  0  0  0  0  0  0  0  0  0  0
   -0.8938    3.7301    5.1572 H   0  0  0  0  0  0  0  0  0  0  0  0
    0.2897    4.8647    5.6732 H   0  0  0  0  0  0  0  0  0  0  0  0
    1.2926    4.4240    2.8068 H   0  0  0  0  0  0  0  0  0  0  0  0
    2.0186    5.1844    4.2178 H   0  0  0  0  0  0  0  0  0  0  0  0
    3.3567    3.3350    2.4009 H   0  0  0  0  0  0  0  0  0  0  0  0
    4.0019    4.1672    3.8028 H   0  0  0  0  0  0  0  0  0  0  0  0
    2.1271    0.6049    4.4092 H   0  0  0  0  0  0  0  0  0  0  0  0
    0.4531    2.3077    2.7413 H   0  0  0  0  0  0  0  0  0  0  0  0
   -2.0095   -0.2026    4.1034 H   0  0  0  0  0  0  0  0  0  0  0  0
   -1.2312   -2.6127    6.5640 H   0  0  0  0  0  0  0  0  0  0  0  0
    0.6952   -2.3947    8.1361 H   0  0  0  0  0  0  0  0  0  0  0  0
    3.8724    1.5788    7.7835 H   0  0  0  0  0  0  0  0  0  0  0  0
    2.3563    0.2173    8.9849 H   0  0  0  0  0  0  0  0  0  0  0  0
    3.2410   -1.0517    8.1443 H   0  0  0  0  0  0  0  0  0  0  0  0
    4.8605    1.1533    5.6475 H   0  0  0  0  0  0  0  0  0  0  0  0
    6.0828   -0.5108    6.3357 H   0  0  0  0  0  0  0  0  0  0  0  0
    4.5795   -1.5805    5.1929 H   0  0  0  0  0  0  0  0  0  0  0  0
    2.9454   -1.1683    5.2642 H   0  0  0  0  0  0  0  0  0  0  0  0
    4.8900    0.4455    3.4384 H   0  0  0  0  0  0  0  0  0  0  0  0
    4.4330   -1.2045    3.1400 H   0  0  0  0  0  0  0  0  0  0  0  0
    1.8949    0.7630    1.0765 H   0  0  0  0  0  0  0  0  0  0  0  0
    3.5452    1.3219    1.2426 H   0  0  0  0  0  0  0  0  0  0  0  0
    3.0213   -0.7047   -0.4282 H   0  0  0  0  0  0  0  0  0  0  0  0
    3.1195   -2.2024    2.2386 H   0  0  0  0  0  0  0  0  0  0  0  0
    3.2350   -2.9913    0.5921 H   0  0  0  0  0  0  0  0  0  0  0  0
    5.2413   -1.7257   -0.0735 H   0  0  0  0  0  0  0  0  0  0  0  0
    5.3331   -0.7950    1.5085 H   0  0  0  0  0  0  0  0  0  0  0  0
    2.9213    3.5336    5.8663 H   0  0  0  0  0  0  0  0  0  0  0  0
    2.8144    2.8196    9.0792 H   0  0  0  0  0  0  0  0  0  0  0  0
    1.4872    3.8990    9.2066 H   0  0  0  0  0  0  0  0  0  0  0  0
    2.6779    4.1821    7.9523 H   0  0  0  0  0  0  0  0  0  0  0  0
    2.1175   -0.5174    2.9800 H   0  0  0  0  0  0  0  0  0  0  0  0
  1  2  1  0
  1 36  1  0
  1 37  1  0
  1 38  1  0
  2  3  1  0
  3  4  2  0
  3  5  1  0
  5 34  1  0
  5  6  1  0
  5 39  1  1
  7  6  1  1
  6 40  1  0
  6 41  1  0
  7 12  1  0
  7 33  1  0
  7  8  1  0
  8  9  1  0
  8 42  1  0
  8 43  1  0
  9 10  1  0
  9 44  1  0
  9 45  1  0
 10 33  1  0
 10 11  1  0
 11 28  1  0
 11 12  1  0
 11 46  1  1
 12 13  1  0
 12 47  1  6
 13 14  1  0
 14 20  2  0
 14 15  1  0
 15 16  1  0
 15 17  2  0
 16 48  1  0
 17 18  1  0
 17 49  1  0
 18 19  2  0
 18 50  1  0
 19 23  1  0
 19 20  1  0
 20 21  1  0
 21 22  1  0
 21 33  1  0
 21 34  1  1
 22 23  1  0
 22 24  1  0
 22 51  1  1
 23 52  1  0
 23 53  1  0
 24 25  1  0
 24 26  1  0
 24 54  1  6
 25 55  1  0
 26 27  1  0
 26 56  1  0
 26 57  1  0
 27 28  1  0
 27 58  1  0
 27 59  1  0
 28 29  1  0
 28 71  1  6
 29 30  1  0
 29 60  1  0
 29 61  1  0
 30 32  1  0
 30 31  1  0
 30 62  1  0
 31 32  1  0
 31 63  1  0
 31 64  1  0
 32 65  1  0
 32 66  1  0
 33 67  1  1
 34 35  1  0
 35 68  1  0
 35 69  1  0
 35 70  1  0
M  CHG  1  28   1
M  END
>  <i_m_ct_stereo_status>  (245) 
1

>  <s_m_source_file>  (245) 
/var/tmp/pbs.5076255.sched01/tmpzygr1bk5/76dkit4mfj.sdf

>  <i_m_source_file_index>  (245) 
36

>  <i_lp_mmshare_version>  (245) 
48012

>  <i_f3d_flags>  (245) 
0

>  <s_epik_input>  (245) 
W0NIM11PQyg9TylbQ0BIXShbQ0gyXTEpTihbQ0gzXSlbQ0BdMihbQ0BIXTNOKFtDSDJdW0NIMl00KVtDQEhdNVtDQEBIXTZbQ0BAXTEzNCljN2MoTzYpYyhbT0hdKVtjSF1bY0hdYzdbQ0gyXVtDQEhdMltDQEBIXShbT0hdKVtDSDJdW0NIMl1ONVtDSDJdW0NIXThbQ0gyXVtDSDJdOA==

>  <s_epik_cmdline>  (245) 
J2VwaWtfcHl0aG9uJywgJy1waHQnLCAnMi4wJywgJy1waCcsICc3LjAnLCAnLXRuJywgJzgnLCAnLW1hJywgJzIwMCcsICctaW1hZScsICc8aW5maWxlLm1hZT4nLCAnLW9tYWUnLCAnPG91dGZpbGUubWFlPic=

>  <r_lp_tautomer_probability>  (245) 
1

>  <r_epik_Ionization_Penalty>  (245) 
0.0728779

>  <r_epik_Ionization_Penalty_Charging>  (245) 
0.0621416

>  <r_epik_Ionization_Penalty_Neutral>  (245) 
0.0107364

>  <r_epik_State_Penalty>  (245) 
0.399437

>  <r_epik_Charging_Adjusted_Penalty>  (245) 
0.461579

>  <i_epik_Tot_Q>  (245) 
1

>  <i_epik_Tot_abs_Q>  (245) 
1

>  <s_epik_Chemistry_Notes>  (245) 
This compound has an ester and may undergo hydrolysis at high or low pH. This compound contains an acetal/aminal-like group ( X-CH(R)-Y where X, Y are N, S, or O) that may be acid/base labile, releasing an aldehyde.

>  <s_lp_Force_Field>  (245) 
OPLS3e

>  <r_lp_Energy>  (245) 
134.243

>  <b_lp_Chiralities_Consistent>  (245) 
1

>  <s_lp_Variant>  (245) 
85:0-1

>  <s_i_glide_gridfile>  (245) 
pfpi4k_grid

>  <i_i_glide_lignum>  (245) 
36

>  <i_i_glide_rotatable_bonds>  (245) 
6

>  <r_i_docking_score>  (245) 
-1.92293

>  <r_i_glide_ligand_efficiency>  (245) 
-0.054941

>  <r_i_glide_ligand_efficiency_sa>  (245) 
-0.179716

>  <r_i_glide_ligand_efficiency_ln>  (245) 
-0.422127

>  <r_i_glide_gscore>  (245) 
-1.92293

>  <r_i_glide_lipo>  (245) 
-0.134119

>  <r_i_glide_hbond>  (245) 
-0.04307

>  <r_i_glide_metal>  (245) 
-0

>  <r_i_glide_rewards>  (245) 
-0.118692

>  <r_i_glide_evdw>  (245) 
-20.5402

>  <r_i_glide_ecoul>  (245) 
-5.68979

>  <r_i_glide_erotb>  (245) 
0.261423

>  <r_i_glide_esite>  (245) 
-0.00800032

>  <r_i_glide_emodel>  (245) 
-19.8495

>  <r_i_glide_energy>  (245) 
-26.2299

>  <r_i_glide_einternal>  (245) 
12.351

>  <r_i_glide_intrahb_reward>  (245) 
-0

>  <i_i_glide_confnum>  (245) 
1

>  <i_i_glide_posenum>  (245) 
24

>  <r_i_glide_eff_state_penalty>  (245) 
0

>  <ligand_id>  (245) 
85

>  <original_smiles>  (245) 
COC(=O)C1CC23CCN4C5C2Oc2c(O)ccc6c2C(C(C6)C(O)CCN5CC2CC2)(C43)N1C

>  <smiles>  (245) 
[H]Oc1c([H])c([H])c2c3c1OC1([H])C45C([H])([H])C([H])([H])N6C4([H])C3(N(C([H])([H])[H])C([H])(C(=O)OC([H])([H])[H])C5([H])[H])C([H])(C2([H])[H])C([H])(O[H])C([H])([H])C([H])([H])[N+]([H])(C([H])([H])C2([H])C([H])([H])C2([H])[H])C61[H]

$$$$
85:0:2
     RDKit          3D

 71 78  0  0  1  0  0  0  0  0999 V2000
   -2.1137    2.3106   10.3413 C   0  0  0  0  0  0  0  0  0  0  0  0
   -1.2835    3.0483    9.4562 O   0  0  0  0  0  0  0  0  0  0  0  0
   -1.0509    2.5404    8.2264 C   0  0  0  0  0  0  0  0  0  0  0  0
   -1.5690    1.5177    7.8064 O   0  0  0  0  0  0  0  0  0  0  0  0
   -0.0103    3.4208    7.4514 C   0  0  2  0  0  0  0  0  0  0  0  0
   -0.3626    3.6573    5.9322 C   0  0  0  0  0  0  0  0  0  0  0  0
    0.6464    3.1405    4.8736 C   0  0  2  0  0  0  0  0  0  0  0  0
    0.9155    4.1066    3.6978 C   0  0  0  0  0  0  0  0  0  0  0  0
    2.3283    3.6695    3.2702 C   0  0  0  0  0  0  0  0  0  0  0  0
    2.7070    2.6209    4.2286 N   0  0  0  0  0  0  0  0  0  0  0  0
    1.9561    1.4154    3.9803 C   0  0  1  0  0  0  0  0  0  0  0  0
    0.4368    1.7383    4.2226 C   0  0  1  0  0  0  0  0  0  0  0  0
   -0.2577    0.8394    5.0858 O   0  0  0  0  0  0  0  0  0  0  0  0
    0.3456    0.2944    6.1822 C   0  0  0  0  0  0  0  0  0  0  0  0
   -0.1514   -0.9757    6.6218 C   0  0  0  0  0  0  0  0  0  0  0  0
   -1.2283   -1.5169    5.9982 O   0  0  0  0  0  0  0  0  0  0  0  0
    0.4465   -1.6703    7.6990 C   0  0  0  0  0  0  0  0  0  0  0  0
    1.5849   -1.1618    8.3355 C   0  0  0  0  0  0  0  0  0  0  0  0
    2.0863    0.0768    7.9200 C   0  0  0  0  0  0  0  0  0  0  0  0
    1.4380    0.8119    6.9201 C   0  0  0  0  0  0  0  0  0  0  0  0
    2.1212    2.2131    6.7830 C   0  0  1  0  0  0  0  0  0  0  0  0
    3.5958    1.8276    7.2073 C   0  0  1  0  0  0  0  0  0  0  0  0
    3.3585    0.7803    8.3053 C   0  0  0  0  0  0  0  0  0  0  0  0
    4.6104    1.3091    6.1096 C   0  0  1  0  0  0  0  0  0  0  0  0
    5.8773    1.1038    6.7212 O   0  0  0  0  0  0  0  0  0  0  0  0
    4.2873    0.0132    5.2902 C   0  0  0  0  0  0  0  0  0  0  0  0
    4.1103    0.2039    3.7571 C   0  0  0  0  0  0  0  0  0  0  0  0
    2.6501    0.3122    3.2578 N   0  0  2  0  0  0  0  0  0  0  0  0
    2.4302    0.3006    1.7776 C   0  0  0  0  0  0  0  0  0  0  0  0
    3.0870   -0.8810    1.0528 C   0  0  0  0  0  0  0  0  0  0  0  0
    3.7105   -2.0571    1.7814 C   0  0  0  0  0  0  0  0  0  0  0  0
    4.5984   -1.0344    1.0540 C   0  0  0  0  0  0  0  0  0  0  0  0
    2.0565    3.0466    5.4467 C   0  0  2  0  0  0  0  0  0  0  0  0
    1.4060    3.0763    7.7784 N   0  0  0  0  0  0  0  0  0  0  0  0
    2.1258    4.2078    8.3809 C   0  0  0  0  0  0  0  0  0  0  0  0
   -2.2861    2.8601   11.2608 H   0  0  0  0  0  0  0  0  0  0  0  0
   -1.6395    1.3683   10.6066 H   0  0  0  0  0  0  0  0  0  0  0  0
   -3.0855    2.0905    9.9022 H   0  0  0  0  0  0  0  0  0  0  0  0
   -0.1842    4.4147    7.8723 H   0  0  0  0  0  0  0  0  0  0  0  0
   -1.3670    3.3149    5.6914 H   0  0  0  0  0  0  0  0  0  0  0  0
   -0.4177    4.7418    5.8145 H   0  0  0  0  0  0  0  0  0  0  0  0
    0.1886    4.0142    2.8946 H   0  0  0  0  0  0  0  0  0  0  0  0
    0.9262    5.1469    4.0126 H   0  0  0  0  0  0  0  0  0  0  0  0
    2.3648    3.3290    2.2318 H   0  0  0  0  0  0  0  0  0  0  0  0
    3.0204    4.5094    3.3487 H   0  0  0  0  0  0  0  0  0  0  0  0
    2.1398    0.8002    4.8094 H   0  0  0  0  0  0  0  0  0  0  0  0
   -0.1357    1.7906    3.2928 H   0  0  0  0  0  0  0  0  0  0  0  0
   -1.2615   -2.4557    6.0815 H   0  0  0  0  0  0  0  0  0  0  0  0
    0.0299   -2.6057    8.0208 H   0  0  0  0  0  0  0  0  0  0  0  0
    2.0733   -1.7296    9.1297 H   0  0  0  0  0  0  0  0  0  0  0  0
    4.1222    2.6849    7.6124 H   0  0  0  0  0  0  0  0  0  0  0  0
    3.1802    1.2771    9.2589 H   0  0  0  0  0  0  0  0  0  0  0  0
    4.1975    0.0913    8.4471 H   0  0  0  0  0  0  0  0  0  0  0  0
    4.8273    2.1053    5.3999 H   0  0  0  0  0  0  0  0  0  0  0  0
    6.5110    0.9041    6.0512 H   0  0  0  0  0  0  0  0  0  0  0  0
    5.1301   -0.6632    5.3779 H   0  0  0  0  0  0  0  0  0  0  0  0
    3.4793   -0.5938    5.7126 H   0  0  0  0  0  0  0  0  0  0  0  0
    4.6643    1.0570    3.3362 H   0  0  0  0  0  0  0  0  0  0  0  0
    4.6196   -0.6500    3.4069 H   0  0  0  0  0  0  0  0  0  0  0  0
    1.3445    0.2594    1.5841 H   0  0  0  0  0  0  0  0  0  0  0  0
    2.7655    1.2555    1.3496 H   0  0  0  0  0  0  0  0  0  0  0  0
    2.6135   -1.1222    0.1059 H   0  0  0  0  0  0  0  0  0  0  0  0
    3.5117   -2.0236    2.8607 H   0  0  0  0  0  0  0  0  0  0  0  0
    3.6746   -3.0342    1.3385 H   0  0  0  0  0  0  0  0  0  0  0  0
    5.0905   -1.3880    0.1560 H   0  0  0  0  0  0  0  0  0  0  0  0
    5.1197   -0.2140    1.5507 H   0  0  0  0  0  0  0  0  0  0  0  0
    2.4477    4.0360    5.6677 H   0  0  0  0  0  0  0  0  0  0  0  0
    3.0214    3.8971    8.9136 H   0  0  0  0  0  0  0  0  0  0  0  0
    1.5145    4.6822    9.1505 H   0  0  0  0  0  0  0  0  0  0  0  0
    2.3891    4.9838    7.6625 H   0  0  0  0  0  0  0  0  0  0  0  0
    2.1683   -0.5401    3.5676 H   0  0  0  0  0  0  0  0  0  0  0  0
  1  2  1  0
  1 36  1  0
  1 37  1  0
  1 38  1  0
  2  3  1  0
  3  4  2  0
  3  5  1  0
  5 34  1  0
  5  6  1  0
  5 39  1  1
  7  6  1  1
  6 40  1  0
  6 41  1  0
  7 12  1  0
  7 33  1  0
  7  8  1  0
  8  9  1  0
  8 42  1  0
  8 43  1  0
  9 10  1  0
  9 44  1  0
  9 45  1  0
 10 33  1  0
 10 11  1  0
 11 28  1  0
 11 12  1  0
 11 46  1  1
 12 13  1  0
 12 47  1  6
 13 14  1  0
 14 20  2  0
 14 15  1  0
 15 16  1  0
 15 17  2  0
 16 48  1  0
 17 18  1  0
 17 49  1  0
 18 19  2  0
 18 50  1  0
 19 23  1  0
 19 20  1  0
 20 21  1  0
 21 22  1  0
 21 33  1  0
 21 34  1  1
 22 23  1  0
 22 24  1  0
 22 51  1  1
 23 52  1  0
 23 53  1  0
 24 25  1  0
 24 26  1  0
 24 54  1  6
 25 55  1  0
 26 27  1  0
 26 56  1  0
 26 57  1  0
 27 28  1  0
 27 58  1  0
 27 59  1  0
 28 29  1  0
 28 71  1  1
 29 30  1  0
 29 60  1  0
 29 61  1  0
 30 32  1  0
 30 31  1  0
 30 62  1  0
 31 32  1  0
 31 63  1  0
 31 64  1  0
 32 65  1  0
 32 66  1  0
 33 67  1  1
 34 35  1  0
 35 68  1  0
 35 69  1  0
 35 70  1  0
M  CHG  1  28   1
M  END
>  <i_m_ct_stereo_status>  (246) 
1

>  <s_m_source_file>  (246) 
/var/tmp/pbs.5076255.sched01/tmpzygr1bk5/76dkit4mfj.sdf

>  <i_m_source_file_index>  (246) 
36

>  <i_lp_mmshare_version>  (246) 
48012

>  <i_f3d_flags>  (246) 
0

>  <s_epik_input>  (246) 
W0NIM11PQyg9TylbQ0BIXShbQ0gyXTEpTihbQ0gzXSlbQ0BdMihbQ0BIXTNOKFtDSDJdW0NIMl00KVtDQEhdNVtDQEBIXTZbQ0BAXTEzNCljN2MoTzYpYyhbT0hdKVtjSF1bY0hdYzdbQ0gyXVtDQEhdMltDQEBIXShbT0hdKVtDSDJdW0NIMl1ONVtDSDJdW0NIXThbQ0gyXVtDSDJdOA==

>  <s_epik_cmdline>  (246) 
J2VwaWtfcHl0aG9uJywgJy1waHQnLCAnMi4wJywgJy1waCcsICc3LjAnLCAnLXRuJywgJzgnLCAnLW1hJywgJzIwMCcsICctaW1hZScsICc8aW5maWxlLm1hZT4nLCAnLW9tYWUnLCAnPG91dGZpbGUubWFlPic=

>  <r_lp_tautomer_probability>  (246) 
1

>  <r_epik_Ionization_Penalty>  (246) 
0.0728779

>  <r_epik_Ionization_Penalty_Charging>  (246) 
0.0621416

>  <r_epik_Ionization_Penalty_Neutral>  (246) 
0.0107364

>  <r_epik_State_Penalty>  (246) 
0.399437

>  <r_epik_Charging_Adjusted_Penalty>  (246) 
0.461579

>  <i_epik_Tot_Q>  (246) 
1

>  <i_epik_Tot_abs_Q>  (246) 
1

>  <s_epik_Chemistry_Notes>  (246) 
This compound has an ester and may undergo hydrolysis at high or low pH. This compound contains an acetal/aminal-like group ( X-CH(R)-Y where X, Y are N, S, or O) that may be acid/base labile, releasing an aldehyde.

>  <s_lp_Force_Field>  (246) 
OPLS3e

>  <r_lp_Energy>  (246) 
134.243

>  <b_lp_Chiralities_Consistent>  (246) 
1

>  <s_lp_Variant>  (246) 
85:0-1

>  <s_i_glide_gridfile>  (246) 
pfpi4k_grid

>  <i_i_glide_lignum>  (246) 
36

>  <i_i_glide_rotatable_bonds>  (246) 
6

>  <r_i_docking_score>  (246) 
-1.57786

>  <r_i_glide_ligand_efficiency>  (246) 
-0.0450818

>  <r_i_glide_ligand_efficiency_sa>  (246) 
-0.147466

>  <r_i_glide_ligand_efficiency_ln>  (246) 
-0.346376

>  <r_i_glide_gscore>  (246) 
-1.57786

>  <r_i_glide_lipo>  (246) 
-0.0722692

>  <r_i_glide_hbond>  (246) 
-0.0257314

>  <r_i_glide_metal>  (246) 
-0

>  <r_i_glide_rewards>  (246) 
-0.118692

>  <r_i_glide_evdw>  (246) 
-18.2957

>  <r_i_glide_ecoul>  (246) 
-5.20372

>  <r_i_glide_erotb>  (246) 
0.261423

>  <r_i_glide_esite>  (246) 
-0.0137294

>  <r_i_glide_emodel>  (246) 
-16.129

>  <r_i_glide_energy>  (246) 
-23.4994

>  <r_i_glide_einternal>  (246) 
12.577

>  <r_i_glide_intrahb_reward>  (246) 
-0

>  <i_i_glide_confnum>  (246) 
1

>  <i_i_glide_posenum>  (246) 
16

>  <r_i_glide_eff_state_penalty>  (246) 
0

>  <ligand_id>  (246) 
85

>  <original_smiles>  (246) 
COC(=O)C1CC23CCN4C5C2Oc2c(O)ccc6c2C(C(C6)C(O)CCN5CC2CC2)(C43)N1C

>  <smiles>  (246) 
[H]Oc1c([H])c([H])c2c3c1OC1([H])C45C([H])([H])C([H])([H])N6C4([H])C3(N(C([H])([H])[H])C([H])(C(=O)OC([H])([H])[H])C5([H])[H])C([H])(C2([H])[H])C([H])(O[H])C([H])([H])C([H])([H])[N+]([H])(C([H])([H])C2([H])C([H])([H])C2([H])[H])C61[H]

$$$$
85:2:0
     RDKit          3D

 71 78  0  0  1  0  0  0  0  0999 V2000
   -3.3694    2.9552    8.8852 C   0  0  0  0  0  0  0  0  0  0  0  0
   -2.6828    3.2608    7.6777 O   0  0  0  0  0  0  0  0  0  0  0  0
   -2.3200    2.2717    6.8434 C   0  0  0  0  0  0  0  0  0  0  0  0
   -2.5721    1.0804    7.0383 O   0  0  0  0  0  0  0  0  0  0  0  0
   -1.6449    2.8392    5.5524 C   0  0  2  0  0  0  0  0  0  0  0  0
   -1.7412    1.8682    4.3203 C   0  0  0  0  0  0  0  0  0  0  0  0
   -0.3949    1.4017    3.7130 C   0  0  2  0  0  0  0  0  0  0  0  0
   -0.3648    1.4252    2.1701 C   0  0  0  0  0  0  0  0  0  0  0  0
    1.1438    1.5830    1.8978 C   0  0  0  0  0  0  0  0  0  0  0  0
    1.7346    1.6906    3.2477 N   0  0  2  0  0  0  0  0  0  0  0  0
    1.7645    0.4255    3.9707 C   0  0  1  0  0  0  0  0  0  0  0  0
    0.2581    0.0403    4.1268 C   0  0  1  0  0  0  0  0  0  0  0  0
   -0.1595   -0.3768    5.4201 O   0  0  0  0  0  0  0  0  0  0  0  0
    0.3236    0.2651    6.5467 C   0  0  0  0  0  0  0  0  0  0  0  0
    0.3639   -0.5130    7.7322 C   0  0  0  0  0  0  0  0  0  0  0  0
   -0.1563   -1.7730    7.7202 O   0  0  0  0  0  0  0  0  0  0  0  0
    0.9712   -0.0434    8.9273 C   0  0  0  0  0  0  0  0  0  0  0  0
    1.6291    1.2008    8.9512 C   0  0  0  0  0  0  0  0  0  0  0  0
    1.5742    2.0085    7.8118 C   0  0  0  0  0  0  0  0  0  0  0  0
    0.8684    1.5758    6.6648 C   0  0  0  0  0  0  0  0  0  0  0  0
    0.8986    2.6680    5.5565 C   0  0  1  0  0  0  0  0  0  0  0  0
    2.2512    3.3965    5.9019 C   0  0  1  0  0  0  0  0  0  0  0  0
    2.3514    3.2418    7.4390 C   0  0  0  0  0  0  0  0  0  0  0  0
    3.5965    2.9040    5.2117 C   0  0  1  0  0  0  0  0  0  0  0  0
    4.6025    3.7949    5.6587 O   0  0  0  0  0  0  0  0  0  0  0  0
    4.1322    1.4257    5.4166 C   0  0  0  0  0  0  0  0  0  0  0  0
    4.1688    0.4730    4.1507 C   0  0  0  0  0  0  0  0  0  0  0  0
    2.9736   -0.3791    3.8864 N   0  0  0  0  0  0  0  0  0  0  0  0
    3.0714   -1.1653    2.6584 C   0  0  0  0  0  0  0  0  0  0  0  0
    4.2782   -2.0880    2.6133 C   0  0  0  0  0  0  0  0  0  0  0  0
    5.4660   -1.7606    1.7314 C   0  0  0  0  0  0  0  0  0  0  0  0
    4.5423   -2.8896    1.3564 C   0  0  0  0  0  0  0  0  0  0  0  0
    0.7111    2.3959    4.0055 C   0  0  2  0  0  0  0  0  0  0  0  0
   -0.3060    3.5375    5.6759 N   0  0  0  0  0  0  0  0  0  0  0  0
   -0.3276    4.6638    6.6154 C   0  0  0  0  0  0  0  0  0  0  0  0
   -3.5138    3.8571    9.4827 H   0  0  0  0  0  0  0  0  0  0  0  0
   -2.8206    2.2347    9.4973 H   0  0  0  0  0  0  0  0  0  0  0  0
   -4.3573    2.5456    8.6691 H   0  0  0  0  0  0  0  0  0  0  0  0
   -2.3302    3.6310    5.2625 H   0  0  0  0  0  0  0  0  0  0  0  0
   -2.3391    0.9905    4.5443 H   0  0  0  0  0  0  0  0  0  0  0  0
   -2.3168    2.3835    3.5414 H   0  0  0  0  0  0  0  0  0  0  0  0
   -0.7718    0.5179    1.7190 H   0  0  0  0  0  0  0  0  0  0  0  0
   -0.9204    2.2688    1.7569 H   0  0  0  0  0  0  0  0  0  0  0  0
    1.5286    0.7730    1.2864 H   0  0  0  0  0  0  0  0  0  0  0  0
    1.3172    2.5018    1.3415 H   0  0  0  0  0  0  0  0  0  0  0  0
    2.0232    0.6594    4.9647 H   0  0  0  0  0  0  0  0  0  0  0  0
   -0.0159   -0.7474    3.4253 H   0  0  0  0  0  0  0  0  0  0  0  0
   -0.1839   -2.1441    6.8488 H   0  0  0  0  0  0  0  0  0  0  0  0
    0.9909   -0.6846    9.7942 H   0  0  0  0  0  0  0  0  0  0  0  0
    2.1911    1.5092    9.8263 H   0  0  0  0  0  0  0  0  0  0  0  0
    2.1912    4.4518    5.6327 H   0  0  0  0  0  0  0  0  0  0  0  0
    1.8847    4.0732    7.9558 H   0  0  0  0  0  0  0  0  0  0  0  0
    3.3736    3.1830    7.8112 H   0  0  0  0  0  0  0  0  0  0  0  0
    3.5612    3.1096    4.1438 H   0  0  0  0  0  0  0  0  0  0  0  0
    4.3737    4.6663    5.3727 H   0  0  0  0  0  0  0  0  0  0  0  0
    5.1729    1.5073    5.7374 H   0  0  0  0  0  0  0  0  0  0  0  0
    3.6754    0.9233    6.2726 H   0  0  0  0  0  0  0  0  0  0  0  0
    4.4421    1.0437    3.2675 H   0  0  0  0  0  0  0  0  0  0  0  0
    5.0044   -0.2111    4.2968 H   0  0  0  0  0  0  0  0  0  0  0  0
    2.1738   -1.7806    2.5672 H   0  0  0  0  0  0  0  0  0  0  0  0
    3.1188   -0.5194    1.7849 H   0  0  0  0  0  0  0  0  0  0  0  0
    4.4817   -2.6197    3.5416 H   0  0  0  0  0  0  0  0  0  0  0  0
    5.4155   -0.8418    1.1491 H   0  0  0  0  0  0  0  0  0  0  0  0
    6.4560   -2.0260    2.0927 H   0  0  0  0  0  0  0  0  0  0  0  0
    4.9284   -3.9006    1.4638 H   0  0  0  0  0  0  0  0  0  0  0  0
    3.8752   -2.7363    0.5097 H   0  0  0  0  0  0  0  0  0  0  0  0
    0.5410    3.3550    3.4981 H   0  0  0  0  0  0  0  0  0  0  0  0
    0.4567    5.3983    6.4265 H   0  0  0  0  0  0  0  0  0  0  0  0
   -0.3231    4.3821    7.6703 H   0  0  0  0  0  0  0  0  0  0  0  0
   -1.2431    5.2198    6.4502 H   0  0  0  0  0  0  0  0  0  0  0  0
    2.6297    2.1618    3.2208 H   0  0  0  0  0  0  0  0  0  0  0  0
  1  2  1  0
  1 36  1  0
  1 37  1  0
  1 38  1  0
  2  3  1  0
  3  4  2  0
  3  5  1  0
  5 34  1  0
  5  6  1  0
  5 39  1  6
  7  6  1  6
  6 40  1  0
  6 41  1  0
  7 12  1  0
  7 33  1  0
  7  8  1  0
  8  9  1  0
  8 42  1  0
  8 43  1  0
  9 10  1  0
  9 44  1  0
  9 45  1  0
 10 33  1  0
 10 11  1  0
 10 71  1  6
 11 28  1  0
 11 12  1  0
 11 46  1  1
 12 13  1  0
 12 47  1  6
 13 14  1  0
 14 20  2  0
 14 15  1  0
 15 16  1  0
 15 17  2  0
 16 48  1  0
 17 18  1  0
 17 49  1  0
 18 19  2  0
 18 50  1  0
 19 23  1  0
 19 20  1  0
 20 21  1  0
 21 22  1  0
 21 33  1  0
 21 34  1  1
 22 23  1  0
 22 24  1  0
 22 51  1  1
 23 52  1  0
 23 53  1  0
 24 25  1  0
 24 26  1  0
 24 54  1  6
 25 55  1  0
 26 27  1  0
 26 56  1  0
 26 57  1  0
 27 28  1  0
 27 58  1  0
 27 59  1  0
 28 29  1  0
 29 30  1  0
 29 60  1  0
 29 61  1  0
 30 32  1  0
 30 31  1  0
 30 62  1  0
 31 32  1  0
 31 63  1  0
 31 64  1  0
 32 65  1  0
 32 66  1  0
 33 67  1  6
 34 35  1  0
 35 68  1  0
 35 69  1  0
 35 70  1  0
M  CHG  1  10   1
M  END
>  <i_m_ct_stereo_status>  (247) 
1

>  <s_m_source_file>  (247) 
/var/tmp/pbs.5076255.sched01/tmpzygr1bk5/76dkit4mfj.sdf

>  <i_m_source_file_index>  (247) 
38

>  <i_lp_mmshare_version>  (247) 
48012

>  <i_f3d_flags>  (247) 
0

>  <s_epik_input>  (247) 
W0NIM11PQyg9TylbQ0BIXShbQ0gyXTEpTihbQ0gzXSlbQ0BdMihbQ0BIXTNOKFtDSDJdW0NIMl00KVtDQEhdNVtDQEBIXTZbQ0BAXTEzNCljN2MoTzYpYyhbT0hdKVtjSF1bY0hdYzdbQ0gyXVtDQEhdMltDQEBIXShbT0hdKVtDSDJdW0NIMl1ONVtDSDJdW0NIXThbQ0gyXVtDSDJdOA==

>  <s_epik_cmdline>  (247) 
J2VwaWtfcHl0aG9uJywgJy1waHQnLCAnMi4wJywgJy1waCcsICc3LjAnLCAnLXRuJywgJzgnLCAnLW1hJywgJzIwMCcsICctaW1hZScsICc8aW5maWxlLm1hZT4nLCAnLW9tYWUnLCAnPG91dGZpbGUubWFlPic=

>  <r_epik_Ionization_Penalty>  (247) 
0.0727537

>  <r_epik_Ionization_Penalty_Charging>  (247) 
0.0705232

>  <r_epik_Ionization_Penalty_Neutral>  (247) 
0.00223052

>  <r_epik_State_Penalty>  (247) 
0.483987

>  <r_epik_Charging_Adjusted_Penalty>  (247) 
0.55451

>  <i_epik_Tot_Q>  (247) 
1

>  <i_epik_Tot_abs_Q>  (247) 
1

>  <s_epik_Chemistry_Notes>  (247) 
This compound has an ester and may undergo hydrolysis at high or low pH. This compound contains an acetal/aminal-like group ( X-CH(R)-Y where X, Y are N, S, or O) that may be acid/base labile, releasing an aldehyde.

>  <s_lp_Force_Field>  (247) 
OPLS3e

>  <r_lp_Energy>  (247) 
151.578

>  <b_lp_Chiralities_Consistent>  (247) 
1

>  <s_lp_Variant>  (247) 
85:0-3

>  <s_i_glide_gridfile>  (247) 
pfpi4k_grid

>  <i_i_glide_lignum>  (247) 
38

>  <i_i_glide_rotatable_bonds>  (247) 
6

>  <r_i_docking_score>  (247) 
-2.70374

>  <r_i_glide_ligand_efficiency>  (247) 
-0.0772498

>  <r_i_glide_ligand_efficiency_sa>  (247) 
-0.252689

>  <r_i_glide_ligand_efficiency_ln>  (247) 
-0.593532

>  <r_i_glide_gscore>  (247) 
-2.70374

>  <r_i_glide_lipo>  (247) 
-0.162839

>  <r_i_glide_hbond>  (247) 
-0.16

>  <r_i_glide_metal>  (247) 
-0

>  <r_i_glide_rewards>  (247) 
-0.170032

>  <r_i_glide_evdw>  (247) 
-20.1358

>  <r_i_glide_ecoul>  (247) 
-9.65051

>  <r_i_glide_erotb>  (247) 
0.261423

>  <r_i_glide_esite>  (247) 
-0.0179262

>  <r_i_glide_emodel>  (247) 
-34.6408

>  <r_i_glide_energy>  (247) 
-29.7863

>  <r_i_glide_einternal>  (247) 
2.14108

>  <r_i_glide_intrahb_reward>  (247) 
-0

>  <i_i_glide_confnum>  (247) 
1

>  <i_i_glide_posenum>  (247) 
36

>  <r_i_glide_eff_state_penalty>  (247) 
0

>  <ligand_id>  (247) 
85

>  <original_smiles>  (247) 
COC(=O)C1CC23CCN4C5C2Oc2c(O)ccc6c2C(C(C6)C(O)CCN5CC2CC2)(C43)N1C

>  <smiles>  (247) 
[H]Oc1c([H])c([H])c2c3c1OC1([H])C45C([H])([H])C([H])(C(=O)OC([H])([H])[H])N(C([H])([H])[H])C36C([H])(C2([H])[H])C([H])(O[H])C([H])([H])C([H])([H])N(C([H])([H])C2([H])C([H])([H])C2([H])[H])C1([H])[N+]([H])(C([H])([H])C4([H])[H])C65[H]

$$$$
85:2:1
     RDKit          3D

 71 78  0  0  1  0  0  0  0  0999 V2000
   -2.8740    2.7835    9.2998 C   0  0  0  0  0  0  0  0  0  0  0  0
   -2.4240    3.1344    7.9940 O   0  0  0  0  0  0  0  0  0  0  0  0
   -2.0931    2.1736    7.1070 C   0  0  0  0  0  0  0  0  0  0  0  0
   -2.3086    0.9748    7.2715 O   0  0  0  0  0  0  0  0  0  0  0  0
   -1.4562    2.7873    5.8210 C   0  0  2  0  0  0  0  0  0  0  0  0
   -1.6188    1.8617    4.5635 C   0  0  0  0  0  0  0  0  0  0  0  0
   -0.3081    1.3810    3.8933 C   0  0  2  0  0  0  0  0  0  0  0  0
   -0.3280    1.4668    2.3537 C   0  0  0  0  0  0  0  0  0  0  0  0
    1.1759    1.5852    2.0366 C   0  0  0  0  0  0  0  0  0  0  0  0
    1.8115    1.6261    3.3693 N   0  0  2  0  0  0  0  0  0  0  0  0
    1.8290    0.3337    4.0385 C   0  0  1  0  0  0  0  0  0  0  0  0
    0.3173   -0.0145    4.2277 C   0  0  1  0  0  0  0  0  0  0  0  0
   -0.0771   -0.4666    5.5152 O   0  0  0  0  0  0  0  0  0  0  0  0
    0.4701    0.1021    6.6519 C   0  0  0  0  0  0  0  0  0  0  0  0
    0.5328   -0.7274    7.7991 C   0  0  0  0  0  0  0  0  0  0  0  0
   -0.0387   -1.9629    7.7570 O   0  0  0  0  0  0  0  0  0  0  0  0
    1.2043   -0.3373    8.9866 C   0  0  0  0  0  0  0  0  0  0  0  0
    1.8943    0.8872    9.0442 C   0  0  0  0  0  0  0  0  0  0  0  0
    1.8189    1.7497    7.9438 C   0  0  0  0  0  0  0  0  0  0  0  0
    1.0586    1.3892    6.8077 C   0  0  0  0  0  0  0  0  0  0  0  0
    1.0822    2.5298    5.7457 C   0  0  1  0  0  0  0  0  0  0  0  0
    2.4697    3.2010    6.0712 C   0  0  1  0  0  0  0  0  0  0  0  0
    2.6194    2.9765    7.5961 C   0  0  0  0  0  0  0  0  0  0  0  0
    3.7734    2.6985    5.3104 C   0  0  1  0  0  0  0  0  0  0  0  0
    4.8254    3.5431    5.7395 O   0  0  0  0  0  0  0  0  0  0  0  0
    4.2746    1.1988    5.4339 C   0  0  0  0  0  0  0  0  0  0  0  0
    4.2396    0.3049    4.1242 C   0  0  0  0  0  0  0  0  0  0  0  0
    3.0085   -0.4997    3.8702 N   0  0  0  0  0  0  0  0  0  0  0  0
    3.0384   -1.2316    2.6066 C   0  0  0  0  0  0  0  0  0  0  0  0
    4.1465   -2.2698    2.5324 C   0  0  0  0  0  0  0  0  0  0  0  0
    5.3922   -2.0223    1.7086 C   0  0  0  0  0  0  0  0  0  0  0  0
    4.3650   -3.0155    1.2323 C   0  0  0  0  0  0  0  0  0  0  0  0
    0.8357    2.3279    4.1917 C   0  0  2  0  0  0  0  0  0  0  0  0
   -0.0914    3.4339    5.9363 N   0  0  0  0  0  0  0  0  0  0  0  0
   -0.0615    4.5178    6.9274 C   0  0  0  0  0  0  0  0  0  0  0  0
   -3.1098    3.6770    9.8830 H   0  0  0  0  0  0  0  0  0  0  0  0
   -2.0907    2.2409    9.8317 H   0  0  0  0  0  0  0  0  0  0  0  0
   -3.7695    2.1610    9.2855 H   0  0  0  0  0  0  0  0  0  0  0  0
   -2.1298    3.6078    5.5923 H   0  0  0  0  0  0  0  0  0  0  0  0
   -2.2265    0.9895    4.7810 H   0  0  0  0  0  0  0  0  0  0  0  0
   -2.2084    2.4197    3.8257 H   0  0  0  0  0  0  0  0  0  0  0  0
   -0.7800    0.5898    1.8815 H   0  0  0  0  0  0  0  0  0  0  0  0
   -0.8694    2.3490    2.0014 H   0  0  0  0  0  0  0  0  0  0  0  0
    1.5192    0.7888    1.3841 H   0  0  0  0  0  0  0  0  0  0  0  0
    1.3602    2.5134    1.5060 H   0  0  0  0  0  0  0  0  0  0  0  0
    2.1295    0.5145    5.0319 H   0  0  0  0  0  0  0  0  0  0  0  0
   -0.0034   -0.7641    3.5045 H   0  0  0  0  0  0  0  0  0  0  0  0
    0.3272   -2.5572    8.3936 H   0  0  0  0  0  0  0  0  0  0  0  0
    1.2302   -1.0051    9.8352 H   0  0  0  0  0  0  0  0  0  0  0  0
    2.4902    1.1464    9.9133 H   0  0  0  0  0  0  0  0  0  0  0  0
    2.4337    4.2690    5.8509 H   0  0  0  0  0  0  0  0  0  0  0  0
    2.1939    3.7962    8.1635 H   0  0  0  0  0  0  0  0  0  0  0  0
    3.6517    2.8718    7.9276 H   0  0  0  0  0  0  0  0  0  0  0  0
    3.7074    2.9496    4.2543 H   0  0  0  0  0  0  0  0  0  0  0  0
    4.6121    4.4350    5.5125 H   0  0  0  0  0  0  0  0  0  0  0  0
    5.3265    1.2349    5.7240 H   0  0  0  0  0  0  0  0  0  0  0  0
    3.8319    0.6717    6.2829 H   0  0  0  0  0  0  0  0  0  0  0  0
    4.5031    0.9127    3.2574 H   0  0  0  0  0  0  0  0  0  0  0  0
    5.0544   -0.4143    4.2097 H   0  0  0  0  0  0  0  0  0  0  0  0
    2.0879   -1.7541    2.4798 H   0  0  0  0  0  0  0  0  0  0  0  0
    3.1547   -0.5501    1.7665 H   0  0  0  0  0  0  0  0  0  0  0  0
    4.2570   -2.8811    3.4260 H   0  0  0  0  0  0  0  0  0  0  0  0
    5.4621   -1.0667    1.1923 H   0  0  0  0  0  0  0  0  0  0  0  0
    6.3326   -2.4192    2.0820 H   0  0  0  0  0  0  0  0  0  0  0  0
    4.6387   -4.0672    1.2784 H   0  0  0  0  0  0  0  0  0  0  0  0
    3.7502   -2.7354    0.3786 H   0  0  0  0  0  0  0  0  0  0  0  0
    0.6793    3.3122    3.7320 H   0  0  0  0  0  0  0  0  0  0  0  0
    0.7479    5.2252    6.7469 H   0  0  0  0  0  0  0  0  0  0  0  0
   -0.0249    4.1841    7.9673 H   0  0  0  0  0  0  0  0  0  0  0  0
   -0.9636    5.1213    6.8239 H   0  0  0  0  0  0  0  0  0  0  0  0
    2.7185    2.0721    3.3278 H   0  0  0  0  0  0  0  0  0  0  0  0
  1  2  1  0
  1 36  1  0
  1 37  1  0
  1 38  1  0
  2  3  1  0
  3  4  2  0
  3  5  1  0
  5 34  1  0
  5  6  1  0
  5 39  1  6
  7  6  1  1
  6 40  1  0
  6 41  1  0
  7 12  1  0
  7 33  1  0
  7  8  1  0
  8  9  1  0
  8 42  1  0
  8 43  1  0
  9 10  1  0
  9 44  1  0
  9 45  1  0
 10 33  1  0
 10 11  1  0
 10 71  1  6
 11 28  1  0
 11 12  1  0
 11 46  1  1
 12 13  1  0
 12 47  1  6
 13 14  1  0
 14 20  2  0
 14 15  1  0
 15 16  1  0
 15 17  2  0
 16 48  1  0
 17 18  1  0
 17 49  1  0
 18 19  2  0
 18 50  1  0
 19 23  1  0
 19 20  1  0
 20 21  1  0
 21 22  1  0
 21 33  1  0
 21 34  1  1
 22 23  1  0
 22 24  1  0
 22 51  1  1
 23 52  1  0
 23 53  1  0
 24 25  1  0
 24 26  1  0
 24 54  1  6
 25 55  1  0
 26 27  1  0
 26 56  1  0
 26 57  1  0
 27 28  1  0
 27 58  1  0
 27 59  1  0
 28 29  1  0
 29 30  1  0
 29 60  1  0
 29 61  1  0
 30 32  1  0
 30 31  1  0
 30 62  1  0
 31 32  1  0
 31 63  1  0
 31 64  1  0
 32 65  1  0
 32 66  1  0
 33 67  1  6
 34 35  1  0
 35 68  1  0
 35 69  1  0
 35 70  1  0
M  CHG  1  10   1
M  END
>  <i_m_ct_stereo_status>  (248) 
1

>  <s_m_source_file>  (248) 
/var/tmp/pbs.5076255.sched01/tmpzygr1bk5/76dkit4mfj.sdf

>  <i_m_source_file_index>  (248) 
38

>  <i_lp_mmshare_version>  (248) 
48012

>  <i_f3d_flags>  (248) 
0

>  <s_epik_input>  (248) 
W0NIM11PQyg9TylbQ0BIXShbQ0gyXTEpTihbQ0gzXSlbQ0BdMihbQ0BIXTNOKFtDSDJdW0NIMl00KVtDQEhdNVtDQEBIXTZbQ0BAXTEzNCljN2MoTzYpYyhbT0hdKVtjSF1bY0hdYzdbQ0gyXVtDQEhdMltDQEBIXShbT0hdKVtDSDJdW0NIMl1ONVtDSDJdW0NIXThbQ0gyXVtDSDJdOA==

>  <s_epik_cmdline>  (248) 
J2VwaWtfcHl0aG9uJywgJy1waHQnLCAnMi4wJywgJy1waCcsICc3LjAnLCAnLXRuJywgJzgnLCAnLW1hJywgJzIwMCcsICctaW1hZScsICc8aW5maWxlLm1hZT4nLCAnLW9tYWUnLCAnPG91dGZpbGUubWFlPic=

>  <r_epik_Ionization_Penalty>  (248) 
0.0727537

>  <r_epik_Ionization_Penalty_Charging>  (248) 
0.0705232

>  <r_epik_Ionization_Penalty_Neutral>  (248) 
0.00223052

>  <r_epik_State_Penalty>  (248) 
0.483987

>  <r_epik_Charging_Adjusted_Penalty>  (248) 
0.55451

>  <i_epik_Tot_Q>  (248) 
1

>  <i_epik_Tot_abs_Q>  (248) 
1

>  <s_epik_Chemistry_Notes>  (248) 
This compound has an ester and may undergo hydrolysis at high or low pH. This compound contains an acetal/aminal-like group ( X-CH(R)-Y where X, Y are N, S, or O) that may be acid/base labile, releasing an aldehyde.

>  <s_lp_Force_Field>  (248) 
OPLS3e

>  <r_lp_Energy>  (248) 
151.578

>  <b_lp_Chiralities_Consistent>  (248) 
1

>  <s_lp_Variant>  (248) 
85:0-3

>  <s_i_glide_gridfile>  (248) 
pfpi4k_grid

>  <i_i_glide_lignum>  (248) 
38

>  <i_i_glide_rotatable_bonds>  (248) 
6

>  <r_i_docking_score>  (248) 
-2.55873

>  <r_i_glide_ligand_efficiency>  (248) 
-0.0731065

>  <r_i_glide_ligand_efficiency_sa>  (248) 
-0.239136

>  <r_i_glide_ligand_efficiency_ln>  (248) 
-0.561698

>  <r_i_glide_gscore>  (248) 
-2.55873

>  <r_i_glide_lipo>  (248) 
-0.135508

>  <r_i_glide_hbond>  (248) 
-0.16

>  <r_i_glide_metal>  (248) 
-0

>  <r_i_glide_rewards>  (248) 
-0.118692

>  <r_i_glide_evdw>  (248) 
-19.395

>  <r_i_glide_ecoul>  (248) 
-9.41516

>  <r_i_glide_erotb>  (248) 
0.261423

>  <r_i_glide_esite>  (248) 
-0.0239273

>  <r_i_glide_emodel>  (248) 
-33.5623

>  <r_i_glide_energy>  (248) 
-28.8102

>  <r_i_glide_einternal>  (248) 
1.7929

>  <r_i_glide_intrahb_reward>  (248) 
-0

>  <i_i_glide_confnum>  (248) 
1

>  <i_i_glide_posenum>  (248) 
38

>  <r_i_glide_eff_state_penalty>  (248) 
0

>  <ligand_id>  (248) 
85

>  <original_smiles>  (248) 
COC(=O)C1CC23CCN4C5C2Oc2c(O)ccc6c2C(C(C6)C(O)CCN5CC2CC2)(C43)N1C

>  <smiles>  (248) 
[H]Oc1c([H])c([H])c2c3c1OC1([H])C45C([H])([H])C([H])(C(=O)OC([H])([H])[H])N(C([H])([H])[H])C36C([H])(C2([H])[H])C([H])(O[H])C([H])([H])C([H])([H])N(C([H])([H])C2([H])C([H])([H])C2([H])[H])C1([H])[N+]([H])(C([H])([H])C4([H])[H])C65[H]

$$$$
85:2:2
     RDKit          3D

 71 78  0  0  1  0  0  0  0  0999 V2000
   -2.0375    2.3613    9.4566 C   0  0  0  0  0  0  0  0  0  0  0  0
   -1.4383    2.8021    8.2450 O   0  0  0  0  0  0  0  0  0  0  0  0
   -1.4686    2.0120    7.1569 C   0  0  0  0  0  0  0  0  0  0  0  0
   -2.0802    0.9524    7.1018 O   0  0  0  0  0  0  0  0  0  0  0  0
   -0.6769    2.6523    5.9738 C   0  0  2  0  0  0  0  0  0  0  0  0
   -1.1571    2.1420    4.5677 C   0  0  0  0  0  0  0  0  0  0  0  0
   -0.0882    1.4387    3.6937 C   0  0  2  0  0  0  0  0  0  0  0  0
   -0.1178    1.8638    2.2124 C   0  0  0  0  0  0  0  0  0  0  0  0
    1.3376    1.5832    1.7809 C   0  0  0  0  0  0  0  0  0  0  0  0
    1.9930    1.1032    3.0265 N   0  0  2  0  0  0  0  0  0  0  0  0
    1.5732   -0.2498    3.4083 C   0  0  1  0  0  0  0  0  0  0  0  0
    0.0396   -0.1154    3.6773 C   0  0  1  0  0  0  0  0  0  0  0  0
   -0.4726   -0.6946    4.8659 O   0  0  0  0  0  0  0  0  0  0  0  0
    0.2496   -0.6239    6.0330 C   0  0  0  0  0  0  0  0  0  0  0  0
    0.0555   -1.6792    6.9599 C   0  0  0  0  0  0  0  0  0  0  0  0
   -0.8914   -2.6289    6.6923 O   0  0  0  0  0  0  0  0  0  0  0  0
    0.8258   -1.7997    8.1354 C   0  0  0  0  0  0  0  0  0  0  0  0
    1.8831   -0.9087    8.3892 C   0  0  0  0  0  0  0  0  0  0  0  0
    2.0961    0.1486    7.4936 C   0  0  0  0  0  0  0  0  0  0  0  0
    1.2427    0.3335    6.3965 C   0  0  0  0  0  0  0  0  0  0  0  0
    1.6355    1.6187    5.6093 C   0  0  1  0  0  0  0  0  0  0  0  0
    3.1777    1.6953    5.9445 C   0  0  1  0  0  0  0  0  0  0  0  0
    3.2563    1.0970    7.3669 C   0  0  0  0  0  0  0  0  0  0  0  0
    4.2226    0.9793    4.9747 C   0  0  1  0  0  0  0  0  0  0  0  0
    5.5171    1.3045    5.4446 O   0  0  0  0  0  0  0  0  0  0  0  0
    4.1869   -0.5858    4.7274 C   0  0  0  0  0  0  0  0  0  0  0  0
    3.8314   -1.0905    3.2670 C   0  0  0  0  0  0  0  0  0  0  0  0
    2.3986   -1.3671    2.9646 N   0  0  0  0  0  0  0  0  0  0  0  0
    2.1623   -1.7493    1.5741 C   0  0  0  0  0  0  0  0  0  0  0  0
    2.8060   -3.0737    1.1954 C   0  0  0  0  0  0  0  0  0  0  0  0
    4.0432   -3.0987    0.3234 C   0  0  0  0  0  0  0  0  0  0  0  0
    2.7187   -3.5437   -0.2416 C   0  0  0  0  0  0  0  0  0  0  0  0
    1.3140    1.8716    4.0743 C   0  0  2  0  0  0  0  0  0  0  0  0
    0.8259    2.7702    6.1090 N   0  0  0  0  0  0  0  0  0  0  0  0
    1.2429    3.5507    7.2808 C   0  0  0  0  0  0  0  0  0  0  0  0
   -1.9195    3.1100   10.2419 H   0  0  0  0  0  0  0  0  0  0  0  0
   -1.5556    1.4447    9.8016 H   0  0  0  0  0  0  0  0  0  0  0  0
   -3.1060    2.1686    9.3342 H   0  0  0  0  0  0  0  0  0  0  0  0
   -1.0208    3.6849    5.9780 H   0  0  0  0  0  0  0  0  0  0  0  0
   -2.0377    1.5060    4.6423 H   0  0  0  0  0  0  0  0  0  0  0  0
   -1.5155    3.0234    4.0267 H   0  0  0  0  0  0  0  0  0  0  0  0
   -0.8407    1.3103    1.6062 H   0  0  0  0  0  0  0  0  0  0  0  0
   -0.3608    2.9225    2.1238 H   0  0  0  0  0  0  0  0  0  0  0  0
    1.3968    0.8791    0.9507 H   0  0  0  0  0  0  0  0  0  0  0  0
    1.8075    2.5162    1.4561 H   0  0  0  0  0  0  0  0  0  0  0  0
    1.9301   -0.4043    4.3871 H   0  0  0  0  0  0  0  0  0  0  0  0
   -0.5370   -0.5281    2.8587 H   0  0  0  0  0  0  0  0  0  0  0  0
   -0.7532   -3.4358    7.1656 H   0  0  0  0  0  0  0  0  0  0  0  0
    0.6416   -2.6153    8.8197 H   0  0  0  0  0  0  0  0  0  0  0  0
    2.5406   -1.0648    9.2309 H   0  0  0  0  0  0  0  0  0  0  0  0
    3.5035    2.7353    5.9502 H   0  0  0  0  0  0  0  0  0  0  0  0
    3.1397    1.8651    8.1261 H   0  0  0  0  0  0  0  0  0  0  0  0
    4.1978    0.5945    7.5762 H   0  0  0  0  0  0  0  0  0  0  0  0
    4.2195    1.4829    4.0104 H   0  0  0  0  0  0  0  0  0  0  0  0
    5.6753    0.8650    6.2665 H   0  0  0  0  0  0  0  0  0  0  0  0
    5.1911   -0.9703    4.9199 H   0  0  0  0  0  0  0  0  0  0  0  0
    3.5953   -1.1110    5.4795 H   0  0  0  0  0  0  0  0  0  0  0  0
    4.2650   -0.4164    2.5257 H   0  0  0  0  0  0  0  0  0  0  0  0
    4.3571   -2.0344    3.1225 H   0  0  0  0  0  0  0  0  0  0  0  0
    1.0861   -1.8480    1.4312 H   0  0  0  0  0  0  0  0  0  0  0  0
    2.5130   -0.9758    0.8911 H   0  0  0  0  0  0  0  0  0  0  0  0
    2.7109   -3.8620    1.9431 H   0  0  0  0  0  0  0  0  0  0  0  0
    4.4413   -2.1384   -0.0028 H   0  0  0  0  0  0  0  0  0  0  0  0
    4.7866   -3.8679    0.5223 H   0  0  0  0  0  0  0  0  0  0  0  0
    2.6016   -4.6077   -0.4341 H   0  0  0  0  0  0  0  0  0  0  0  0
    2.2329   -2.8870   -0.9619 H   0  0  0  0  0  0  0  0  0  0  0  0
    1.4940    2.9286    3.8487 H   0  0  0  0  0  0  0  0  0  0  0  0
    2.2421    3.9698    7.1718 H   0  0  0  0  0  0  0  0  0  0  0  0
    1.1848    2.9949    8.2154 H   0  0  0  0  0  0  0  0  0  0  0  0
    0.5926    4.4198    7.3831 H   0  0  0  0  0  0  0  0  0  0  0  0
    2.9901    1.2248    3.0083 H   0  0  0  0  0  0  0  0  0  0  0  0
  1  2  1  0
  1 36  1  0
  1 37  1  0
  1 38  1  0
  2  3  1  0
  3  4  2  0
  3  5  1  0
  5 34  1  0
  5  6  1  0
  5 39  1  6
  7  6  1  1
  6 40  1  0
  6 41  1  0
  7 12  1  0
  7 33  1  0
  7  8  1  0
  8  9  1  0
  8 42  1  0
  8 43  1  0
  9 10  1  0
  9 44  1  0
  9 45  1  0
 10 33  1  0
 10 11  1  0
 10 71  1  6
 11 28  1  0
 11 12  1  0
 11 46  1  1
 12 13  1  0
 12 47  1  6
 13 14  1  0
 14 20  2  0
 14 15  1  0
 15 16  1  0
 15 17  2  0
 16 48  1  0
 17 18  1  0
 17 49  1  0
 18 19  2  0
 18 50  1  0
 19 23  1  0
 19 20  1  0
 20 21  1  0
 21 22  1  0
 21 33  1  0
 21 34  1  1
 22 23  1  0
 22 24  1  0
 22 51  1  1
 23 52  1  0
 23 53  1  0
 24 25  1  0
 24 26  1  0
 24 54  1  6
 25 55  1  0
 26 27  1  0
 26 56  1  0
 26 57  1  0
 27 28  1  0
 27 58  1  0
 27 59  1  0
 28 29  1  0
 29 30  1  0
 29 60  1  0
 29 61  1  0
 30 32  1  0
 30 31  1  0
 30 62  1  0
 31 32  1  0
 31 63  1  0
 31 64  1  0
 32 65  1  0
 32 66  1  0
 33 67  1  6
 34 35  1  0
 35 68  1  0
 35 69  1  0
 35 70  1  0
M  CHG  1  10   1
M  END
>  <i_m_ct_stereo_status>  (249) 
1

>  <s_m_source_file>  (249) 
/var/tmp/pbs.5076255.sched01/tmpzygr1bk5/76dkit4mfj.sdf

>  <i_m_source_file_index>  (249) 
38

>  <i_lp_mmshare_version>  (249) 
48012

>  <i_f3d_flags>  (249) 
0

>  <s_epik_input>  (249) 
W0NIM11PQyg9TylbQ0BIXShbQ0gyXTEpTihbQ0gzXSlbQ0BdMihbQ0BIXTNOKFtDSDJdW0NIMl00KVtDQEhdNVtDQEBIXTZbQ0BAXTEzNCljN2MoTzYpYyhbT0hdKVtjSF1bY0hdYzdbQ0gyXVtDQEhdMltDQEBIXShbT0hdKVtDSDJdW0NIMl1ONVtDSDJdW0NIXThbQ0gyXVtDSDJdOA==

>  <s_epik_cmdline>  (249) 
J2VwaWtfcHl0aG9uJywgJy1waHQnLCAnMi4wJywgJy1waCcsICc3LjAnLCAnLXRuJywgJzgnLCAnLW1hJywgJzIwMCcsICctaW1hZScsICc8aW5maWxlLm1hZT4nLCAnLW9tYWUnLCAnPG91dGZpbGUubWFlPic=

>  <r_epik_Ionization_Penalty>  (249) 
0.0727537

>  <r_epik_Ionization_Penalty_Charging>  (249) 
0.0705232

>  <r_epik_Ionization_Penalty_Neutral>  (249) 
0.00223052

>  <r_epik_State_Penalty>  (249) 
0.483987

>  <r_epik_Charging_Adjusted_Penalty>  (249) 
0.55451

>  <i_epik_Tot_Q>  (249) 
1

>  <i_epik_Tot_abs_Q>  (249) 
1

>  <s_epik_Chemistry_Notes>  (249) 
This compound has an ester and may undergo hydrolysis at high or low pH. This compound contains an acetal/aminal-like group ( X-CH(R)-Y where X, Y are N, S, or O) that may be acid/base labile, releasing an aldehyde.

>  <s_lp_Force_Field>  (249) 
OPLS3e

>  <r_lp_Energy>  (249) 
151.578

>  <b_lp_Chiralities_Consistent>  (249) 
1

>  <s_lp_Variant>  (249) 
85:0-3

>  <s_i_glide_gridfile>  (249) 
pfpi4k_grid

>  <i_i_glide_lignum>  (249) 
38

>  <i_i_glide_rotatable_bonds>  (249) 
6

>  <r_i_docking_score>  (249) 
-2.25271

>  <r_i_glide_ligand_efficiency>  (249) 
-0.0643633

>  <r_i_glide_ligand_efficiency_sa>  (249) 
-0.210536

>  <r_i_glide_ligand_efficiency_ln>  (249) 
-0.494521

>  <r_i_glide_gscore>  (249) 
-2.25271

>  <r_i_glide_lipo>  (249) 
-0.0148415

>  <r_i_glide_hbond>  (249) 
-0.16

>  <r_i_glide_metal>  (249) 
-0

>  <r_i_glide_rewards>  (249) 
-0.118692

>  <r_i_glide_evdw>  (249) 
-18.8109

>  <r_i_glide_ecoul>  (249) 
-8.32913

>  <r_i_glide_erotb>  (249) 
0.261423

>  <r_i_glide_esite>  (249) 
-0.0306882

>  <r_i_glide_emodel>  (249) 
-31.4383

>  <r_i_glide_energy>  (249) 
-27.14

>  <r_i_glide_einternal>  (249) 
1.29362

>  <r_i_glide_intrahb_reward>  (249) 
-0

>  <i_i_glide_confnum>  (249) 
1

>  <i_i_glide_posenum>  (249) 
28

>  <r_i_glide_eff_state_penalty>  (249) 
0

>  <ligand_id>  (249) 
85

>  <original_smiles>  (249) 
COC(=O)C1CC23CCN4C5C2Oc2c(O)ccc6c2C(C(C6)C(O)CCN5CC2CC2)(C43)N1C

>  <smiles>  (249) 
[H]Oc1c([H])c([H])c2c3c1OC1([H])C45C([H])([H])C([H])(C(=O)OC([H])([H])[H])N(C([H])([H])[H])C36C([H])(C2([H])[H])C([H])(O[H])C([H])([H])C([H])([H])N(C([H])([H])C2([H])C([H])([H])C2([H])[H])C1([H])[N+]([H])(C([H])([H])C4([H])[H])C65[H]

$$$$
86:0:0
     RDKit          3D

 64 69  0  0  1  0  0  0  0  0999 V2000
   -1.5236   -8.9231    3.6244 C   0  0  0  0  0  0  0  0  0  0  0  0
   -0.1888   -9.5728    3.7256 N   0  0  1  0  0  0  0  0  0  0  0  0
    0.5804   -9.7809    2.4843 C   0  0  2  0  0  0  0  0  0  0  0  0
    1.8584  -10.4650    3.0053 C   0  0  0  0  0  0  0  0  0  0  0  0
    2.0107   -9.9366    4.4539 C   0  0  0  0  0  0  0  0  0  0  0  0
    0.8047   -8.9930    4.6458 C   0  0  1  0  0  0  0  0  0  0  0  0
    1.1275   -7.5337    4.2196 C   0  0  0  0  0  0  0  0  0  0  0  0
    1.6402   -7.4335    2.7609 C   0  0  1  0  0  0  0  0  0  0  0  0
    3.0171   -7.7929    2.7577 O   0  0  0  0  0  0  0  0  0  0  0  0
    3.8984   -6.9469    2.0437 C   0  0  2  0  0  0  0  0  0  0  0  0
    5.2393   -7.6913    1.8849 C   0  0  0  0  0  0  0  0  0  0  0  0
    6.1967   -6.9030    2.7976 C   0  0  2  0  0  0  0  0  0  0  0  0
    5.2431   -6.4669    3.9070 C   0  0  0  0  0  0  0  0  0  0  0  0
    4.2817   -5.7542    2.9458 C   0  0  1  0  0  0  0  0  0  0  0  0
    5.2538   -4.7440    2.2775 C   0  0  1  0  0  0  0  0  0  0  0  0
    6.5748   -5.5263    2.2140 C   0  0  2  0  0  0  0  0  0  0  0  0
    7.2827   -5.4447    0.8572 C   0  0  0  0  0  0  0  0  0  0  0  0
    7.4285   -3.9622    0.4560 C   0  0  0  0  0  0  0  0  0  0  0  0
    6.1001   -3.1238    0.4414 C   0  0  1  0  0  0  0  0  0  0  0  0
    6.3060   -1.8220    1.2429 C   0  0  0  0  0  0  0  0  0  0  0  0
    5.5846   -2.7559   -0.9650 C   0  0  1  0  0  0  0  0  0  0  0  0
    6.6097   -2.3160   -1.8521 O   0  0  0  0  0  0  0  0  0  0  0  0
    4.8021   -3.9625   -1.4833 C   0  0  0  0  0  0  0  0  0  0  0  0
    4.3244   -4.6949   -0.2285 C   0  0  0  0  0  0  0  0  0  0  0  0
    4.8952   -3.9379    0.9938 C   0  0  1  0  0  0  0  0  0  0  0  0
    0.8812   -8.4038    1.8202 C   0  0  0  0  0  0  0  0  0  0  0  0
   -1.5049   -7.8976    3.2534 H   0  0  0  0  0  0  0  0  0  0  0  0
   -2.0098   -8.8856    4.5949 H   0  0  0  0  0  0  0  0  0  0  0  0
   -2.1829   -9.4815    2.9652 H   0  0  0  0  0  0  0  0  0  0  0  0
    0.0299  -10.4448    1.8154 H   0  0  0  0  0  0  0  0  0  0  0  0
    1.7233  -11.5483    3.0254 H   0  0  0  0  0  0  0  0  0  0  0  0
    2.7267  -10.2752    2.3622 H   0  0  0  0  0  0  0  0  0  0  0  0
    1.9465  -10.7725    5.1541 H   0  0  0  0  0  0  0  0  0  0  0  0
    2.9699   -9.4404    4.6495 H   0  0  0  0  0  0  0  0  0  0  0  0
    0.4392   -9.0210    5.6749 H   0  0  0  0  0  0  0  0  0  0  0  0
    0.2382   -6.9107    4.3293 H   0  0  0  0  0  0  0  0  0  0  0  0
    1.8647   -7.0940    4.8963 H   0  0  0  0  0  0  0  0  0  0  0  0
    1.4908   -6.4005    2.4132 H   0  0  0  0  0  0  0  0  0  0  0  0
    3.4422   -6.7155    1.0894 H   0  0  0  0  0  0  0  0  0  0  0  0
    5.1510   -8.7290    2.2117 H   0  0  0  0  0  0  0  0  0  0  0  0
    5.5804   -7.7183    0.8541 H   0  0  0  0  0  0  0  0  0  0  0  0
    7.0566   -7.4807    3.1372 H   0  0  0  0  0  0  0  0  0  0  0  0
    4.7950   -7.3055    4.4421 H   0  0  0  0  0  0  0  0  0  0  0  0
    5.6973   -5.7982    4.6386 H   0  0  0  0  0  0  0  0  0  0  0  0
    3.4281   -5.2784    3.4324 H   0  0  0  0  0  0  0  0  0  0  0  0
    5.4082   -3.9785    3.0341 H   0  0  0  0  0  0  0  0  0  0  0  0
    7.2662   -5.0690    2.9266 H   0  0  0  0  0  0  0  0  0  0  0  0
    8.2705   -5.8946    0.9337 H   0  0  0  0  0  0  0  0  0  0  0  0
    6.7618   -5.9965    0.0781 H   0  0  0  0  0  0  0  0  0  0  0  0
    8.1196   -3.4988    1.1666 H   0  0  0  0  0  0  0  0  0  0  0  0
    7.9484   -3.9044   -0.4915 H   0  0  0  0  0  0  0  0  0  0  0  0
    5.4017   -1.2150    1.2751 H   0  0  0  0  0  0  0  0  0  0  0  0
    7.0896   -1.2116    0.7971 H   0  0  0  0  0  0  0  0  0  0  0  0
    6.5944   -2.0254    2.2698 H   0  0  0  0  0  0  0  0  0  0  0  0
    4.8685   -1.9303   -0.8737 H   0  0  0  0  0  0  0  0  0  0  0  0
    7.0862   -3.0614   -2.1597 H   0  0  0  0  0  0  0  0  0  0  0  0
    3.9719   -3.6593   -2.1184 H   0  0  0  0  0  0  0  0  0  0  0  0
    5.4202   -4.6357   -2.0792 H   0  0  0  0  0  0  0  0  0  0  0  0
    3.2330   -4.7403   -0.1915 H   0  0  0  0  0  0  0  0  0  0  0  0
    4.6790   -5.7167   -0.3032 H   0  0  0  0  0  0  0  0  0  0  0  0
    4.1158   -3.2323    1.2761 H   0  0  0  0  0  0  0  0  0  0  0  0
    1.4514   -8.5436    0.8981 H   0  0  0  0  0  0  0  0  0  0  0  0
   -0.0536   -7.9404    1.5041 H   0  0  0  0  0  0  0  0  0  0  0  0
   -0.3561  -10.4985    4.1082 H   0  0  0  0  0  0  0  0  0  0  0  0
  1  2  1  0
  1 27  1  0
  1 28  1  0
  1 29  1  0
  2  6  1  0
  2  3  1  0
  2 64  1  1
  3 26  1  0
  3  4  1  0
  3 30  1  6
  4  5  1  0
  4 31  1  0
  4 32  1  0
  5  6  1  0
  5 33  1  0
  5 34  1  0
  6  7  1  0
  6 35  1  1
  7  8  1  0
  7 36  1  0
  7 37  1  0
  8  9  1  0
  8 26  1  0
  8 38  1  6
  9 10  1  0
 10 14  1  0
 10 11  1  0
 10 39  1  6
 11 12  1  0
 11 40  1  0
 11 41  1  0
 12 16  1  0
 12 13  1  0
 12 42  1  1
 13 14  1  0
 13 43  1  0
 13 44  1  0
 14 15  1  0
 14 45  1  1
 15 25  1  0
 15 16  1  0
 15 46  1  1
 16 17  1  0
 16 47  1  1
 17 18  1  0
 17 48  1  0
 17 49  1  0
 18 19  1  0
 18 50  1  0
 18 51  1  0
 19 25  1  0
 19 20  1  1
 19 21  1  0
 20 52  1  0
 20 53  1  0
 20 54  1  0
 21 22  1  0
 21 23  1  0
 21 55  1  1
 22 56  1  0
 23 24  1  0
 23 57  1  0
 23 58  1  0
 24 25  1  0
 24 59  1  0
 24 60  1  0
 25 61  1  1
 26 62  1  0
 26 63  1  0
M  CHG  1   2   1
M  END
>  <i_m_ct_stereo_status>  (250) 
1

>  <s_m_source_file>  (250) 
/var/tmp/pbs.5076255.sched01/tmpua_2_py4/114lbcpx7pn.sdf

>  <i_m_source_file_index>  (250) 
2

>  <i_lp_mmshare_version>  (250) 
48012

>  <i_f3d_flags>  (250) 
0

>  <s_epik_input>  (250) 
W0NIM11OKFtDQEhdMTIpW0NAQEhdKFtDSDJdW0NIMl0xKVtDSDJdW0NASF0oW0NIMl0yKU9bQ0BIXShbQ0gyXVtDQEhdKFtDSDJdMylbQ0BIXTRbQ0gyXVtDSDJdNSlbQ0BASF0zW0NAQEhdNFtDQEBIXShbQ0BAXTU2W0NIM10pW0NIMl1bQ0gyXVtDQEBIXTZbT0hd

>  <s_epik_cmdline>  (250) 
J2VwaWtfcHl0aG9uJywgJy1waHQnLCAnMi4wJywgJy1waCcsICc3LjAnLCAnLXRuJywgJzgnLCAnLW1hJywgJzIwMCcsICctaW1hZScsICc8aW5maWxlLm1hZT4nLCAnLW9tYWUnLCAnPG91dGZpbGUubWFlPic=

>  <r_epik_Ionization_Penalty>  (250) 
0.00196466

>  <r_epik_Ionization_Penalty_Charging>  (250) 
0.00196172

>  <r_epik_Ionization_Penalty_Neutral>  (250) 
2.93392e-06

>  <r_epik_State_Penalty>  (250) 
0.0013383

>  <r_epik_Charging_Adjusted_Penalty>  (250) 
0.00330002

>  <i_epik_Tot_Q>  (250) 
1

>  <i_epik_Tot_abs_Q>  (250) 
1

>  <s_lp_Force_Field>  (250) 
OPLS3e

>  <r_lp_Energy>  (250) 
85.3315

>  <b_lp_Chiralities_Consistent>  (250) 
1

>  <s_lp_Variant>  (250) 
86:0-1

>  <s_i_glide_gridfile>  (250) 
pfpi4k_grid

>  <i_i_glide_lignum>  (250) 
2

>  <i_i_glide_rotatable_bonds>  (250) 
3

>  <r_i_docking_score>  (250) 
-3.66553

>  <r_i_glide_ligand_efficiency>  (250) 
-0.140982

>  <r_i_glide_ligand_efficiency_sa>  (250) 
-0.417658

>  <r_i_glide_ligand_efficiency_ln>  (250) 
-0.860837

>  <r_i_glide_gscore>  (250) 
-3.66553

>  <r_i_glide_lipo>  (250) 
-0.794947

>  <r_i_glide_hbond>  (250) 
-0.215117

>  <r_i_glide_metal>  (250) 
-0

>  <r_i_glide_rewards>  (250) 
-0.950773

>  <r_i_glide_evdw>  (250) 
-19.5283

>  <r_i_glide_ecoul>  (250) 
-6.41092

>  <r_i_glide_erotb>  (250) 
0.295085

>  <r_i_glide_esite>  (250) 
-0.0617236

>  <r_i_glide_emodel>  (250) 
-34.6392

>  <r_i_glide_energy>  (250) 
-25.9392

>  <r_i_glide_einternal>  (250) 
1.07125

>  <r_i_glide_intrahb_reward>  (250) 
-0

>  <i_i_glide_confnum>  (250) 
2

>  <i_i_glide_posenum>  (250) 
22

>  <r_i_glide_eff_state_penalty>  (250) 
0

>  <ligand_id>  (250) 
86

>  <original_smiles>  (250) 
CN1C2CCC1CC(OC1CC3CC1C1C3CCC3(C)C(O)CCC13)C2

>  <smiles>  (250) 
[H]OC1([H])C([H])([H])C([H])([H])C2([H])C3([H])C4([H])C([H])([H])C([H])(C([H])([H])C4([H])OC4([H])C([H])([H])C5([H])C([H])([H])C([H])([H])C([H])(C4([H])[H])[N+]5([H])C([H])([H])[H])C3([H])C([H])([H])C([H])([H])C12C([H])([H])[H]

$$$$
86:0:1
     RDKit          3D

 64 69  0  0  1  0  0  0  0  0999 V2000
   -1.9245   -8.5047    3.9126 C   0  0  0  0  0  0  0  0  0  0  0  0
   -0.5778   -9.0536    3.7334 N   0  0  1  0  0  0  0  0  0  0  0  0
   -0.0154   -9.0879    2.3721 C   0  0  2  0  0  0  0  0  0  0  0  0
    1.3642   -9.7163    2.6118 C   0  0  0  0  0  0  0  0  0  0  0  0
    1.7234   -9.3107    4.0641 C   0  0  0  0  0  0  0  0  0  0  0  0
    0.5179   -8.4795    4.5362 C   0  0  1  0  0  0  0  0  0  0  0  0
    0.6706   -6.9717    4.2087 C   0  0  0  0  0  0  0  0  0  0  0  0
    0.9264   -6.7081    2.7058 C   0  0  1  0  0  0  0  0  0  0  0  0
    2.3035   -6.9536    2.4571 O   0  0  0  0  0  0  0  0  0  0  0  0
    2.9847   -6.0308    1.6226 C   0  0  2  0  0  0  0  0  0  0  0  0
    4.3170   -6.6755    1.1769 C   0  0  0  0  0  0  0  0  0  0  0  0
    5.3803   -5.8583    1.9401 C   0  0  2  0  0  0  0  0  0  0  0  0
    4.6286   -5.5269    3.2265 C   0  0  0  0  0  0  0  0  0  0  0  0
    3.4632   -4.8477    2.4923 C   0  0  1  0  0  0  0  0  0  0  0  0
    4.2321   -3.7447    1.7123 C   0  0  1  0  0  0  0  0  0  0  0  0
    5.5598   -4.4344    1.3679 C   0  0  2  0  0  0  0  0  0  0  0  0
    5.9970   -4.2526   -0.0915 C   0  0  0  0  0  0  0  0  0  0  0  0
    5.9683   -2.7527   -0.4521 C   0  0  0  0  0  0  0  0  0  0  0  0
    4.6139   -2.0090   -0.1718 C   0  0  1  0  0  0  0  0  0  0  0  0
    4.9002   -0.7303    0.6412 C   0  0  0  0  0  0  0  0  0  0  0  0
    3.8161   -1.6342   -1.4423 C   0  0  1  0  0  0  0  0  0  0  0  0
    4.5923   -1.0995   -2.4946 O   0  0  0  0  0  0  0  0  0  0  0  0
    3.0421   -2.8779   -1.8611 C   0  0  0  0  0  0  0  0  0  0  0  0
    2.8611   -3.6779   -0.5735 C   0  0  0  0  0  0  0  0  0  0  0  0
    3.5893   -2.9189    0.5591 C   0  0  1  0  0  0  0  0  0  0  0  0
    0.0828   -7.6449    1.8015 C   0  0  0  0  0  0  0  0  0  0  0  0
   -2.0544   -7.4500    3.6622 H   0  0  0  0  0  0  0  0  0  0  0  0
   -2.1792   -8.6440    4.9547 H   0  0  0  0  0  0  0  0  0  0  0  0
   -2.6169   -9.0728    3.2950 H   0  0  0  0  0  0  0  0  0  0  0  0
   -0.6465   -9.7150    1.7421 H   0  0  0  0  0  0  0  0  0  0  0  0
    1.3018  -10.8075    2.5460 H   0  0  0  0  0  0  0  0  0  0  0  0
    2.1037   -9.4043    1.8633 H   0  0  0  0  0  0  0  0  0  0  0  0
    1.8281  -10.2088    4.6788 H   0  0  0  0  0  0  0  0  0  0  0  0
    2.6714   -8.7612    4.1544 H   0  0  0  0  0  0  0  0  0  0  0  0
    0.3250   -8.6254    5.5995 H   0  0  0  0  0  0  0  0  0  0  0  0
   -0.2246   -6.4305    4.5195 H   0  0  0  0  0  0  0  0  0  0  0  0
    1.4827   -6.5375    4.8008 H   0  0  0  0  0  0  0  0  0  0  0  0
    0.6740   -5.6622    2.4914 H   0  0  0  0  0  0  0  0  0  0  0  0
    2.3464   -5.7936    0.7824 H   0  0  0  0  0  0  0  0  0  0  0  0
    4.3534   -7.7247    1.4669 H   0  0  0  0  0  0  0  0  0  0  0  0
    4.4598   -6.6391    0.0994 H   0  0  0  0  0  0  0  0  0  0  0  0
    6.3225   -6.3885    2.0875 H   0  0  0  0  0  0  0  0  0  0  0  0
    4.3401   -6.4108    3.7920 H   0  0  0  0  0  0  0  0  0  0  0  0
    5.1704   -4.8554    3.8933 H   0  0  0  0  0  0  0  0  0  0  0  0
    2.6901   -4.4451    3.1514 H   0  0  0  0  0  0  0  0  0  0  0  0
    4.4786   -2.9977    2.4626 H   0  0  0  0  0  0  0  0  0  0  0  0
    6.3445   -3.9542    1.9631 H   0  0  0  0  0  0  0  0  0  0  0  0
    7.0062   -4.6298   -0.2183 H   0  0  0  0  0  0  0  0  0  0  0  0
    5.3796   -4.8182   -0.7930 H   0  0  0  0  0  0  0  0  0  0  0  0
    6.7552   -2.2768    0.1368 H   0  0  0  0  0  0  0  0  0  0  0  0
    6.2870   -2.6351   -1.4819 H   0  0  0  0  0  0  0  0  0  0  0  0
    3.9810   -0.1833    0.8704 H   0  0  0  0  0  0  0  0  0  0  0  0
    5.5461   -0.0529    0.0835 H   0  0  0  0  0  0  0  0  0  0  0  0
    5.3933   -0.9555    1.5844 H   0  0  0  0  0  0  0  0  0  0  0  0
    3.0690   -0.8750   -1.1733 H   0  0  0  0  0  0  0  0  0  0  0  0
    3.9906   -0.7376   -3.1263 H   0  0  0  0  0  0  0  0  0  0  0  0
    2.0868   -2.6178   -2.3257 H   0  0  0  0  0  0  0  0  0  0  0  0
    3.6093   -3.4655   -2.5878 H   0  0  0  0  0  0  0  0  0  0  0  0
    1.8061   -3.7943   -0.3355 H   0  0  0  0  0  0  0  0  0  0  0  0
    3.2652   -4.6703   -0.7451 H   0  0  0  0  0  0  0  0  0  0  0  0
    2.8344   -2.2771    1.0044 H   0  0  0  0  0  0  0  0  0  0  0  0
    0.4993   -7.6711    0.7929 H   0  0  0  0  0  0  0  0  0  0  0  0
   -0.9168   -7.2331    1.6875 H   0  0  0  0  0  0  0  0  0  0  0  0
   -0.6371  -10.0205    4.0344 H   0  0  0  0  0  0  0  0  0  0  0  0
  1  2  1  0
  1 27  1  0
  1 28  1  0
  1 29  1  0
  2  6  1  0
  2  3  1  0
  2 64  1  1
  3 26  1  0
  3  4  1  0
  3 30  1  6
  4  5  1  0
  4 31  1  0
  4 32  1  0
  5  6  1  0
  5 33  1  0
  5 34  1  0
  6  7  1  0
  6 35  1  1
  7  8  1  0
  7 36  1  0
  7 37  1  0
  8  9  1  0
  8 26  1  0
  8 38  1  6
  9 10  1  0
 10 14  1  0
 10 11  1  0
 10 39  1  6
 11 12  1  0
 11 40  1  0
 11 41  1  0
 12 16  1  0
 12 13  1  0
 12 42  1  1
 13 14  1  0
 13 43  1  0
 13 44  1  0
 14 15  1  0
 14 45  1  1
 15 25  1  0
 15 16  1  0
 15 46  1  1
 16 17  1  0
 16 47  1  1
 17 18  1  0
 17 48  1  0
 17 49  1  0
 18 19  1  0
 18 50  1  0
 18 51  1  0
 19 25  1  0
 19 20  1  1
 19 21  1  0
 20 52  1  0
 20 53  1  0
 20 54  1  0
 21 22  1  0
 21 23  1  0
 21 55  1  1
 22 56  1  0
 23 24  1  0
 23 57  1  0
 23 58  1  0
 24 25  1  0
 24 59  1  0
 24 60  1  0
 25 61  1  1
 26 62  1  0
 26 63  1  0
M  CHG  1   2   1
M  END
>  <i_m_ct_stereo_status>  (251) 
1

>  <s_m_source_file>  (251) 
/var/tmp/pbs.5076255.sched01/tmpua_2_py4/114lbcpx7pn.sdf

>  <i_m_source_file_index>  (251) 
2

>  <i_lp_mmshare_version>  (251) 
48012

>  <i_f3d_flags>  (251) 
0

>  <s_epik_input>  (251) 
W0NIM11OKFtDQEhdMTIpW0NAQEhdKFtDSDJdW0NIMl0xKVtDSDJdW0NASF0oW0NIMl0yKU9bQ0BIXShbQ0gyXVtDQEhdKFtDSDJdMylbQ0BIXTRbQ0gyXVtDSDJdNSlbQ0BASF0zW0NAQEhdNFtDQEBIXShbQ0BAXTU2W0NIM10pW0NIMl1bQ0gyXVtDQEBIXTZbT0hd

>  <s_epik_cmdline>  (251) 
J2VwaWtfcHl0aG9uJywgJy1waHQnLCAnMi4wJywgJy1waCcsICc3LjAnLCAnLXRuJywgJzgnLCAnLW1hJywgJzIwMCcsICctaW1hZScsICc8aW5maWxlLm1hZT4nLCAnLW9tYWUnLCAnPG91dGZpbGUubWFlPic=

>  <r_epik_Ionization_Penalty>  (251) 
0.00196466

>  <r_epik_Ionization_Penalty_Charging>  (251) 
0.00196172

>  <r_epik_Ionization_Penalty_Neutral>  (251) 
2.93392e-06

>  <r_epik_State_Penalty>  (251) 
0.0013383

>  <r_epik_Charging_Adjusted_Penalty>  (251) 
0.00330002

>  <i_epik_Tot_Q>  (251) 
1

>  <i_epik_Tot_abs_Q>  (251) 
1

>  <s_lp_Force_Field>  (251) 
OPLS3e

>  <r_lp_Energy>  (251) 
85.3315

>  <b_lp_Chiralities_Consistent>  (251) 
1

>  <s_lp_Variant>  (251) 
86:0-1

>  <s_i_glide_gridfile>  (251) 
pfpi4k_grid

>  <i_i_glide_lignum>  (251) 
2

>  <i_i_glide_rotatable_bonds>  (251) 
3

>  <r_i_docking_score>  (251) 
-3.07143

>  <r_i_glide_ligand_efficiency>  (251) 
-0.118132

>  <r_i_glide_ligand_efficiency_sa>  (251) 
-0.349965

>  <r_i_glide_ligand_efficiency_ln>  (251) 
-0.721314

>  <r_i_glide_gscore>  (251) 
-3.07143

>  <r_i_glide_lipo>  (251) 
-0.481942

>  <r_i_glide_hbond>  (251) 
-0.0838351

>  <r_i_glide_metal>  (251) 
-0

>  <r_i_glide_rewards>  (251) 
-0.950773

>  <r_i_glide_evdw>  (251) 
-22.9637

>  <r_i_glide_ecoul>  (251) 
-4.16585

>  <r_i_glide_erotb>  (251) 
0.295085

>  <r_i_glide_esite>  (251) 
-0.0769004

>  <r_i_glide_emodel>  (251) 
-34.2179

>  <r_i_glide_energy>  (251) 
-27.1295

>  <r_i_glide_einternal>  (251) 
1.13879

>  <r_i_glide_intrahb_reward>  (251) 
-0

>  <i_i_glide_confnum>  (251) 
6

>  <i_i_glide_posenum>  (251) 
13

>  <r_i_glide_eff_state_penalty>  (251) 
0

>  <ligand_id>  (251) 
86

>  <original_smiles>  (251) 
CN1C2CCC1CC(OC1CC3CC1C1C3CCC3(C)C(O)CCC13)C2

>  <smiles>  (251) 
[H]OC1([H])C([H])([H])C([H])([H])C2([H])C3([H])C4([H])C([H])([H])C([H])(C([H])([H])C4([H])OC4([H])C([H])([H])C5([H])C([H])([H])C([H])([H])C([H])(C4([H])[H])[N+]5([H])C([H])([H])[H])C3([H])C([H])([H])C([H])([H])C12C([H])([H])[H]

$$$$
86:0:2
     RDKit          3D

 64 69  0  0  1  0  0  0  0  0999 V2000
   -1.8955   -8.5385    4.0766 C   0  0  0  0  0  0  0  0  0  0  0  0
   -0.5573   -9.1139    3.8628 N   0  0  1  0  0  0  0  0  0  0  0  0
   -0.0604   -9.2070    2.4825 C   0  0  2  0  0  0  0  0  0  0  0  0
    1.3251   -9.8482    2.6854 C   0  0  0  0  0  0  0  0  0  0  0  0
    1.7497   -9.3951    4.1036 C   0  0  0  0  0  0  0  0  0  0  0  0
    0.5723   -8.5313    4.5976 C   0  0  1  0  0  0  0  0  0  0  0  0
    0.7332   -7.0364    4.2096 C   0  0  0  0  0  0  0  0  0  0  0  0
    0.9270   -6.8341    2.6877 C   0  0  1  0  0  0  0  0  0  0  0  0
    2.2867   -7.1173    2.3824 O   0  0  0  0  0  0  0  0  0  0  0  0
    2.9815   -6.1635    1.5949 C   0  0  2  0  0  0  0  0  0  0  0  0
    4.3177   -6.7933    1.1439 C   0  0  0  0  0  0  0  0  0  0  0  0
    5.3767   -6.0020    1.9441 C   0  0  2  0  0  0  0  0  0  0  0  0
    4.6115   -5.7070    3.2313 C   0  0  0  0  0  0  0  0  0  0  0  0
    3.4543   -5.0046    2.5044 C   0  0  1  0  0  0  0  0  0  0  0  0
    4.2324   -3.8800    1.7673 C   0  0  1  0  0  0  0  0  0  0  0  0
    5.5672   -4.5605    1.4166 C   0  0  2  0  0  0  0  0  0  0  0  0
    6.0216   -4.3372   -0.0324 C   0  0  0  0  0  0  0  0  0  0  0  0
    5.9984   -2.8300   -0.3526 C   0  0  0  0  0  0  0  0  0  0  0  0
    4.6411   -2.0910   -0.0620 C   0  0  1  0  0  0  0  0  0  0  0  0
    4.9204   -0.8349    0.7901 C   0  0  0  0  0  0  0  0  0  0  0  0
    3.8637   -1.6734   -1.3327 C   0  0  1  0  0  0  0  0  0  0  0  0
    4.6562   -1.1076   -2.3600 O   0  0  0  0  0  0  0  0  0  0  0  0
    3.0852   -2.9033   -1.7943 C   0  0  0  0  0  0  0  0  0  0  0  0
    2.8780   -3.7427   -0.5314 C   0  0  0  0  0  0  0  0  0  0  0  0
    3.6030   -3.0200    0.6293 C   0  0  1  0  0  0  0  0  0  0  0  0
    0.0345   -7.7879    1.8561 C   0  0  0  0  0  0  0  0  0  0  0  0
   -2.0038   -7.4951    3.7860 H   0  0  0  0  0  0  0  0  0  0  0  0
   -2.1879   -8.6533    5.1190 H   0  0  0  0  0  0  0  0  0  0  0  0
   -2.5837   -9.1258    3.4743 H   0  0  0  0  0  0  0  0  0  0  0  0
   -0.7121   -9.8491    1.8931 H   0  0  0  0  0  0  0  0  0  0  0  0
    1.2517  -10.9371    2.6548 H   0  0  0  0  0  0  0  0  0  0  0  0
    2.0327   -9.5619    1.9041 H   0  0  0  0  0  0  0  0  0  0  0  0
    1.8742  -10.2697    4.7452 H   0  0  0  0  0  0  0  0  0  0  0  0
    2.6979   -8.8513    4.1240 H   0  0  0  0  0  0  0  0  0  0  0  0
    0.4266   -8.6370    5.6705 H   0  0  0  0  0  0  0  0  0  0  0  0
   -0.1433   -6.4762    4.5352 H   0  0  0  0  0  0  0  0  0  0  0  0
    1.5729   -6.5965    4.7517 H   0  0  0  0  0  0  0  0  0  0  0  0
    0.6895   -5.7994    2.4381 H   0  0  0  0  0  0  0  0  0  0  0  0
    2.3485   -5.8850    0.7585 H   0  0  0  0  0  0  0  0  0  0  0  0
    4.3554   -7.8512    1.4070 H   0  0  0  0  0  0  0  0  0  0  0  0
    4.4741   -6.7277    0.0683 H   0  0  0  0  0  0  0  0  0  0  0  0
    6.3166   -6.5392    2.0857 H   0  0  0  0  0  0  0  0  0  0  0  0
    4.3151   -6.6075    3.7702 H   0  0  0  0  0  0  0  0  0  0  0  0
    5.1485   -5.0594    3.9256 H   0  0  0  0  0  0  0  0  0  0  0  0
    2.6798   -4.6182    3.1682 H   0  0  0  0  0  0  0  0  0  0  0  0
    4.4748   -3.1524    2.5432 H   0  0  0  0  0  0  0  0  0  0  0  0
    6.3442   -4.1017    2.0353 H   0  0  0  0  0  0  0  0  0  0  0  0
    7.0330   -4.7208   -0.1583 H   0  0  0  0  0  0  0  0  0  0  0  0
    5.4134   -4.8783   -0.7501 H   0  0  0  0  0  0  0  0  0  0  0  0
    6.7751   -2.3813    0.2690 H   0  0  0  0  0  0  0  0  0  0  0  0
    6.3428   -2.6771   -1.3723 H   0  0  0  0  0  0  0  0  0  0  0  0
    4.0006   -0.2960    1.0273 H   0  0  0  0  0  0  0  0  0  0  0  0
    5.5732   -0.1422    0.2588 H   0  0  0  0  0  0  0  0  0  0  0  0
    5.4056   -1.0879    1.7311 H   0  0  0  0  0  0  0  0  0  0  0  0
    3.1229   -0.9236   -1.0545 H   0  0  0  0  0  0  0  0  0  0  0  0
    5.1424   -1.8086   -2.7663 H   0  0  0  0  0  0  0  0  0  0  0  0
    2.1392   -2.6218   -2.2625 H   0  0  0  0  0  0  0  0  0  0  0  0
    3.6498   -3.4755   -2.5321 H   0  0  0  0  0  0  0  0  0  0  0  0
    1.8163   -3.8632   -0.3183 H   0  0  0  0  0  0  0  0  0  0  0  0
    3.2838   -4.7307   -0.7188 H   0  0  0  0  0  0  0  0  0  0  0  0
    2.8418   -2.3859    1.0923 H   0  0  0  0  0  0  0  0  0  0  0  0
    0.4145   -7.8551    0.8371 H   0  0  0  0  0  0  0  0  0  0  0  0
   -0.9642   -7.3646    1.7650 H   0  0  0  0  0  0  0  0  0  0  0  0
   -0.6536  -10.0653    4.1996 H   0  0  0  0  0  0  0  0  0  0  0  0
  1  2  1  0
  1 27  1  0
  1 28  1  0
  1 29  1  0
  2  6  1  0
  2  3  1  0
  2 64  1  1
  3 26  1  0
  3  4  1  0
  3 30  1  6
  4  5  1  0
  4 31  1  0
  4 32  1  0
  5  6  1  0
  5 33  1  0
  5 34  1  0
  6  7  1  0
  6 35  1  1
  7  8  1  0
  7 36  1  0
  7 37  1  0
  8  9  1  0
  8 26  1  0
  8 38  1  6
  9 10  1  0
 10 14  1  0
 10 11  1  0
 10 39  1  6
 11 12  1  0
 11 40  1  0
 11 41  1  0
 12 16  1  0
 12 13  1  0
 12 42  1  1
 13 14  1  0
 13 43  1  0
 13 44  1  0
 14 15  1  0
 14 45  1  1
 15 25  1  0
 15 16  1  0
 15 46  1  1
 16 17  1  0
 16 47  1  1
 17 18  1  0
 17 48  1  0
 17 49  1  0
 18 19  1  0
 18 50  1  0
 18 51  1  0
 19 25  1  0
 19 20  1  1
 19 21  1  0
 20 52  1  0
 20 53  1  0
 20 54  1  0
 21 22  1  0
 21 23  1  0
 21 55  1  1
 22 56  1  0
 23 24  1  0
 23 57  1  0
 23 58  1  0
 24 25  1  0
 24 59  1  0
 24 60  1  0
 25 61  1  1
 26 62  1  0
 26 63  1  0
M  CHG  1   2   1
M  END
>  <i_m_ct_stereo_status>  (252) 
1

>  <s_m_source_file>  (252) 
/var/tmp/pbs.5076255.sched01/tmpua_2_py4/114lbcpx7pn.sdf

>  <i_m_source_file_index>  (252) 
2

>  <i_lp_mmshare_version>  (252) 
48012

>  <i_f3d_flags>  (252) 
0

>  <s_epik_input>  (252) 
W0NIM11OKFtDQEhdMTIpW0NAQEhdKFtDSDJdW0NIMl0xKVtDSDJdW0NASF0oW0NIMl0yKU9bQ0BIXShbQ0gyXVtDQEhdKFtDSDJdMylbQ0BIXTRbQ0gyXVtDSDJdNSlbQ0BASF0zW0NAQEhdNFtDQEBIXShbQ0BAXTU2W0NIM10pW0NIMl1bQ0gyXVtDQEBIXTZbT0hd

>  <s_epik_cmdline>  (252) 
J2VwaWtfcHl0aG9uJywgJy1waHQnLCAnMi4wJywgJy1waCcsICc3LjAnLCAnLXRuJywgJzgnLCAnLW1hJywgJzIwMCcsICctaW1hZScsICc8aW5maWxlLm1hZT4nLCAnLW9tYWUnLCAnPG91dGZpbGUubWFlPic=

>  <r_epik_Ionization_Penalty>  (252) 
0.00196466

>  <r_epik_Ionization_Penalty_Charging>  (252) 
0.00196172

>  <r_epik_Ionization_Penalty_Neutral>  (252) 
2.93392e-06

>  <r_epik_State_Penalty>  (252) 
0.0013383

>  <r_epik_Charging_Adjusted_Penalty>  (252) 
0.00330002

>  <i_epik_Tot_Q>  (252) 
1

>  <i_epik_Tot_abs_Q>  (252) 
1

>  <s_lp_Force_Field>  (252) 
OPLS3e

>  <r_lp_Energy>  (252) 
85.3315

>  <b_lp_Chiralities_Consistent>  (252) 
1

>  <s_lp_Variant>  (252) 
86:0-1

>  <s_i_glide_gridfile>  (252) 
pfpi4k_grid

>  <i_i_glide_lignum>  (252) 
2

>  <i_i_glide_rotatable_bonds>  (252) 
3

>  <r_i_docking_score>  (252) 
-3.04079

>  <r_i_glide_ligand_efficiency>  (252) 
-0.116953

>  <r_i_glide_ligand_efficiency_sa>  (252) 
-0.346474

>  <r_i_glide_ligand_efficiency_ln>  (252) 
-0.714119

>  <r_i_glide_gscore>  (252) 
-3.04079

>  <r_i_glide_lipo>  (252) 
-0.512238

>  <r_i_glide_hbond>  (252) 
-0.126006

>  <r_i_glide_metal>  (252) 
-0

>  <r_i_glide_rewards>  (252) 
-0.950773

>  <r_i_glide_evdw>  (252) 
-22.969

>  <r_i_glide_ecoul>  (252) 
-3.43137

>  <r_i_glide_erotb>  (252) 
0.295085

>  <r_i_glide_esite>  (252) 
-0.0836996

>  <r_i_glide_emodel>  (252) 
-33.4854

>  <r_i_glide_energy>  (252) 
-26.4003

>  <r_i_glide_einternal>  (252) 
1.14371

>  <r_i_glide_intrahb_reward>  (252) 
-0

>  <i_i_glide_confnum>  (252) 
6

>  <i_i_glide_posenum>  (252) 
40

>  <r_i_glide_eff_state_penalty>  (252) 
0

>  <ligand_id>  (252) 
86

>  <original_smiles>  (252) 
CN1C2CCC1CC(OC1CC3CC1C1C3CCC3(C)C(O)CCC13)C2

>  <smiles>  (252) 
[H]OC1([H])C([H])([H])C([H])([H])C2([H])C3([H])C4([H])C([H])([H])C([H])(C([H])([H])C4([H])OC4([H])C([H])([H])C5([H])C([H])([H])C([H])([H])C([H])(C4([H])[H])[N+]5([H])C([H])([H])[H])C3([H])C([H])([H])C([H])([H])C12C([H])([H])[H]

$$$$
86:1:0
     RDKit          3D

 64 69  0  0  1  0  0  0  0  0999 V2000
    3.7053  -12.1250    3.8877 C   0  0  0  0  0  0  0  0  0  0  0  0
    3.7737  -11.0226    2.8821 N   0  0  2  0  0  0  0  0  0  0  0  0
    4.9416  -10.1558    3.0722 C   0  0  2  0  0  0  0  0  0  0  0  0
    4.5478   -9.2341    4.2404 C   0  0  0  0  0  0  0  0  0  0  0  0
    3.0045   -9.1836    4.1918 C   0  0  0  0  0  0  0  0  0  0  0  0
    2.6440  -10.0765    2.9860 C   0  0  1  0  0  0  0  0  0  0  0  0
    2.5925   -9.2746    1.6562 C   0  0  0  0  0  0  0  0  0  0  0  0
    3.9109   -8.5167    1.3697 C   0  0  1  0  0  0  0  0  0  0  0  0
    3.8683   -7.3167    2.1273 O   0  0  0  0  0  0  0  0  0  0  0  0
    4.3382   -6.1292    1.5094 C   0  0  2  0  0  0  0  0  0  0  0  0
    5.8781   -6.0595    1.4945 C   0  0  0  0  0  0  0  0  0  0  0  0
    6.2143   -4.9407    2.4828 C   0  0  2  0  0  0  0  0  0  0  0  0
    5.0665   -5.0624    3.4808 C   0  0  0  0  0  0  0  0  0  0  0  0
    3.9813   -4.9252    2.4064 C   0  0  1  0  0  0  0  0  0  0  0  0
    4.3806   -3.5381    1.8182 C   0  0  1  0  0  0  0  0  0  0  0  0
    5.9187   -3.5499    1.8994 C   0  0  2  0  0  0  0  0  0  0  0  0
    6.6187   -3.1191    0.6069 C   0  0  0  0  0  0  0  0  0  0  0  0
    6.0615   -1.7538    0.1644 C   0  0  0  0  0  0  0  0  0  0  0  0
    4.4973   -1.6722    0.0236 C   0  0  1  0  0  0  0  0  0  0  0  0
    3.9834   -0.4520    0.8145 C   0  0  0  0  0  0  0  0  0  0  0  0
    4.0085   -1.5726   -1.4417 C   0  0  1  0  0  0  0  0  0  0  0  0
    4.7630   -0.7142   -2.2570 O   0  0  0  0  0  0  0  0  0  0  0  0
    3.9579   -2.9967   -1.9898 C   0  0  0  0  0  0  0  0  0  0  0  0
    3.7872   -3.8952   -0.7659 C   0  0  0  0  0  0  0  0  0  0  0  0
    3.7952   -2.9823    0.4837 C   0  0  1  0  0  0  0  0  0  0  0  0
    5.1307   -9.4029    1.7386 C   0  0  0  0  0  0  0  0  0  0  0  0
    3.6940  -11.7817    4.9212 H   0  0  0  0  0  0  0  0  0  0  0  0
    4.5445  -12.8133    3.7815 H   0  0  0  0  0  0  0  0  0  0  0  0
    2.7730  -12.6475    3.7387 H   0  0  0  0  0  0  0  0  0  0  0  0
    5.8368  -10.7342    3.2902 H   0  0  0  0  0  0  0  0  0  0  0  0
    4.8694   -9.6632    5.1891 H   0  0  0  0  0  0  0  0  0  0  0  0
    5.0171   -8.2535    4.1706 H   0  0  0  0  0  0  0  0  0  0  0  0
    2.5866   -9.5988    5.1128 H   0  0  0  0  0  0  0  0  0  0  0  0
    2.6045   -8.1705    4.1047 H   0  0  0  0  0  0  0  0  0  0  0  0
    1.6910  -10.5907    3.1349 H   0  0  0  0  0  0  0  0  0  0  0  0
    2.4060   -9.9655    0.8418 H   0  0  0  0  0  0  0  0  0  0  0  0
    1.7409   -8.5925    1.6511 H   0  0  0  0  0  0  0  0  0  0  0  0
    3.9468   -8.2876    0.3064 H   0  0  0  0  0  0  0  0  0  0  0  0
    3.8721   -6.0603    0.5371 H   0  0  0  0  0  0  0  0  0  0  0  0
    6.3482   -6.9590    1.9039 H   0  0  0  0  0  0  0  0  0  0  0  0
    6.2903   -5.9097    0.5007 H   0  0  0  0  0  0  0  0  0  0  0  0
    7.2092   -5.0544    2.9062 H   0  0  0  0  0  0  0  0  0  0  0  0
    5.0476   -6.0206    3.9969 H   0  0  0  0  0  0  0  0  0  0  0  0
    5.0482   -4.2716    4.2360 H   0  0  0  0  0  0  0  0  0  0  0  0
    2.9622   -4.9520    2.7921 H   0  0  0  0  0  0  0  0  0  0  0  0
    4.0557   -2.8092    2.5653 H   0  0  0  0  0  0  0  0  0  0  0  0
    6.2011   -2.8092    2.6493 H   0  0  0  0  0  0  0  0  0  0  0  0
    7.6917   -3.0440    0.7782 H   0  0  0  0  0  0  0  0  0  0  0  0
    6.5110   -3.8432   -0.1988 H   0  0  0  0  0  0  0  0  0  0  0  0
    6.3852   -1.0317    0.9189 H   0  0  0  0  0  0  0  0  0  0  0  0
    6.5725   -1.4546   -0.7449 H   0  0  0  0  0  0  0  0  0  0  0  0
    2.8988   -0.3574    0.7437 H   0  0  0  0  0  0  0  0  0  0  0  0
    4.4162    0.4752    0.4388 H   0  0  0  0  0  0  0  0  0  0  0  0
    4.2408   -0.5226    1.8715 H   0  0  0  0  0  0  0  0  0  0  0  0
    2.9835   -1.1993   -1.4426 H   0  0  0  0  0  0  0  0  0  0  0  0
    4.6219    0.1818   -1.9414 H   0  0  0  0  0  0  0  0  0  0  0  0
    3.1456   -3.1226   -2.7060 H   0  0  0  0  0  0  0  0  0  0  0  0
    4.8884   -3.2464   -2.5051 H   0  0  0  0  0  0  0  0  0  0  0  0
    2.8537   -4.4595   -0.8162 H   0  0  0  0  0  0  0  0  0  0  0  0
    4.6024   -4.6131   -0.7813 H   0  0  0  0  0  0  0  0  0  0  0  0
    2.7462   -2.7431    0.6721 H   0  0  0  0  0  0  0  0  0  0  0  0
    6.0777   -8.8482    1.7721 H   0  0  0  0  0  0  0  0  0  0  0  0
    5.2801  -10.1303    0.9464 H   0  0  0  0  0  0  0  0  0  0  0  0
    3.8139  -11.4247    1.9569 H   0  0  0  0  0  0  0  0  0  0  0  0
  1  2  1  0
  1 27  1  0
  1 28  1  0
  1 29  1  0
  2  6  1  0
  2  3  1  0
  2 64  1  6
  3 26  1  0
  3  4  1  0
  3 30  1  1
  4  5  1  0
  4 31  1  0
  4 32  1  0
  5  6  1  0
  5 33  1  0
  5 34  1  0
  6  7  1  0
  6 35  1  1
  7  8  1  0
  7 36  1  0
  7 37  1  0
  8  9  1  0
  8 26  1  0
  8 38  1  6
  9 10  1  0
 10 14  1  0
 10 11  1  0
 10 39  1  6
 11 12  1  0
 11 40  1  0
 11 41  1  0
 12 16  1  0
 12 13  1  0
 12 42  1  1
 13 14  1  0
 13 43  1  0
 13 44  1  0
 14 15  1  0
 14 45  1  1
 15 25  1  0
 15 16  1  0
 15 46  1  1
 16 17  1  0
 16 47  1  1
 17 18  1  0
 17 48  1  0
 17 49  1  0
 18 19  1  0
 18 50  1  0
 18 51  1  0
 19 25  1  0
 19 20  1  1
 19 21  1  0
 20 52  1  0
 20 53  1  0
 20 54  1  0
 21 22  1  0
 21 23  1  0
 21 55  1  1
 22 56  1  0
 23 24  1  0
 23 57  1  0
 23 58  1  0
 24 25  1  0
 24 59  1  0
 24 60  1  0
 25 61  1  1
 26 62  1  0
 26 63  1  0
M  CHG  1   2   1
M  END
>  <i_m_ct_stereo_status>  (253) 
1

>  <s_m_source_file>  (253) 
/var/tmp/pbs.5076255.sched01/tmpua_2_py4/114lbcpx7pn.sdf

>  <i_m_source_file_index>  (253) 
3

>  <i_lp_mmshare_version>  (253) 
48012

>  <i_f3d_flags>  (253) 
0

>  <s_epik_input>  (253) 
W0NIM11OKFtDQEhdMTIpW0NAQEhdKFtDSDJdW0NIMl0xKVtDSDJdW0NASF0oW0NIMl0yKU9bQ0BIXShbQ0gyXVtDQEhdKFtDSDJdMylbQ0BIXTRbQ0gyXVtDSDJdNSlbQ0BASF0zW0NAQEhdNFtDQEBIXShbQ0BAXTU2W0NIM10pW0NIMl1bQ0gyXVtDQEBIXTZbT0hd

>  <s_epik_cmdline>  (253) 
J2VwaWtfcHl0aG9uJywgJy1waHQnLCAnMi4wJywgJy1waCcsICc3LjAnLCAnLXRuJywgJzgnLCAnLW1hJywgJzIwMCcsICctaW1hZScsICc8aW5maWxlLm1hZT4nLCAnLW9tYWUnLCAnPG91dGZpbGUubWFlPic=

>  <r_epik_Ionization_Penalty>  (253) 
0.00196466

>  <r_epik_Ionization_Penalty_Charging>  (253) 
0.00196172

>  <r_epik_Ionization_Penalty_Neutral>  (253) 
2.93392e-06

>  <r_epik_State_Penalty>  (253) 
0.0013383

>  <r_epik_Charging_Adjusted_Penalty>  (253) 
0.00330002

>  <i_epik_Tot_Q>  (253) 
1

>  <i_epik_Tot_abs_Q>  (253) 
1

>  <s_lp_Force_Field>  (253) 
OPLS3e

>  <r_lp_Energy>  (253) 
84.0722

>  <b_lp_Chiralities_Consistent>  (253) 
1

>  <s_lp_Variant>  (253) 
86:0-2

>  <s_i_glide_gridfile>  (253) 
pfpi4k_grid

>  <i_i_glide_lignum>  (253) 
3

>  <i_i_glide_rotatable_bonds>  (253) 
3

>  <r_i_docking_score>  (253) 
-3.68278

>  <r_i_glide_ligand_efficiency>  (253) 
-0.141645

>  <r_i_glide_ligand_efficiency_sa>  (253) 
-0.419624

>  <r_i_glide_ligand_efficiency_ln>  (253) 
-0.864889

>  <r_i_glide_gscore>  (253) 
-3.68278

>  <r_i_glide_lipo>  (253) 
-0.412719

>  <r_i_glide_hbond>  (253) 
-0.397608

>  <r_i_glide_metal>  (253) 
-0

>  <r_i_glide_rewards>  (253) 
-0.950773

>  <r_i_glide_evdw>  (253) 
-20.513

>  <r_i_glide_ecoul>  (253) 
-7.40534

>  <r_i_glide_erotb>  (253) 
0.295085

>  <r_i_glide_esite>  (253) 
-0.0803144

>  <r_i_glide_emodel>  (253) 
-35.7477

>  <r_i_glide_energy>  (253) 
-27.9183

>  <r_i_glide_einternal>  (253) 
2.26695

>  <r_i_glide_intrahb_reward>  (253) 
-0

>  <i_i_glide_confnum>  (253) 
4

>  <i_i_glide_posenum>  (253) 
30

>  <r_i_glide_eff_state_penalty>  (253) 
0

>  <ligand_id>  (253) 
86

>  <original_smiles>  (253) 
CN1C2CCC1CC(OC1CC3CC1C1C3CCC3(C)C(O)CCC13)C2

>  <smiles>  (253) 
[H]OC1([H])C([H])([H])C([H])([H])C2([H])C3([H])C4([H])C([H])([H])C([H])(C([H])([H])C4([H])OC4([H])C([H])([H])C5([H])C([H])([H])C([H])([H])C([H])(C4([H])[H])[N+]5([H])C([H])([H])[H])C3([H])C([H])([H])C([H])([H])C12C([H])([H])[H]

$$$$
86:1:1
     RDKit          3D

 64 69  0  0  1  0  0  0  0  0999 V2000
    1.1972  -11.5523    4.2887 C   0  0  0  0  0  0  0  0  0  0  0  0
    1.1295  -10.4310    3.2961 N   0  0  2  0  0  0  0  0  0  0  0  0
    2.4384   -9.8162    3.0005 C   0  0  2  0  0  0  0  0  0  0  0  0
    2.6599   -8.8853    4.2136 C   0  0  0  0  0  0  0  0  0  0  0  0
    1.2385   -8.5212    4.7046 C   0  0  0  0  0  0  0  0  0  0  0  0
    0.3165   -9.2794    3.7339 C   0  0  1  0  0  0  0  0  0  0  0  0
   -0.0363   -8.4367    2.4798 C   0  0  0  0  0  0  0  0  0  0  0  0
    1.2276   -7.9426    1.7002 C   0  0  1  0  0  0  0  0  0  0  0  0
    1.6695   -6.7681    2.3778 O   0  0  0  0  0  0  0  0  0  0  0  0
    2.5463   -5.8823    1.6881 C   0  0  2  0  0  0  0  0  0  0  0  0
    4.0170   -6.3884    1.6426 C   0  0  0  0  0  0  0  0  0  0  0  0
    4.7807   -5.3649    2.4966 C   0  0  2  0  0  0  0  0  0  0  0  0
    3.7193   -5.0016    3.5338 C   0  0  0  0  0  0  0  0  0  0  0  0
    2.6940   -4.5605    2.4883 C   0  0  1  0  0  0  0  0  0  0  0  0
    3.5335   -3.4649    1.7617 C   0  0  1  0  0  0  0  0  0  0  0  0
    4.9696   -4.0143    1.7933 C   0  0  2  0  0  0  0  0  0  0  0  0
    5.6827   -3.9815    0.4363 C   0  0  0  0  0  0  0  0  0  0  0  0
    5.6366   -2.5406   -0.0925 C   0  0  0  0  0  0  0  0  0  0  0  0
    4.2041   -1.9036   -0.1801 C   0  0  1  0  0  0  0  0  0  0  0  0
    4.2241   -0.5358    0.5324 C   0  0  0  0  0  0  0  0  0  0  0  0
    3.6753   -1.7187   -1.6219 C   0  0  1  0  0  0  0  0  0  0  0  0
    4.6219   -1.2324   -2.5480 O   0  0  0  0  0  0  0  0  0  0  0  0
    3.0872   -3.0564   -2.0573 C   0  0  0  0  0  0  0  0  0  0  0  0
    2.6827   -3.7479   -0.7555 C   0  0  0  0  0  0  0  0  0  0  0  0
    3.1059   -2.8294    0.4123 C   0  0  1  0  0  0  0  0  0  0  0  0
    2.2969   -9.0840    1.6254 C   0  0  0  0  0  0  0  0  0  0  0  0
    1.5958  -11.2606    5.2603 H   0  0  0  0  0  0  0  0  0  0  0  0
    1.8654  -12.3220    3.9156 H   0  0  0  0  0  0  0  0  0  0  0  0
    0.2239  -12.0004    4.4730 H   0  0  0  0  0  0  0  0  0  0  0  0
    3.2312  -10.5654    2.9163 H   0  0  0  0  0  0  0  0  0  0  0  0
    3.1878   -9.4063    5.0095 H   0  0  0  0  0  0  0  0  0  0  0  0
    3.2692   -8.0172    3.9811 H   0  0  0  0  0  0  0  0  0  0  0  0
    1.0862   -8.8819    5.7245 H   0  0  0  0  0  0  0  0  0  0  0  0
    1.0375   -7.4470    4.7301 H   0  0  0  0  0  0  0  0  0  0  0  0
   -0.5912   -9.6121    4.2202 H   0  0  0  0  0  0  0  0  0  0  0  0
   -0.6318   -9.0506    1.8077 H   0  0  0  0  0  0  0  0  0  0  0  0
   -0.6879   -7.5968    2.7425 H   0  0  0  0  0  0  0  0  0  0  0  0
    0.8953   -7.6724    0.6935 H   0  0  0  0  0  0  0  0  0  0  0  0
    2.0882   -5.7038    0.7177 H   0  0  0  0  0  0  0  0  0  0  0  0
    4.1789   -7.3142    2.1399 H   0  0  0  0  0  0  0  0  0  0  0  0
    4.3903   -6.4789    0.6218 H   0  0  0  0  0  0  0  0  0  0  0  0
    5.7084   -5.7731    2.8901 H   0  0  0  0  0  0  0  0  0  0  0  0
    3.3828   -5.8497    4.1225 H   0  0  0  0  0  0  0  0  0  0  0  0
    4.0328   -4.2155    4.2188 H   0  0  0  0  0  0  0  0  0  0  0  0
    1.7492   -4.1968    2.9032 H   0  0  0  0  0  0  0  0  0  0  0  0
    3.5403   -2.6285    2.4595 H   0  0  0  0  0  0  0  0  0  0  0  0
    5.5653   -3.4004    2.4680 H   0  0  0  0  0  0  0  0  0  0  0  0
    6.7164   -4.2951    0.5646 H   0  0  0  0  0  0  0  0  0  0  0  0
    5.2636   -4.6763   -0.2966 H   0  0  0  0  0  0  0  0  0  0  0  0
    6.2504   -1.9395    0.5813 H   0  0  0  0  0  0  0  0  0  0  0  0
    6.1581   -2.5073   -1.0462 H   0  0  0  0  0  0  0  0  0  0  0  0
    3.2431   -0.0616    0.4986 H   0  0  0  0  0  0  0  0  0  0  0  0
    4.9331    0.1469    0.0658 H   0  0  0  0  0  0  0  0  0  0  0  0
    4.5055   -0.6383    1.5814 H   0  0  0  0  0  0  0  0  0  0  0  0
    2.8587   -0.9879   -1.6057 H   0  0  0  0  0  0  0  0  0  0  0  0
    4.1425   -0.9384   -3.3032 H   0  0  0  0  0  0  0  0  0  0  0  0
    2.2356   -2.9182   -2.7246 H   0  0  0  0  0  0  0  0  0  0  0  0
    3.8271   -3.6601   -2.5799 H   0  0  0  0  0  0  0  0  0  0  0  0
    1.6095   -3.9450   -0.7387 H   0  0  0  0  0  0  0  0  0  0  0  0
    3.1909   -4.7075   -0.7206 H   0  0  0  0  0  0  0  0  0  0  0  0
    2.2365   -2.2112    0.6169 H   0  0  0  0  0  0  0  0  0  0  0  0
    3.2408   -8.8107    1.2058 H   0  0  0  0  0  0  0  0  0  0  0  0
    1.8983   -9.8457    0.9184 H   0  0  0  0  0  0  0  0  0  0  0  0
    0.7570  -10.7762    2.4295 H   0  0  0  0  0  0  0  0  0  0  0  0
  1  2  1  0
  1 27  1  0
  1 28  1  0
  1 29  1  0
  2  6  1  0
  2  3  1  0
  2 64  1  6
  3 26  1  0
  3  4  1  0
  3 30  1  6
  4  5  1  0
  4 31  1  0
  4 32  1  0
  5  6  1  0
  5 33  1  0
  5 34  1  0
  6  7  1  0
  6 35  1  1
  7  8  1  0
  7 36  1  0
  7 37  1  0
  8  9  1  0
  8 26  1  0
  8 38  1  6
  9 10  1  0
 10 14  1  0
 10 11  1  0
 10 39  1  6
 11 12  1  0
 11 40  1  0
 11 41  1  0
 12 16  1  0
 12 13  1  0
 12 42  1  1
 13 14  1  0
 13 43  1  0
 13 44  1  0
 14 15  1  0
 14 45  1  1
 15 25  1  0
 15 16  1  0
 15 46  1  1
 16 17  1  0
 16 47  1  1
 17 18  1  0
 17 48  1  0
 17 49  1  0
 18 19  1  0
 18 50  1  0
 18 51  1  0
 19 25  1  0
 19 20  1  1
 19 21  1  0
 20 52  1  0
 20 53  1  0
 20 54  1  0
 21 22  1  0
 21 23  1  0
 21 55  1  1
 22 56  1  0
 23 24  1  0
 23 57  1  0
 23 58  1  0
 24 25  1  0
 24 59  1  0
 24 60  1  0
 25 61  1  1
 26 62  1  0
 26 63  1  0
M  CHG  1   2   1
M  END
>  <i_m_ct_stereo_status>  (254) 
1

>  <s_m_source_file>  (254) 
/var/tmp/pbs.5076255.sched01/tmpua_2_py4/114lbcpx7pn.sdf

>  <i_m_source_file_index>  (254) 
3

>  <i_lp_mmshare_version>  (254) 
48012

>  <i_f3d_flags>  (254) 
0

>  <s_epik_input>  (254) 
W0NIM11OKFtDQEhdMTIpW0NAQEhdKFtDSDJdW0NIMl0xKVtDSDJdW0NASF0oW0NIMl0yKU9bQ0BIXShbQ0gyXVtDQEhdKFtDSDJdMylbQ0BIXTRbQ0gyXVtDSDJdNSlbQ0BASF0zW0NAQEhdNFtDQEBIXShbQ0BAXTU2W0NIM10pW0NIMl1bQ0gyXVtDQEBIXTZbT0hd

>  <s_epik_cmdline>  (254) 
J2VwaWtfcHl0aG9uJywgJy1waHQnLCAnMi4wJywgJy1waCcsICc3LjAnLCAnLXRuJywgJzgnLCAnLW1hJywgJzIwMCcsICctaW1hZScsICc8aW5maWxlLm1hZT4nLCAnLW9tYWUnLCAnPG91dGZpbGUubWFlPic=

>  <r_epik_Ionization_Penalty>  (254) 
0.00196466

>  <r_epik_Ionization_Penalty_Charging>  (254) 
0.00196172

>  <r_epik_Ionization_Penalty_Neutral>  (254) 
2.93392e-06

>  <r_epik_State_Penalty>  (254) 
0.0013383

>  <r_epik_Charging_Adjusted_Penalty>  (254) 
0.00330002

>  <i_epik_Tot_Q>  (254) 
1

>  <i_epik_Tot_abs_Q>  (254) 
1

>  <s_lp_Force_Field>  (254) 
OPLS3e

>  <r_lp_Energy>  (254) 
84.0722

>  <b_lp_Chiralities_Consistent>  (254) 
1

>  <s_lp_Variant>  (254) 
86:0-2

>  <s_i_glide_gridfile>  (254) 
pfpi4k_grid

>  <i_i_glide_lignum>  (254) 
3

>  <i_i_glide_rotatable_bonds>  (254) 
3

>  <r_i_docking_score>  (254) 
-2.99699

>  <r_i_glide_ligand_efficiency>  (254) 
-0.115269

>  <r_i_glide_ligand_efficiency_sa>  (254) 
-0.341484

>  <r_i_glide_ligand_efficiency_ln>  (254) 
-0.703834

>  <r_i_glide_gscore>  (254) 
-2.99699

>  <r_i_glide_lipo>  (254) 
-0.396761

>  <r_i_glide_hbond>  (254) 
0

>  <r_i_glide_metal>  (254) 
-0

>  <r_i_glide_rewards>  (254) 
-0.950773

>  <r_i_glide_evdw>  (254) 
-23.0105

>  <r_i_glide_ecoul>  (254) 
-5.29345

>  <r_i_glide_erotb>  (254) 
0.295085

>  <r_i_glide_esite>  (254) 
0

>  <r_i_glide_emodel>  (254) 
-34.3664

>  <r_i_glide_energy>  (254) 
-28.304

>  <r_i_glide_einternal>  (254) 
1.48302

>  <r_i_glide_intrahb_reward>  (254) 
-0

>  <i_i_glide_confnum>  (254) 
3

>  <i_i_glide_posenum>  (254) 
28

>  <r_i_glide_eff_state_penalty>  (254) 
0

>  <ligand_id>  (254) 
86

>  <original_smiles>  (254) 
CN1C2CCC1CC(OC1CC3CC1C1C3CCC3(C)C(O)CCC13)C2

>  <smiles>  (254) 
[H]OC1([H])C([H])([H])C([H])([H])C2([H])C3([H])C4([H])C([H])([H])C([H])(C([H])([H])C4([H])OC4([H])C([H])([H])C5([H])C([H])([H])C([H])([H])C([H])(C4([H])[H])[N+]5([H])C([H])([H])[H])C3([H])C([H])([H])C([H])([H])C12C([H])([H])[H]

$$$$
86:1:2
     RDKit          3D

 64 69  0  0  1  0  0  0  0  0999 V2000
    1.9082  -11.8672    4.2430 C   0  0  0  0  0  0  0  0  0  0  0  0
    1.6789  -10.7290    3.3169 N   0  0  2  0  0  0  0  0  0  0  0  0
    2.9070   -9.9993    2.9521 C   0  0  2  0  0  0  0  0  0  0  0  0
    3.1453   -9.0945    4.1877 C   0  0  0  0  0  0  0  0  0  0  0  0
    1.7429   -8.8690    4.7836 C   0  0  0  0  0  0  0  0  0  0  0  0
    0.8148   -9.6632    3.8521 C   0  0  1  0  0  0  0  0  0  0  0  0
    0.3079   -8.8095    2.6642 C   0  0  0  0  0  0  0  0  0  0  0  0
    1.4530   -8.1887    1.8166 C   0  0  1  0  0  0  0  0  0  0  0  0
    1.8792   -7.0061    2.4903 O   0  0  0  0  0  0  0  0  0  0  0  0
    2.6670   -6.0704    1.7592 C   0  0  2  0  0  0  0  0  0  0  0  0
    4.1757   -6.4432    1.7222 C   0  0  0  0  0  0  0  0  0  0  0  0
    4.8421   -5.3555    2.5871 C   0  0  2  0  0  0  0  0  0  0  0  0
    3.7431   -5.0689    3.6085 C   0  0  0  0  0  0  0  0  0  0  0  0
    2.6973   -4.7301    2.5414 C   0  0  1  0  0  0  0  0  0  0  0  0
    3.4427   -3.5730    1.8025 C   0  0  1  0  0  0  0  0  0  0  0  0
    4.9192   -4.0018    1.8608 C   0  0  2  0  0  0  0  0  0  0  0  0
    5.6453   -3.9224    0.5132 C   0  0  0  0  0  0  0  0  0  0  0  0
    5.4735   -2.5011   -0.0511 C   0  0  0  0  0  0  0  0  0  0  0  0
    3.9870   -1.9996   -0.1695 C   0  0  1  0  0  0  0  0  0  0  0  0
    3.8771   -0.6188    0.5136 C   0  0  0  0  0  0  0  0  0  0  0  0
    3.4893   -1.8910   -1.6271 C   0  0  1  0  0  0  0  0  0  0  0  0
    4.4142   -1.3329   -2.5303 O   0  0  0  0  0  0  0  0  0  0  0  0
    3.0148   -3.2762   -2.0340 C   0  0  0  0  0  0  0  0  0  0  0  0
    2.6501   -3.9806   -0.7233 C   0  0  0  0  0  0  0  0  0  0  0  0
    2.9709   -3.0080    0.4322 C   0  0  1  0  0  0  0  0  0  0  0  0
    2.6082   -9.2233    1.6294 C   0  0  0  0  0  0  0  0  0  0  0  0
    2.3489  -11.5665    5.1994 H   0  0  0  0  0  0  0  0  0  0  0  0
    2.5982  -12.5972    3.8147 H   0  0  0  0  0  0  0  0  0  0  0  0
    0.9769  -12.3828    4.4844 H   0  0  0  0  0  0  0  0  0  0  0  0
    3.7458  -10.6796    2.7683 H   0  0  0  0  0  0  0  0  0  0  0  0
    3.7699   -9.6158    4.9115 H   0  0  0  0  0  0  0  0  0  0  0  0
    3.6569   -8.1600    3.9740 H   0  0  0  0  0  0  0  0  0  0  0  0
    1.6972   -9.2643    5.7974 H   0  0  0  0  0  0  0  0  0  0  0  0
    1.4699   -7.8148    4.8492 H   0  0  0  0  0  0  0  0  0  0  0  0
   -0.0422  -10.0774    4.3826 H   0  0  0  0  0  0  0  0  0  0  0  0
   -0.2957   -9.4565    2.0245 H   0  0  0  0  0  0  0  0  0  0  0  0
   -0.3789   -8.0320    2.9987 H   0  0  0  0  0  0  0  0  0  0  0  0
    1.0404   -7.9088    0.8461 H   0  0  0  0  0  0  0  0  0  0  0  0
    2.2083   -5.9538    0.7877 H   0  0  0  0  0  0  0  0  0  0  0  0
    4.4018   -7.3989    2.1727 H   0  0  0  0  0  0  0  0  0  0  0  0
    4.5638   -6.4844    0.7038 H   0  0  0  0  0  0  0  0  0  0  0  0
    5.7986   -5.6695    3.0050 H   0  0  0  0  0  0  0  0  0  0  0  0
    3.4796   -5.9341    4.2097 H   0  0  0  0  0  0  0  0  0  0  0  0
    3.9755   -4.2420    4.2804 H   0  0  0  0  0  0  0  0  0  0  0  0
    1.7199   -4.4386    2.9425 H   0  0  0  0  0  0  0  0  0  0  0  0
    3.3639   -2.7259    2.4827 H   0  0  0  0  0  0  0  0  0  0  0  0
    5.4462   -3.3173    2.5295 H   0  0  0  0  0  0  0  0  0  0  0  0
    6.7025   -4.1406    0.6551 H   0  0  0  0  0  0  0  0  0  0  0  0
    5.2978   -4.6598   -0.2105 H   0  0  0  0  0  0  0  0  0  0  0  0
    6.0249   -1.8350    0.6179 H   0  0  0  0  0  0  0  0  0  0  0  0
    6.0059   -2.4439   -0.9987 H   0  0  0  0  0  0  0  0  0  0  0  0
    2.8545   -0.2442    0.4747 H   0  0  0  0  0  0  0  0  0  0  0  0
    4.5226    0.1161    0.0304 H   0  0  0  0  0  0  0  0  0  0  0  0
    4.1630   -0.6683    1.5652 H   0  0  0  0  0  0  0  0  0  0  0  0
    2.6275   -1.2319   -1.6605 H   0  0  0  0  0  0  0  0  0  0  0  0
    4.3493   -0.3912   -2.4457 H   0  0  0  0  0  0  0  0  0  0  0  0
    2.1607   -3.2328   -2.7126 H   0  0  0  0  0  0  0  0  0  0  0  0
    3.8082   -3.8196   -2.5392 H   0  0  0  0  0  0  0  0  0  0  0  0
    1.6011   -4.2770   -0.7199 H   0  0  0  0  0  0  0  0  0  0  0  0
    3.2393   -4.8937   -0.6803 H   0  0  0  0  0  0  0  0  0  0  0  0
    2.0519   -2.4624    0.6200 H   0  0  0  0  0  0  0  0  0  0  0  0
    3.5129   -8.8085    1.1891 H   0  0  0  0  0  0  0  0  0  0  0  0
    2.2517   -9.9592    0.8863 H   0  0  0  0  0  0  0  0  0  0  0  0
    1.2670  -11.0930    2.4588 H   0  0  0  0  0  0  0  0  0  0  0  0
  1  2  1  0
  1 27  1  0
  1 28  1  0
  1 29  1  0
  2  6  1  0
  2  3  1  0
  2 64  1  6
  3 26  1  0
  3  4  1  0
  3 30  1  6
  4  5  1  0
  4 31  1  0
  4 32  1  0
  5  6  1  0
  5 33  1  0
  5 34  1  0
  6  7  1  0
  6 35  1  1
  7  8  1  0
  7 36  1  0
  7 37  1  0
  8  9  1  0
  8 26  1  0
  8 38  1  6
  9 10  1  0
 10 14  1  0
 10 11  1  0
 10 39  1  6
 11 12  1  0
 11 40  1  0
 11 41  1  0
 12 16  1  0
 12 13  1  0
 12 42  1  1
 13 14  1  0
 13 43  1  0
 13 44  1  0
 14 15  1  0
 14 45  1  1
 15 25  1  0
 15 16  1  0
 15 46  1  1
 16 17  1  0
 16 47  1  1
 17 18  1  0
 17 48  1  0
 17 49  1  0
 18 19  1  0
 18 50  1  0
 18 51  1  0
 19 25  1  0
 19 20  1  1
 19 21  1  0
 20 52  1  0
 20 53  1  0
 20 54  1  0
 21 22  1  0
 21 23  1  0
 21 55  1  1
 22 56  1  0
 23 24  1  0
 23 57  1  0
 23 58  1  0
 24 25  1  0
 24 59  1  0
 24 60  1  0
 25 61  1  1
 26 62  1  0
 26 63  1  0
M  CHG  1   2   1
M  END
>  <i_m_ct_stereo_status>  (255) 
1

>  <s_m_source_file>  (255) 
/var/tmp/pbs.5076255.sched01/tmpua_2_py4/114lbcpx7pn.sdf

>  <i_m_source_file_index>  (255) 
3

>  <i_lp_mmshare_version>  (255) 
48012

>  <i_f3d_flags>  (255) 
0

>  <s_epik_input>  (255) 
W0NIM11OKFtDQEhdMTIpW0NAQEhdKFtDSDJdW0NIMl0xKVtDSDJdW0NASF0oW0NIMl0yKU9bQ0BIXShbQ0gyXVtDQEhdKFtDSDJdMylbQ0BIXTRbQ0gyXVtDSDJdNSlbQ0BASF0zW0NAQEhdNFtDQEBIXShbQ0BAXTU2W0NIM10pW0NIMl1bQ0gyXVtDQEBIXTZbT0hd

>  <s_epik_cmdline>  (255) 
J2VwaWtfcHl0aG9uJywgJy1waHQnLCAnMi4wJywgJy1waCcsICc3LjAnLCAnLXRuJywgJzgnLCAnLW1hJywgJzIwMCcsICctaW1hZScsICc8aW5maWxlLm1hZT4nLCAnLW9tYWUnLCAnPG91dGZpbGUubWFlPic=

>  <r_epik_Ionization_Penalty>  (255) 
0.00196466

>  <r_epik_Ionization_Penalty_Charging>  (255) 
0.00196172

>  <r_epik_Ionization_Penalty_Neutral>  (255) 
2.93392e-06

>  <r_epik_State_Penalty>  (255) 
0.0013383

>  <r_epik_Charging_Adjusted_Penalty>  (255) 
0.00330002

>  <i_epik_Tot_Q>  (255) 
1

>  <i_epik_Tot_abs_Q>  (255) 
1

>  <s_lp_Force_Field>  (255) 
OPLS3e

>  <r_lp_Energy>  (255) 
84.0722

>  <b_lp_Chiralities_Consistent>  (255) 
1

>  <s_lp_Variant>  (255) 
86:0-2

>  <s_i_glide_gridfile>  (255) 
pfpi4k_grid

>  <i_i_glide_lignum>  (255) 
3

>  <i_i_glide_rotatable_bonds>  (255) 
3

>  <r_i_docking_score>  (255) 
-2.81801

>  <r_i_glide_ligand_efficiency>  (255) 
-0.108385

>  <r_i_glide_ligand_efficiency_sa>  (255) 
-0.32109

>  <r_i_glide_ligand_efficiency_ln>  (255) 
-0.661801

>  <r_i_glide_gscore>  (255) 
-2.81801

>  <r_i_glide_lipo>  (255) 
-0.170186

>  <r_i_glide_hbond>  (255) 
0

>  <r_i_glide_metal>  (255) 
-0

>  <r_i_glide_rewards>  (255) 
-0.950773

>  <r_i_glide_evdw>  (255) 
-21.7531

>  <r_i_glide_ecoul>  (255) 
-6.02989

>  <r_i_glide_erotb>  (255) 
0.295085

>  <r_i_glide_esite>  (255) 
0

>  <r_i_glide_emodel>  (255) 
-33.4256

>  <r_i_glide_energy>  (255) 
-27.783

>  <r_i_glide_einternal>  (255) 
1.37911

>  <r_i_glide_intrahb_reward>  (255) 
-0

>  <i_i_glide_confnum>  (255) 
3

>  <i_i_glide_posenum>  (255) 
26

>  <r_i_glide_eff_state_penalty>  (255) 
0

>  <ligand_id>  (255) 
86

>  <original_smiles>  (255) 
CN1C2CCC1CC(OC1CC3CC1C1C3CCC3(C)C(O)CCC13)C2

>  <smiles>  (255) 
[H]OC1([H])C([H])([H])C([H])([H])C2([H])C3([H])C4([H])C([H])([H])C([H])(C([H])([H])C4([H])OC4([H])C([H])([H])C5([H])C([H])([H])C([H])([H])C([H])(C4([H])[H])[N+]5([H])C([H])([H])[H])C3([H])C([H])([H])C([H])([H])C12C([H])([H])[H]

$$$$
87:0:0
     RDKit          3D

 59 64  0  0  1  0  0  0  0  0999 V2000
    1.9331   -3.7826   -1.2228 C   0  0  0  0  0  0  0  0  0  0  0  0
    3.4167   -3.4695   -0.9191 C   0  0  2  0  0  0  0  0  0  0  0  0
    3.4064   -2.0540   -0.3225 C   0  0  0  0  0  0  0  0  0  0  0  0
    4.7579   -1.4524   -0.1048 C   0  0  0  0  0  0  0  0  0  0  0  0
    5.6125   -1.4075   -1.3680 C   0  0  2  0  0  0  0  0  0  0  0  0
    4.9668   -0.6774   -2.4366 O   0  0  0  0  0  0  0  0  0  0  0  0
    4.0289   -1.1184   -3.3782 C   0  0  0  0  0  0  0  0  0  0  0  0
    3.6056   -0.3727   -4.2485 O   0  0  0  0  0  0  0  0  0  0  0  0
    3.5265   -2.5856   -3.3794 C   0  0  0  0  0  0  0  0  0  0  0  0
    4.1368   -3.4547   -2.2880 C   0  0  0  0  0  0  0  0  0  0  0  0
    5.4411   -3.6881   -2.4620 C   0  0  0  0  0  0  0  0  0  0  0  0
    6.3783   -2.6797   -1.8582 C   0  0  2  0  0  0  0  0  0  0  0  0
    7.5777   -3.2724   -1.1521 C   0  0  1  0  0  0  0  0  0  0  0  0
    8.2461   -2.7466    0.1231 C   0  0  1  0  0  0  0  0  0  0  0  0
    7.6116   -1.6694    0.7546 O   0  0  0  0  0  0  0  0  0  0  0  0
    7.4797   -4.0640    0.1364 C   0  0  2  0  0  0  0  0  0  0  0  0
    8.3986   -5.1324    0.2079 O   0  0  0  0  0  0  0  0  0  0  0  0
    6.2143   -4.1339    0.7881 O   0  0  0  0  0  0  0  0  0  0  0  0
    5.3052   -5.1316    0.2827 C   0  0  2  0  0  0  0  0  0  0  0  0
    3.8497   -4.5887    0.1404 C   0  0  1  0  0  0  0  0  0  0  0  0
    3.3148   -4.3180    1.5743 C   0  0  0  0  0  0  0  0  0  0  0  0
    3.2597   -5.5842    2.4339 C   0  0  0  0  0  0  0  0  0  0  0  0
    4.5807   -6.3715    2.5142 C   0  0  2  0  0  0  0  0  0  0  0  0
    4.2478   -7.8122    2.9841 C   0  0  0  0  0  0  0  0  0  0  0  0
    5.6553   -5.7219    3.3943 C   0  0  1  0  0  0  0  0  0  0  0  0
    5.4983   -5.9818    4.7806 O   0  0  0  0  0  0  0  0  0  0  0  0
    6.9562   -6.3105    2.8379 C   0  0  0  0  0  0  0  0  0  0  0  0
    6.6461   -6.7976    1.5306 O   0  0  0  0  0  0  0  0  0  0  0  0
    5.3186   -6.4298    1.1622 C   0  0  2  0  0  0  0  0  0  0  0  0
    1.4537   -4.0665   -0.3191 H   0  0  0  0  0  0  0  0  0  0  0  0
    1.7926   -4.5954   -1.9313 H   0  0  0  0  0  0  0  0  0  0  0  0
    1.3796   -2.9634   -1.6775 H   0  0  0  0  0  0  0  0  0  0  0  0
    2.8862   -1.3818   -0.9978 H   0  0  0  0  0  0  0  0  0  0  0  0
    2.8451   -1.9879    0.6085 H   0  0  0  0  0  0  0  0  0  0  0  0
    4.6240   -0.4181    0.2140 H   0  0  0  0  0  0  0  0  0  0  0  0
    5.2315   -1.9746    0.7159 H   0  0  0  0  0  0  0  0  0  0  0  0
    6.3810   -0.7387   -1.0488 H   0  0  0  0  0  0  0  0  0  0  0  0
    2.4384   -2.5966   -3.3903 H   0  0  0  0  0  0  0  0  0  0  0  0
    3.8306   -3.0085   -4.3321 H   0  0  0  0  0  0  0  0  0  0  0  0
    5.7470   -3.7465   -3.4943 H   0  0  0  0  0  0  0  0  0  0  0  0
    6.9096   -2.2570   -2.7040 H   0  0  0  0  0  0  0  0  0  0  0  0
    8.2960   -3.6688   -1.8654 H   0  0  0  0  0  0  0  0  0  0  0  0
    9.3163   -2.7726    0.2391 H   0  0  0  0  0  0  0  0  0  0  0  0
    7.4052   -1.9416    1.6295 H   0  0  0  0  0  0  0  0  0  0  0  0
    8.4562   -5.4283    1.1033 H   0  0  0  0  0  0  0  0  0  0  0  0
    5.6362   -5.4611   -0.6937 H   0  0  0  0  0  0  0  0  0  0  0  0
    3.3142   -5.4741   -0.2039 H   0  0  0  0  0  0  0  0  0  0  0  0
    3.9464   -3.5761    2.0629 H   0  0  0  0  0  0  0  0  0  0  0  0
    2.3127   -3.8911    1.5810 H   0  0  0  0  0  0  0  0  0  0  0  0
    2.9629   -5.2988    3.4434 H   0  0  0  0  0  0  0  0  0  0  0  0
    2.4691   -6.2327    2.0488 H   0  0  0  0  0  0  0  0  0  0  0  0
    5.1352   -8.4400    3.0674 H   0  0  0  0  0  0  0  0  0  0  0  0
    3.5804   -8.3057    2.2762 H   0  0  0  0  0  0  0  0  0  0  0  0
    3.7389   -7.8176    3.9495 H   0  0  0  0  0  0  0  0  0  0  0  0
    5.6623   -4.6416    3.2489 H   0  0  0  0  0  0  0  0  0  0  0  0
    5.5056   -6.9117    4.9131 H   0  0  0  0  0  0  0  0  0  0  0  0
    7.7353   -5.5516    2.7918 H   0  0  0  0  0  0  0  0  0  0  0  0
    7.3494   -7.1282    3.4443 H   0  0  0  0  0  0  0  0  0  0  0  0
    4.8969   -7.2397    0.5651 H   0  0  0  0  0  0  0  0  0  0  0  0
  2  1  1  6
  1 30  1  0
  1 31  1  0
  1 32  1  0
  2 10  1  0
  2 20  1  0
  2  3  1  0
  3  4  1  0
  3 33  1  0
  3 34  1  0
  4  5  1  0
  4 35  1  0
  4 36  1  0
  5 12  1  0
  5  6  1  0
  5 37  1  1
  6  7  1  0
  7  8  2  0
  7  9  1  0
  9 10  1  0
  9 38  1  0
  9 39  1  0
 10 11  2  0
 11 12  1  0
 11 40  1  0
 12 13  1  0
 12 41  1  6
 13 16  1  0
 13 14  1  0
 13 42  1  6
 14 15  1  0
 14 16  1  0
 14 43  1  6
 15 44  1  0
 16 17  1  6
 16 18  1  0
 17 45  1  0
 18 19  1  0
 19 29  1  0
 19 20  1  0
 19 46  1  6
 20 21  1  0
 20 47  1  6
 21 22  1  0
 21 48  1  0
 21 49  1  0
 22 23  1  0
 22 50  1  0
 22 51  1  0
 23 29  1  0
 23 24  1  1
 23 25  1  0
 24 52  1  0
 24 53  1  0
 24 54  1  0
 25 26  1  0
 25 27  1  0
 25 55  1  1
 26 56  1  0
 27 28  1  0
 27 57  1  0
 27 58  1  0
 28 29  1  0
 29 59  1  6
M  END
>  <i_m_ct_stereo_status>  (256) 
1

>  <s_m_source_file>  (256) 
/var/tmp/pbs.5076255.sched01/tmpua_2_py4/114lbcpx7pn.sdf

>  <i_m_source_file_index>  (256) 
4

>  <i_lp_mmshare_version>  (256) 
48012

>  <i_f3d_flags>  (256) 
0

>  <s_epik_input>  (256) 
W0NIM11bQ0BAXTEyQzM9W0NIXVtDQEBIXShbQ0BIXShbQ0gyXVtDSDJdMSlPQyg9TylbQ0gyXTMpW0NAQEhdNFtDQEBdKFtPSF0pKFtDQEBIXTRbT0hdKU9bQ0BASF01W0NASF0yW0NIMl1bQ0gyXVtDQEBdNihbQ0gzXSlbQ0BASF01T1tDSDJdW0NAQEhdNltPSF0=

>  <s_epik_cmdline>  (256) 
J2VwaWtfcHl0aG9uJywgJy1waHQnLCAnMi4wJywgJy1waCcsICc3LjAnLCAnLXRuJywgJzgnLCAnLW1hJywgJzIwMCcsICctaW1hZScsICc8aW5maWxlLm1hZT4nLCAnLW9tYWUnLCAnPG91dGZpbGUubWFlPic=

>  <r_lp_tautomer_probability>  (256) 
1

>  <r_epik_Ionization_Penalty>  (256) 
2.41416e-06

>  <r_epik_Ionization_Penalty_Charging>  (256) 
0

>  <r_epik_Ionization_Penalty_Neutral>  (256) 
2.41416e-06

>  <r_epik_State_Penalty>  (256) 
-0

>  <r_epik_Charging_Adjusted_Penalty>  (256) 
0

>  <i_epik_Tot_Q>  (256) 
0

>  <i_epik_Tot_abs_Q>  (256) 
0

>  <s_epik_Chemistry_Notes>  (256) 
This compound has an ester and may undergo hydrolysis at high or low pH.

>  <s_lp_Force_Field>  (256) 
OPLS3e

>  <r_lp_Energy>  (256) 
112.923

>  <b_lp_Chiralities_Consistent>  (256) 
1

>  <s_lp_Variant>  (256) 
87:0-1

>  <s_i_glide_gridfile>  (256) 
pfpi4k_grid

>  <i_i_glide_lignum>  (256) 
4

>  <i_i_glide_rotatable_bonds>  (256) 
3

>  <r_i_docking_score>  (256) 
-3.37378

>  <r_i_glide_ligand_efficiency>  (256) 
-0.116337

>  <r_i_glide_ligand_efficiency_sa>  (256) 
-0.357425

>  <r_i_glide_ligand_efficiency_ln>  (256) 
-0.77251

>  <r_i_glide_gscore>  (256) 
-3.37378

>  <r_i_glide_lipo>  (256) 
-0.709706

>  <r_i_glide_hbond>  (256) 
0

>  <r_i_glide_metal>  (256) 
-0

>  <r_i_glide_rewards>  (256) 
-1.05636

>  <r_i_glide_evdw>  (256) 
-28.5435

>  <r_i_glide_ecoul>  (256) 
-1.20362

>  <r_i_glide_erotb>  (256) 
0

>  <r_i_glide_esite>  (256) 
0

>  <r_i_glide_emodel>  (256) 
-35.852

>  <r_i_glide_energy>  (256) 
-29.7471

>  <r_i_glide_einternal>  (256) 
0.485975

>  <r_i_glide_intrahb_reward>  (256) 
-0

>  <i_i_glide_confnum>  (256) 
1

>  <i_i_glide_posenum>  (256) 
21

>  <r_i_glide_eff_state_penalty>  (256) 
0

>  <ligand_id>  (256) 
87

>  <original_smiles>  (256) 
CC12CCC3OC(=O)CC1=CC3C1C(O)C1(O)OC1C2CCC2(C)C(O)COC12

>  <smiles>  (256) 
[H]OC1([H])C2(O[H])OC3([H])C4([H])OC([H])([H])C([H])(O[H])C4(C([H])([H])[H])C([H])([H])C([H])([H])C3([H])C3(C([H])([H])[H])C4=C([H])C([H])(C([H])(OC(=O)C4([H])[H])C([H])([H])C3([H])[H])C12[H]

$$$$
87:0:1
     RDKit          3D

 59 64  0  0  1  0  0  0  0  0999 V2000
    2.5050   -6.3685    2.5838 C   0  0  0  0  0  0  0  0  0  0  0  0
    2.8340   -4.8764    2.8987 C   0  0  2  0  0  0  0  0  0  0  0  0
    3.8547   -4.9039    4.0638 C   0  0  0  0  0  0  0  0  0  0  0  0
    4.1689   -3.5400    4.6696 C   0  0  0  0  0  0  0  0  0  0  0  0
    2.9640   -2.7319    5.2172 C   0  0  2  0  0  0  0  0  0  0  0  0
    2.2082   -3.4844    6.1906 O   0  0  0  0  0  0  0  0  0  0  0  0
    1.2686   -4.4922    5.9924 C   0  0  0  0  0  0  0  0  0  0  0  0
    0.7385   -5.0579    6.9489 O   0  0  0  0  0  0  0  0  0  0  0  0
    0.8210   -4.9263    4.5708 C   0  0  0  0  0  0  0  0  0  0  0  0
    1.5300   -4.2195    3.4207 C   0  0  0  0  0  0  0  0  0  0  0  0
    1.2396   -2.9092    3.3628 C   0  0  0  0  0  0  0  0  0  0  0  0
    2.0312   -1.9724    4.2381 C   0  0  2  0  0  0  0  0  0  0  0  0
    2.5009   -0.7162    3.4933 C   0  0  1  0  0  0  0  0  0  0  0  0
    3.8405    0.0082    3.5438 C   0  0  1  0  0  0  0  0  0  0  0  0
    4.8920   -0.5764    4.2800 O   0  0  0  0  0  0  0  0  0  0  0  0
    3.4051   -0.7296    2.2850 C   0  0  2  0  0  0  0  0  0  0  0  0
    3.0020    0.1717    1.2705 O   0  0  0  0  0  0  0  0  0  0  0  0
    4.0770   -1.9541    1.9369 O   0  0  0  0  0  0  0  0  0  0  0  0
    3.3097   -2.8126    1.0840 C   0  0  2  0  0  0  0  0  0  0  0  0
    3.4383   -4.3036    1.5316 C   0  0  1  0  0  0  0  0  0  0  0  0
    4.9038   -4.7407    1.2886 C   0  0  0  0  0  0  0  0  0  0  0  0
    5.2986   -4.6748   -0.1905 C   0  0  0  0  0  0  0  0  0  0  0  0
    5.0382   -3.3198   -0.8682 C   0  0  2  0  0  0  0  0  0  0  0  0
    5.0197   -3.5391   -2.4049 C   0  0  0  0  0  0  0  0  0  0  0  0
    6.0302   -2.2248   -0.4691 C   0  0  1  0  0  0  0  0  0  0  0  0
    7.2458   -2.2555   -1.1961 O   0  0  0  0  0  0  0  0  0  0  0  0
    5.2383   -0.9486   -0.7481 C   0  0  0  0  0  0  0  0  0  0  0  0
    3.8660   -1.3258   -0.8245 O   0  0  0  0  0  0  0  0  0  0  0  0
    3.7073   -2.6805   -0.4281 C   0  0  2  0  0  0  0  0  0  0  0  0
    3.3194   -6.8815    2.0788 H   0  0  0  0  0  0  0  0  0  0  0  0
    1.6284   -6.4634    1.9393 H   0  0  0  0  0  0  0  0  0  0  0  0
    2.3217   -6.9652    3.4746 H   0  0  0  0  0  0  0  0  0  0  0  0
    3.4946   -5.5513    4.8632 H   0  0  0  0  0  0  0  0  0  0  0  0
    4.7904   -5.3792    3.7685 H   0  0  0  0  0  0  0  0  0  0  0  0
    4.8566   -3.7023    5.4967 H   0  0  0  0  0  0  0  0  0  0  0  0
    4.7459   -2.9916    3.9353 H   0  0  0  0  0  0  0  0  0  0  0  0
    3.4070   -1.9398    5.8196 H   0  0  0  0  0  0  0  0  0  0  0  0
    0.8597   -6.0091    4.4934 H   0  0  0  0  0  0  0  0  0  0  0  0
   -0.2377   -4.6812    4.5069 H   0  0  0  0  0  0  0  0  0  0  0  0
    0.2205   -2.6906    3.6479 H   0  0  0  0  0  0  0  0  0  0  0  0
    1.2885   -1.5526    4.9198 H   0  0  0  0  0  0  0  0  0  0  0  0
    1.6538   -0.0430    3.3630 H   0  0  0  0  0  0  0  0  0  0  0  0
    3.8610    1.1002    3.5556 H   0  0  0  0  0  0  0  0  0  0  0  0
    4.8528   -1.5099    4.1337 H   0  0  0  0  0  0  0  0  0  0  0  0
    2.3418   -0.2500    0.7212 H   0  0  0  0  0  0  0  0  0  0  0  0
    2.2599   -2.5253    1.1128 H   0  0  0  0  0  0  0  0  0  0  0  0
    2.8558   -4.8170    0.7646 H   0  0  0  0  0  0  0  0  0  0  0  0
    5.5804   -4.1213    1.8809 H   0  0  0  0  0  0  0  0  0  0  0  0
    5.0813   -5.7641    1.6102 H   0  0  0  0  0  0  0  0  0  0  0  0
    6.3546   -4.9243   -0.2782 H   0  0  0  0  0  0  0  0  0  0  0  0
    4.7537   -5.4561   -0.7232 H   0  0  0  0  0  0  0  0  0  0  0  0
    4.8442   -2.6176   -2.9642 H   0  0  0  0  0  0  0  0  0  0  0  0
    4.2309   -4.2378   -2.6837 H   0  0  0  0  0  0  0  0  0  0  0  0
    5.9550   -3.9648   -2.7672 H   0  0  0  0  0  0  0  0  0  0  0  0
    6.2583   -2.2747    0.5975 H   0  0  0  0  0  0  0  0  0  0  0  0
    7.6856   -3.0762   -1.0166 H   0  0  0  0  0  0  0  0  0  0  0  0
    5.4029   -0.2136    0.0404 H   0  0  0  0  0  0  0  0  0  0  0  0
    5.5185   -0.4794   -1.6945 H   0  0  0  0  0  0  0  0  0  0  0  0
    2.8979   -3.0992   -1.0252 H   0  0  0  0  0  0  0  0  0  0  0  0
  2  1  1  6
  1 30  1  0
  1 31  1  0
  1 32  1  0
  2 10  1  0
  2 20  1  0
  2  3  1  0
  3  4  1  0
  3 33  1  0
  3 34  1  0
  4  5  1  0
  4 35  1  0
  4 36  1  0
  5 12  1  0
  5  6  1  0
  5 37  1  1
  6  7  1  0
  7  8  2  0
  7  9  1  0
  9 10  1  0
  9 38  1  0
  9 39  1  0
 10 11  2  0
 11 12  1  0
 11 40  1  0
 12 13  1  0
 12 41  1  1
 13 16  1  0
 13 14  1  0
 13 42  1  6
 14 15  1  0
 14 16  1  0
 14 43  1  6
 15 44  1  0
 16 17  1  6
 16 18  1  0
 17 45  1  0
 18 19  1  0
 19 29  1  0
 19 20  1  0
 19 46  1  6
 20 21  1  0
 20 47  1  6
 21 22  1  0
 21 48  1  0
 21 49  1  0
 22 23  1  0
 22 50  1  0
 22 51  1  0
 23 29  1  0
 23 24  1  6
 23 25  1  0
 24 52  1  0
 24 53  1  0
 24 54  1  0
 25 26  1  0
 25 27  1  0
 25 55  1  1
 26 56  1  0
 27 28  1  0
 27 57  1  0
 27 58  1  0
 28 29  1  0
 29 59  1  6
M  END
>  <i_m_ct_stereo_status>  (257) 
1

>  <s_m_source_file>  (257) 
/var/tmp/pbs.5076255.sched01/tmpua_2_py4/114lbcpx7pn.sdf

>  <i_m_source_file_index>  (257) 
4

>  <i_lp_mmshare_version>  (257) 
48012

>  <i_f3d_flags>  (257) 
0

>  <s_epik_input>  (257) 
W0NIM11bQ0BAXTEyQzM9W0NIXVtDQEBIXShbQ0BIXShbQ0gyXVtDSDJdMSlPQyg9TylbQ0gyXTMpW0NAQEhdNFtDQEBdKFtPSF0pKFtDQEBIXTRbT0hdKU9bQ0BASF01W0NASF0yW0NIMl1bQ0gyXVtDQEBdNihbQ0gzXSlbQ0BASF01T1tDSDJdW0NAQEhdNltPSF0=

>  <s_epik_cmdline>  (257) 
J2VwaWtfcHl0aG9uJywgJy1waHQnLCAnMi4wJywgJy1waCcsICc3LjAnLCAnLXRuJywgJzgnLCAnLW1hJywgJzIwMCcsICctaW1hZScsICc8aW5maWxlLm1hZT4nLCAnLW9tYWUnLCAnPG91dGZpbGUubWFlPic=

>  <r_lp_tautomer_probability>  (257) 
1

>  <r_epik_Ionization_Penalty>  (257) 
2.41416e-06

>  <r_epik_Ionization_Penalty_Charging>  (257) 
0

>  <r_epik_Ionization_Penalty_Neutral>  (257) 
2.41416e-06

>  <r_epik_State_Penalty>  (257) 
-0

>  <r_epik_Charging_Adjusted_Penalty>  (257) 
0

>  <i_epik_Tot_Q>  (257) 
0

>  <i_epik_Tot_abs_Q>  (257) 
0

>  <s_epik_Chemistry_Notes>  (257) 
This compound has an ester and may undergo hydrolysis at high or low pH.

>  <s_lp_Force_Field>  (257) 
OPLS3e

>  <r_lp_Energy>  (257) 
112.923

>  <b_lp_Chiralities_Consistent>  (257) 
1

>  <s_lp_Variant>  (257) 
87:0-1

>  <s_i_glide_gridfile>  (257) 
pfpi4k_grid

>  <i_i_glide_lignum>  (257) 
4

>  <i_i_glide_rotatable_bonds>  (257) 
3

>  <r_i_docking_score>  (257) 
-3.35903

>  <r_i_glide_ligand_efficiency>  (257) 
-0.115829

>  <r_i_glide_ligand_efficiency_sa>  (257) 
-0.355862

>  <r_i_glide_ligand_efficiency_ln>  (257) 
-0.769132

>  <r_i_glide_gscore>  (257) 
-3.35903

>  <r_i_glide_lipo>  (257) 
-0.295731

>  <r_i_glide_hbond>  (257) 
-0.16

>  <r_i_glide_metal>  (257) 
-0

>  <r_i_glide_rewards>  (257) 
-0.637709

>  <r_i_glide_evdw>  (257) 
-25.5713

>  <r_i_glide_ecoul>  (257) 
-6.56305

>  <r_i_glide_erotb>  (257) 
0

>  <r_i_glide_esite>  (257) 
-0.00256822

>  <r_i_glide_emodel>  (257) 
-38.5838

>  <r_i_glide_energy>  (257) 
-32.1343

>  <r_i_glide_einternal>  (257) 
0.329029

>  <r_i_glide_intrahb_reward>  (257) 
-0

>  <i_i_glide_confnum>  (257) 
2

>  <i_i_glide_posenum>  (257) 
37

>  <r_i_glide_eff_state_penalty>  (257) 
0

>  <ligand_id>  (257) 
87

>  <original_smiles>  (257) 
CC12CCC3OC(=O)CC1=CC3C1C(O)C1(O)OC1C2CCC2(C)C(O)COC12

>  <smiles>  (257) 
[H]OC1([H])C2(O[H])OC3([H])C4([H])OC([H])([H])C([H])(O[H])C4(C([H])([H])[H])C([H])([H])C([H])([H])C3([H])C3(C([H])([H])[H])C4=C([H])C([H])(C([H])(OC(=O)C4([H])[H])C([H])([H])C3([H])[H])C12[H]

$$$$
87:0:2
     RDKit          3D

 59 64  0  0  1  0  0  0  0  0999 V2000
    1.9517   -4.1438   -0.7174 C   0  0  0  0  0  0  0  0  0  0  0  0
    3.4226   -3.6869   -0.5407 C   0  0  2  0  0  0  0  0  0  0  0  0
    3.3523   -2.2503    0.0215 C   0  0  0  0  0  0  0  0  0  0  0  0
    4.6790   -1.5208    0.0746 C   0  0  0  0  0  0  0  0  0  0  0  0
    5.4464   -1.4181   -1.2634 C   0  0  2  0  0  0  0  0  0  0  0  0
    4.6730   -0.7872   -2.3099 O   0  0  0  0  0  0  0  0  0  0  0  0
    3.6778   -1.3313   -3.1153 C   0  0  0  0  0  0  0  0  0  0  0  0
    3.1008   -0.6403   -3.9590 O   0  0  0  0  0  0  0  0  0  0  0  0
    3.2884   -2.8294   -3.0224 C   0  0  0  0  0  0  0  0  0  0  0  0
    4.0462   -3.6178   -1.9581 C   0  0  0  0  0  0  0  0  0  0  0  0
    5.3487   -3.7568   -2.2342 C   0  0  0  0  0  0  0  0  0  0  0  0
    6.2518   -2.6454   -1.7840 C   0  0  2  0  0  0  0  0  0  0  0  0
    7.5484   -3.1305   -1.1228 C   0  0  1  0  0  0  0  0  0  0  0  0
    8.2600   -2.5670    0.0851 C   0  0  1  0  0  0  0  0  0  0  0  0
    7.6046   -1.4913    0.6958 O   0  0  0  0  0  0  0  0  0  0  0  0
    7.5863   -3.9164    0.1624 C   0  0  2  0  0  0  0  0  0  0  0  0
    8.5618   -4.9499    0.1761 O   0  0  0  0  0  0  0  0  0  0  0  0
    6.3657   -4.0606    0.9215 O   0  0  0  0  0  0  0  0  0  0  0  0
    5.5337   -5.1573    0.5092 C   0  0  2  0  0  0  0  0  0  0  0  0
    4.0320   -4.7413    0.4914 C   0  0  1  0  0  0  0  0  0  0  0  0
    3.6014   -4.4673    1.9563 C   0  0  0  0  0  0  0  0  0  0  0  0
    3.7154   -5.7082    2.8458 C   0  0  0  0  0  0  0  0  0  0  0  0
    5.0937   -6.3964    2.8205 C   0  0  2  0  0  0  0  0  0  0  0  0
    4.9079   -7.8471    3.3408 C   0  0  0  0  0  0  0  0  0  0  0  0
    6.1854   -5.6573    3.5995 C   0  0  1  0  0  0  0  0  0  0  0  0
    6.1626   -5.8832    4.9959 O   0  0  0  0  0  0  0  0  0  0  0  0
    7.4768   -6.1582    2.9441 C   0  0  0  0  0  0  0  0  0  0  0  0
    7.0968   -6.6932    1.6754 O   0  0  0  0  0  0  0  0  0  0  0  0
    5.7212   -6.4280    1.4120 C   0  0  2  0  0  0  0  0  0  0  0  0
    1.5114   -4.4021    0.2348 H   0  0  0  0  0  0  0  0  0  0  0  0
    1.8144   -5.0545   -1.2819 H   0  0  0  0  0  0  0  0  0  0  0  0
    1.3181   -3.3931   -1.1836 H   0  0  0  0  0  0  0  0  0  0  0  0
    2.6911   -1.6572   -0.6021 H   0  0  0  0  0  0  0  0  0  0  0  0
    2.8751   -2.2070    1.0021 H   0  0  0  0  0  0  0  0  0  0  0  0
    4.4885   -0.5072    0.4202 H   0  0  0  0  0  0  0  0  0  0  0  0
    5.2555   -1.9885    0.8622 H   0  0  0  0  0  0  0  0  0  0  0  0
    6.2058   -0.6698   -1.0663 H   0  0  0  0  0  0  0  0  0  0  0  0
    2.2091   -2.9236   -2.9382 H   0  0  0  0  0  0  0  0  0  0  0  0
    3.5326   -3.2647   -3.9909 H   0  0  0  0  0  0  0  0  0  0  0  0
    5.5570   -3.8375   -3.2928 H   0  0  0  0  0  0  0  0  0  0  0  0
    6.6564   -2.2581   -2.7134 H   0  0  0  0  0  0  0  0  0  0  0  0
    8.2254   -3.5177   -1.8875 H   0  0  0  0  0  0  0  0  0  0  0  0
    9.3501   -2.5052    0.0868 H   0  0  0  0  0  0  0  0  0  0  0  0
    6.8021   -1.8451    1.0657 H   0  0  0  0  0  0  0  0  0  0  0  0
    8.6192   -5.2829    1.0609 H   0  0  0  0  0  0  0  0  0  0  0  0
    5.8081   -5.4876   -0.4904 H   0  0  0  0  0  0  0  0  0  0  0  0
    3.5411   -5.6739    0.2138 H   0  0  0  0  0  0  0  0  0  0  0  0
    4.2016   -3.6582    2.3738 H   0  0  0  0  0  0  0  0  0  0  0  0
    2.5682   -4.1290    2.0262 H   0  0  0  0  0  0  0  0  0  0  0  0
    3.4748   -5.4280    3.8711 H   0  0  0  0  0  0  0  0  0  0  0  0
    2.9467   -6.4194    2.5342 H   0  0  0  0  0  0  0  0  0  0  0  0
    5.8449   -8.4068    3.3604 H   0  0  0  0  0  0  0  0  0  0  0  0
    4.2211   -8.4048    2.7020 H   0  0  0  0  0  0  0  0  0  0  0  0
    4.4851   -7.8676    4.3470 H   0  0  0  0  0  0  0  0  0  0  0  0
    6.0948   -4.5840    3.4309 H   0  0  0  0  0  0  0  0  0  0  0  0
    6.2624   -6.8123    5.1539 H   0  0  0  0  0  0  0  0  0  0  0  0
    8.1913   -5.3471    2.8184 H   0  0  0  0  0  0  0  0  0  0  0  0
    7.9771   -6.9322    3.5308 H   0  0  0  0  0  0  0  0  0  0  0  0
    5.3147   -7.2815    0.8684 H   0  0  0  0  0  0  0  0  0  0  0  0
  2  1  1  6
  1 30  1  0
  1 31  1  0
  1 32  1  0
  2 10  1  0
  2 20  1  0
  2  3  1  0
  3  4  1  0
  3 33  1  0
  3 34  1  0
  4  5  1  0
  4 35  1  0
  4 36  1  0
  5 12  1  0
  5  6  1  0
  5 37  1  1
  6  7  1  0
  7  8  2  0
  7  9  1  0
  9 10  1  0
  9 38  1  0
  9 39  1  0
 10 11  2  0
 11 12  1  0
 11 40  1  0
 12 13  1  0
 12 41  1  6
 13 16  1  0
 13 14  1  0
 13 42  1  6
 14 15  1  0
 14 16  1  0
 14 43  1  6
 15 44  1  0
 16 17  1  6
 16 18  1  0
 17 45  1  0
 18 19  1  0
 19 29  1  0
 19 20  1  0
 19 46  1  6
 20 21  1  0
 20 47  1  6
 21 22  1  0
 21 48  1  0
 21 49  1  0
 22 23  1  0
 22 50  1  0
 22 51  1  0
 23 29  1  0
 23 24  1  1
 23 25  1  0
 24 52  1  0
 24 53  1  0
 24 54  1  0
 25 26  1  0
 25 27  1  0
 25 55  1  1
 26 56  1  0
 27 28  1  0
 27 57  1  0
 27 58  1  0
 28 29  1  0
 29 59  1  6
M  END
>  <i_m_ct_stereo_status>  (258) 
1

>  <s_m_source_file>  (258) 
/var/tmp/pbs.5076255.sched01/tmpua_2_py4/114lbcpx7pn.sdf

>  <i_m_source_file_index>  (258) 
4

>  <i_lp_mmshare_version>  (258) 
48012

>  <i_f3d_flags>  (258) 
0

>  <s_epik_input>  (258) 
W0NIM11bQ0BAXTEyQzM9W0NIXVtDQEBIXShbQ0BIXShbQ0gyXVtDSDJdMSlPQyg9TylbQ0gyXTMpW0NAQEhdNFtDQEBdKFtPSF0pKFtDQEBIXTRbT0hdKU9bQ0BASF01W0NASF0yW0NIMl1bQ0gyXVtDQEBdNihbQ0gzXSlbQ0BASF01T1tDSDJdW0NAQEhdNltPSF0=

>  <s_epik_cmdline>  (258) 
J2VwaWtfcHl0aG9uJywgJy1waHQnLCAnMi4wJywgJy1waCcsICc3LjAnLCAnLXRuJywgJzgnLCAnLW1hJywgJzIwMCcsICctaW1hZScsICc8aW5maWxlLm1hZT4nLCAnLW9tYWUnLCAnPG91dGZpbGUubWFlPic=

>  <r_lp_tautomer_probability>  (258) 
1

>  <r_epik_Ionization_Penalty>  (258) 
2.41416e-06

>  <r_epik_Ionization_Penalty_Charging>  (258) 
0

>  <r_epik_Ionization_Penalty_Neutral>  (258) 
2.41416e-06

>  <r_epik_State_Penalty>  (258) 
-0

>  <r_epik_Charging_Adjusted_Penalty>  (258) 
0

>  <i_epik_Tot_Q>  (258) 
0

>  <i_epik_Tot_abs_Q>  (258) 
0

>  <s_epik_Chemistry_Notes>  (258) 
This compound has an ester and may undergo hydrolysis at high or low pH.

>  <s_lp_Force_Field>  (258) 
OPLS3e

>  <r_lp_Energy>  (258) 
112.923

>  <b_lp_Chiralities_Consistent>  (258) 
1

>  <s_lp_Variant>  (258) 
87:0-1

>  <s_i_glide_gridfile>  (258) 
pfpi4k_grid

>  <i_i_glide_lignum>  (258) 
4

>  <i_i_glide_rotatable_bonds>  (258) 
3

>  <r_i_docking_score>  (258) 
-2.90048

>  <r_i_glide_ligand_efficiency>  (258) 
-0.100017

>  <r_i_glide_ligand_efficiency_sa>  (258) 
-0.307283

>  <r_i_glide_ligand_efficiency_ln>  (258) 
-0.664137

>  <r_i_glide_gscore>  (258) 
-2.90048

>  <r_i_glide_lipo>  (258) 
-0.41913

>  <r_i_glide_hbond>  (258) 
0

>  <r_i_glide_metal>  (258) 
-0

>  <r_i_glide_rewards>  (258) 
-0.891631

>  <r_i_glide_evdw>  (258) 
-28.2463

>  <r_i_glide_ecoul>  (258) 
-1.18272

>  <r_i_glide_erotb>  (258) 
0

>  <r_i_glide_esite>  (258) 
0

>  <r_i_glide_emodel>  (258) 
-34.68

>  <r_i_glide_energy>  (258) 
-29.429

>  <r_i_glide_einternal>  (258) 
0.399918

>  <r_i_glide_intrahb_reward>  (258) 
-0

>  <i_i_glide_confnum>  (258) 
2

>  <i_i_glide_posenum>  (258) 
20

>  <r_i_glide_eff_state_penalty>  (258) 
0

>  <ligand_id>  (258) 
87

>  <original_smiles>  (258) 
CC12CCC3OC(=O)CC1=CC3C1C(O)C1(O)OC1C2CCC2(C)C(O)COC12

>  <smiles>  (258) 
[H]OC1([H])C2(O[H])OC3([H])C4([H])OC([H])([H])C([H])(O[H])C4(C([H])([H])[H])C([H])([H])C([H])([H])C3([H])C3(C([H])([H])[H])C4=C([H])C([H])(C([H])(OC(=O)C4([H])[H])C([H])([H])C3([H])[H])C12[H]

$$$$
89:0:0
     RDKit          3D

 35 41  0  0  1  0  0  0  0  0999 V2000
    7.1337   -2.2666   -1.0964 O   0  0  0  0  0  0  0  0  0  0  0  0
    6.5468   -3.4461   -1.6221 C   0  0  0  0  0  0  0  0  0  0  0  0
    4.9622   -3.3160   -1.6743 C   0  0  1  0  0  0  0  0  0  0  0  0
    4.6440   -4.2088   -0.4087 C   0  0  2  0  0  0  0  0  0  0  0  0
    3.7673   -3.7846    0.7585 C   0  0  0  0  0  0  0  0  0  0  0  0
    5.1924   -3.7748    0.8630 O   0  0  0  0  0  0  0  0  0  0  0  0
    4.3269   -1.7184   -1.5993 C   0  0  1  0  0  0  0  0  0  0  0  0
    4.3367   -0.6443   -2.8125 C   0  0  2  0  0  0  0  0  0  0  0  0
    3.0728    0.0288   -3.4217 C   0  0  0  0  0  0  0  0  0  0  0  0
    2.8713   -1.0863   -4.4894 C   0  0  1  0  0  0  0  0  0  0  0  0
    4.3107   -1.3903   -4.1613 C   0  0  2  0  0  0  0  0  0  0  0  0
    4.6338   -2.6394   -3.4544 C   0  0  1  0  0  0  0  0  0  0  0  0
    3.4559   -2.5700   -2.2256 C   0  0  2  0  0  0  0  0  0  0  0  0
    2.1361   -2.5733   -2.8027 C   0  0  1  0  0  0  0  0  0  0  0  0
    2.0417   -2.3422   -4.2103 C   0  0  2  0  0  0  0  0  0  0  0  0
    2.6396   -3.6923   -3.6101 C   0  0  1  0  0  0  0  0  0  0  0  0
    4.2012   -3.9144   -3.1464 C   0  0  2  0  0  0  0  0  0  0  0  0
    6.9393   -2.2673   -0.1752 H   0  0  0  0  0  0  0  0  0  0  0  0
    7.0278   -3.6675   -2.5746 H   0  0  0  0  0  0  0  0  0  0  0  0
    6.8726   -4.2453   -0.9509 H   0  0  0  0  0  0  0  0  0  0  0  0
    4.6975   -5.2867   -0.5954 H   0  0  0  0  0  0  0  0  0  0  0  0
    3.3448   -2.7844    0.8334 H   0  0  0  0  0  0  0  0  0  0  0  0
    3.2961   -4.5717    1.3391 H   0  0  0  0  0  0  0  0  0  0  0  0
    4.0201   -1.3547   -0.6241 H   0  0  0  0  0  0  0  0  0  0  0  0
    5.1217    0.1053   -2.7184 H   0  0  0  0  0  0  0  0  0  0  0  0
    2.2393    0.1102   -2.7226 H   0  0  0  0  0  0  0  0  0  0  0  0
    3.2713    0.9622   -3.8963 H   0  0  0  0  0  0  0  0  0  0  0  0
    2.6957   -0.6325   -5.4801 H   0  0  0  0  0  0  0  0  0  0  0  0
    5.0145   -1.0111   -4.9030 H   0  0  0  0  0  0  0  0  0  0  0  0
    5.7284   -2.5584   -3.5273 H   0  0  0  0  0  0  0  0  0  0  0  0
    2.9487   -3.2123   -1.4335 H   0  0  0  0  0  0  0  0  0  0  0  0
    1.2403   -2.7233   -2.1982 H   0  0  0  0  0  0  0  0  0  0  0  0
    1.0273   -2.3693   -4.6074 H   0  0  0  0  0  0  0  0  0  0  0  0
    2.0094   -4.5656   -3.7065 H   0  0  0  0  0  0  0  0  0  0  0  0
    4.7170   -4.6957   -3.7170 H   0  0  0  0  0  0  0  0  0  0  0  0
  1  2  1  0
  1 18  1  0
  3  2  1  6
  2 19  1  0
  2 20  1  0
  3 17  1  0
  3  4  1  0
  3  7  1  0
  4  6  1  0
  4  5  1  0
  4 21  1  6
  5  6  1  0
  5 22  1  0
  5 23  1  0
  7 13  1  0
  7  8  1  0
  7 24  1  1
  8 11  1  0
  8  9  1  0
  8 25  1  6
  9 10  1  0
  9 26  1  0
  9 27  1  0
 10 15  1  0
 10 11  1  0
 10 28  1  6
 11 12  1  0
 11 29  1  6
 12 17  1  0
 12 13  1  0
 12 30  1  1
 13 14  1  0
 13 31  1  1
 14 16  1  0
 14 15  1  0
 14 32  1  1
 15 16  1  0
 15 33  1  6
 16 17  1  0
 16 34  1  6
 17 35  1  6
M  END
>  <i_m_ct_stereo_status>  (259) 
1

>  <s_m_source_file>  (259) 
/var/tmp/pbs.5076255.sched01/tmpua_2_py4/114lbcpx7pn.sdf

>  <i_m_source_file_index>  (259) 
6

>  <i_lp_mmshare_version>  (259) 
48012

>  <i_f3d_flags>  (259) 
0

>  <s_epik_input>  (259) 
TzFbQ0gyXVtDQEhdMVtDQEBdMihbQ0gyXVtPSF0pW0NAQEhdKFtDQEBIXTM0KVtDQEBIXTVbQ0BASF02W0NASF0zW0NASF00W0NAQEhdKFtDSDJdNylbQ0BIXTVbQ0BASF03W0NASF0yNg==

>  <s_epik_cmdline>  (259) 
J2VwaWtfcHl0aG9uJywgJy1waHQnLCAnMi4wJywgJy1waCcsICc3LjAnLCAnLXRuJywgJzgnLCAnLW1hJywgJzIwMCcsICctaW1hZScsICc8aW5maWxlLm1hZT4nLCAnLW9tYWUnLCAnPG91dGZpbGUubWFlPic=

>  <r_lp_tautomer_probability>  (259) 
1

>  <r_epik_Ionization_Penalty>  (259) 
3.66135e-07

>  <r_epik_Ionization_Penalty_Charging>  (259) 
0

>  <r_epik_Ionization_Penalty_Neutral>  (259) 
3.66135e-07

>  <r_epik_State_Penalty>  (259) 
-0

>  <r_epik_Charging_Adjusted_Penalty>  (259) 
0

>  <i_epik_Tot_Q>  (259) 
0

>  <i_epik_Tot_abs_Q>  (259) 
0

>  <s_lp_Force_Field>  (259) 
OPLS3e

>  <r_lp_Energy>  (259) 
371.871

>  <b_lp_Chiralities_Consistent>  (259) 
1

>  <s_lp_Variant>  (259) 
89:0-1

>  <s_i_glide_gridfile>  (259) 
pfpi4k_grid

>  <i_i_glide_lignum>  (259) 
6

>  <i_i_glide_rotatable_bonds>  (259) 
3

>  <r_i_docking_score>  (259) 
-3.03767

>  <r_i_glide_ligand_efficiency>  (259) 
-0.178686

>  <r_i_glide_ligand_efficiency_sa>  (259) 
-0.459453

>  <r_i_glide_ligand_efficiency_ln>  (259) 
-0.79246

>  <r_i_glide_gscore>  (259) 
-3.03767

>  <r_i_glide_lipo>  (259) 
-0.701997

>  <r_i_glide_hbond>  (259) 
0

>  <r_i_glide_metal>  (259) 
-0

>  <r_i_glide_rewards>  (259) 
-1.83885

>  <r_i_glide_evdw>  (259) 
-8.78937

>  <r_i_glide_ecoul>  (259) 
-4.67669

>  <r_i_glide_erotb>  (259) 
0.644149

>  <r_i_glide_esite>  (259) 
0

>  <r_i_glide_emodel>  (259) 
-13.6399

>  <r_i_glide_energy>  (259) 
-13.4661

>  <r_i_glide_einternal>  (259) 
5.20084

>  <r_i_glide_intrahb_reward>  (259) 
-0

>  <i_i_glide_confnum>  (259) 
4

>  <i_i_glide_posenum>  (259) 
27

>  <r_i_glide_eff_state_penalty>  (259) 
0

>  <ligand_id>  (259) 
89

>  <original_smiles>  (259) 
OCC1(C2CO2)C2C3CC4C3C3C2C2C4C2C31

>  <smiles>  (259) 
[H]OC([H])([H])C1(C2([H])OC2([H])[H])C2([H])C3([H])C([H])([H])C4([H])C3([H])C3([H])C2([H])C2([H])C4([H])C2([H])C31[H]

$$$$
89:0:1
     RDKit          3D

 35 41  0  0  1  0  0  0  0  0999 V2000
    4.9492   -0.2771    2.1715 O   0  0  0  0  0  0  0  0  0  0  0  0
    3.8763   -0.6602    1.3260 C   0  0  0  0  0  0  0  0  0  0  0  0
    4.2274   -1.9631    0.4726 C   0  0  1  0  0  0  0  0  0  0  0  0
    4.2474   -3.0464    1.6435 C   0  0  2  0  0  0  0  0  0  0  0  0
    5.0606   -4.3431    1.5759 C   0  0  0  0  0  0  0  0  0  0  0  0
    3.6331   -4.3367    1.3988 O   0  0  0  0  0  0  0  0  0  0  0  0
    3.0750   -2.1732   -0.7985 C   0  0  2  0  0  0  0  0  0  0  0  0
    3.0250   -1.3858   -2.2300 C   0  0  2  0  0  0  0  0  0  0  0  0
    3.1186   -2.1207   -3.6003 C   0  0  0  0  0  0  0  0  0  0  0  0
    4.6622   -1.8763   -3.6665 C   0  0  1  0  0  0  0  0  0  0  0  0
    4.4298   -0.8863   -2.5714 C   0  0  2  0  0  0  0  0  0  0  0  0
    4.9416   -1.1574   -1.2167 C   0  0  1  0  0  0  0  0  0  0  0  0
    4.2896   -2.7325   -1.1143 C   0  0  2  0  0  0  0  0  0  0  0  0
    4.9333   -3.5868   -2.1159 C   0  0  1  0  0  0  0  0  0  0  0  0
    5.6726   -2.9074   -3.1462 C   0  0  2  0  0  0  0  0  0  0  0  0
    6.1701   -2.9977   -1.6171 C   0  0  1  0  0  0  0  0  0  0  0  0
    5.7294   -1.9864   -0.4206 C   0  0  2  0  0  0  0  0  0  0  0  0
    4.6156    0.3495    2.8002 H   0  0  0  0  0  0  0  0  0  0  0  0
    2.9925   -0.8706    1.9333 H   0  0  0  0  0  0  0  0  0  0  0  0
    3.5751    0.2288    0.7724 H   0  0  0  0  0  0  0  0  0  0  0  0
    4.0924   -2.6738    2.6469 H   0  0  0  0  0  0  0  0  0  0  0  0
    5.5802   -4.5870    0.6497 H   0  0  0  0  0  0  0  0  0  0  0  0
    5.3855   -4.8267    2.4908 H   0  0  0  0  0  0  0  0  0  0  0  0
    2.2879   -2.9154   -0.6474 H   0  0  0  0  0  0  0  0  0  0  0  0
    2.3053   -0.5695   -2.3152 H   0  0  0  0  0  0  0  0  0  0  0  0
    2.7857   -3.1627   -3.5872 H   0  0  0  0  0  0  0  0  0  0  0  0
    2.5844   -1.5512   -4.3698 H   0  0  0  0  0  0  0  0  0  0  0  0
    4.9443   -1.3844   -4.5981 H   0  0  0  0  0  0  0  0  0  0  0  0
    4.4587    0.1520   -2.9083 H   0  0  0  0  0  0  0  0  0  0  0  0
    4.7499   -0.1864   -0.7374 H   0  0  0  0  0  0  0  0  0  0  0  0
    4.2751   -3.7004   -0.5459 H   0  0  0  0  0  0  0  0  0  0  0  0
    4.8286   -4.6759   -2.1219 H   0  0  0  0  0  0  0  0  0  0  0  0
    6.1818   -3.5341   -3.8847 H   0  0  0  0  0  0  0  0  0  0  0  0
    6.9924   -3.6796   -1.4013 H   0  0  0  0  0  0  0  0  0  0  0  0
    6.5785   -1.4465   -0.0018 H   0  0  0  0  0  0  0  0  0  0  0  0
  1  2  1  0
  1 18  1  0
  3  2  1  1
  2 19  1  0
  2 20  1  0
  3 17  1  0
  3  4  1  0
  3  7  1  0
  4  6  1  0
  4  5  1  0
  4 21  1  1
  5  6  1  0
  5 22  1  0
  5 23  1  0
  7 13  1  0
  7  8  1  0
  7 24  1  1
  8 11  1  0
  8  9  1  0
  8 25  1  6
  9 10  1  0
  9 26  1  0
  9 27  1  0
 10 15  1  0
 10 11  1  0
 10 28  1  6
 11 12  1  0
 11 29  1  6
 12 17  1  0
 12 13  1  0
 12 30  1  1
 13 14  1  0
 13 31  1  1
 14 16  1  0
 14 15  1  0
 14 32  1  6
 15 16  1  0
 15 33  1  6
 16 17  1  0
 16 34  1  6
 17 35  1  1
M  END
>  <i_m_ct_stereo_status>  (260) 
1

>  <s_m_source_file>  (260) 
/var/tmp/pbs.5076255.sched01/tmpua_2_py4/114lbcpx7pn.sdf

>  <i_m_source_file_index>  (260) 
6

>  <i_lp_mmshare_version>  (260) 
48012

>  <i_f3d_flags>  (260) 
0

>  <s_epik_input>  (260) 
TzFbQ0gyXVtDQEhdMVtDQEBdMihbQ0gyXVtPSF0pW0NAQEhdKFtDQEBIXTM0KVtDQEBIXTVbQ0BASF02W0NASF0zW0NASF00W0NAQEhdKFtDSDJdNylbQ0BIXTVbQ0BASF03W0NASF0yNg==

>  <s_epik_cmdline>  (260) 
J2VwaWtfcHl0aG9uJywgJy1waHQnLCAnMi4wJywgJy1waCcsICc3LjAnLCAnLXRuJywgJzgnLCAnLW1hJywgJzIwMCcsICctaW1hZScsICc8aW5maWxlLm1hZT4nLCAnLW9tYWUnLCAnPG91dGZpbGUubWFlPic=

>  <r_lp_tautomer_probability>  (260) 
1

>  <r_epik_Ionization_Penalty>  (260) 
3.66135e-07

>  <r_epik_Ionization_Penalty_Charging>  (260) 
0

>  <r_epik_Ionization_Penalty_Neutral>  (260) 
3.66135e-07

>  <r_epik_State_Penalty>  (260) 
-0

>  <r_epik_Charging_Adjusted_Penalty>  (260) 
0

>  <i_epik_Tot_Q>  (260) 
0

>  <i_epik_Tot_abs_Q>  (260) 
0

>  <s_lp_Force_Field>  (260) 
OPLS3e

>  <r_lp_Energy>  (260) 
371.871

>  <b_lp_Chiralities_Consistent>  (260) 
1

>  <s_lp_Variant>  (260) 
89:0-1

>  <s_i_glide_gridfile>  (260) 
pfpi4k_grid

>  <i_i_glide_lignum>  (260) 
6

>  <i_i_glide_rotatable_bonds>  (260) 
3

>  <r_i_docking_score>  (260) 
-2.8334

>  <r_i_glide_ligand_efficiency>  (260) 
-0.16667

>  <r_i_glide_ligand_efficiency_sa>  (260) 
-0.428556

>  <r_i_glide_ligand_efficiency_ln>  (260) 
-0.73917

>  <r_i_glide_gscore>  (260) 
-2.8334

>  <r_i_glide_lipo>  (260) 
-0.562323

>  <r_i_glide_hbond>  (260) 
-0.0651043

>  <r_i_glide_metal>  (260) 
-0

>  <r_i_glide_rewards>  (260) 
-1.83885

>  <r_i_glide_evdw>  (260) 
-16.8166

>  <r_i_glide_ecoul>  (260) 
-1.13626

>  <r_i_glide_erotb>  (260) 
0.644149

>  <r_i_glide_esite>  (260) 
0

>  <r_i_glide_emodel>  (260) 
-11.1809

>  <r_i_glide_energy>  (260) 
-17.9529

>  <r_i_glide_einternal>  (260) 
12.5751

>  <r_i_glide_intrahb_reward>  (260) 
-0

>  <i_i_glide_confnum>  (260) 
5

>  <i_i_glide_posenum>  (260) 
26

>  <r_i_glide_eff_state_penalty>  (260) 
0

>  <ligand_id>  (260) 
89

>  <original_smiles>  (260) 
OCC1(C2CO2)C2C3CC4C3C3C2C2C4C2C31

>  <smiles>  (260) 
[H]OC([H])([H])C1(C2([H])OC2([H])[H])C2([H])C3([H])C([H])([H])C4([H])C3([H])C3([H])C2([H])C2([H])C4([H])C2([H])C31[H]

$$$$
90:0:0
     RDKit          3D

 58 62  0  0  1  0  0  0  0  0999 V2000
    3.8245   -1.3318   -3.9328 C   0  0  0  0  0  0  0  0  0  0  0  0
    4.4166   -1.4250   -2.6526 O   0  0  0  0  0  0  0  0  0  0  0  0
    5.0844   -2.5264   -2.2915 C   0  0  0  0  0  0  0  0  0  0  0  0
    5.3878   -3.4475   -3.0523 O   0  0  0  0  0  0  0  0  0  0  0  0
    5.4888   -2.5105   -0.7995 C   0  0  2  0  0  0  0  0  0  0  0  0
    6.2242   -3.7723   -0.3399 C   0  0  0  0  0  0  0  0  0  0  0  0
    6.2507   -3.6370    1.1764 C   0  0  0  0  0  0  0  0  0  0  0  0
    4.9046   -2.9970    1.5385 C   0  0  1  0  0  0  0  0  0  0  0  0
    4.9947   -2.0683    2.7263 C   0  0  2  0  0  0  0  0  0  0  0  0
    4.5177   -2.1978    4.1720 C   0  0  1  0  0  0  0  0  0  0  0  0
    4.8812   -1.1914    5.2352 C   0  0  0  0  0  0  0  0  0  0  0  0
    3.6699   -0.5550    5.9049 C   0  0  0  0  0  0  0  0  0  0  0  0
    2.6042    0.1042    5.3765 C   0  0  0  0  0  0  0  0  0  0  0  0
    1.5554    0.6192    6.3632 C   0  0  0  0  0  0  0  0  0  0  0  0
    0.1710    0.0941    5.9919 C   0  0  0  0  0  0  0  0  0  0  0  0
   -0.5797   -0.4202    6.8204 O   0  0  0  0  0  0  0  0  0  0  0  0
   -0.2517    0.2981    4.5434 C   0  0  0  0  0  0  0  0  0  0  0  0
    0.8521   -0.1608    3.5714 C   0  0  0  0  0  0  0  0  0  0  0  0
    2.2795    0.3935    3.8786 C   0  0  1  0  0  0  0  0  0  0  0  0
    2.2771    1.9336    3.6752 C   0  0  0  0  0  0  0  0  0  0  0  0
    3.3232   -0.2146    2.8716 C   0  0  2  0  0  0  0  0  0  0  0  0
    3.0169   -0.1357    1.3518 C   0  0  0  0  0  0  0  0  0  0  0  0
    4.1266   -0.7034    0.4095 C   0  0  0  0  0  0  0  0  0  0  0  0
    4.3567   -2.2635    0.2579 C   0  0  1  0  0  0  0  0  0  0  0  0
    3.0382   -2.9621   -0.1646 C   0  0  0  0  0  0  0  0  0  0  0  0
    3.6109   -1.6582    3.1327 C   0  0  1  0  0  0  0  0  0  0  0  0
    3.2923   -0.3847   -4.0153 H   0  0  0  0  0  0  0  0  0  0  0  0
    3.1098   -2.1394   -4.0918 H   0  0  0  0  0  0  0  0  0  0  0  0
    4.5840   -1.3689   -4.7121 H   0  0  0  0  0  0  0  0  0  0  0  0
    6.2025   -1.6939   -0.6968 H   0  0  0  0  0  0  0  0  0  0  0  0
    5.6736   -4.6695   -0.6292 H   0  0  0  0  0  0  0  0  0  0  0  0
    7.2303   -3.8435   -0.7559 H   0  0  0  0  0  0  0  0  0  0  0  0
    6.4009   -4.5978    1.6719 H   0  0  0  0  0  0  0  0  0  0  0  0
    7.0760   -2.9885    1.4646 H   0  0  0  0  0  0  0  0  0  0  0  0
    4.2303   -3.8176    1.7977 H   0  0  0  0  0  0  0  0  0  0  0  0
    5.7511   -1.2943    2.5954 H   0  0  0  0  0  0  0  0  0  0  0  0
    4.3005   -3.2012    4.5339 H   0  0  0  0  0  0  0  0  0  0  0  0
    5.4716   -1.7028    5.9966 H   0  0  0  0  0  0  0  0  0  0  0  0
    5.5173   -0.4085    4.8198 H   0  0  0  0  0  0  0  0  0  0  0  0
    3.7087   -0.6438    6.9788 H   0  0  0  0  0  0  0  0  0  0  0  0
    1.7946    0.3056    7.3781 H   0  0  0  0  0  0  0  0  0  0  0  0
    1.5408    1.7072    6.3707 H   0  0  0  0  0  0  0  0  0  0  0  0
   -1.1763   -0.2445    4.3541 H   0  0  0  0  0  0  0  0  0  0  0  0
   -0.4732    1.3543    4.3999 H   0  0  0  0  0  0  0  0  0  0  0  0
    0.8736   -1.2504    3.5852 H   0  0  0  0  0  0  0  0  0  0  0  0
    0.5419    0.1218    2.5636 H   0  0  0  0  0  0  0  0  0  0  0  0
    2.0147    2.2202    2.6573 H   0  0  0  0  0  0  0  0  0  0  0  0
    3.2559    2.3609    3.8966 H   0  0  0  0  0  0  0  0  0  0  0  0
    1.5602    2.4396    4.3205 H   0  0  0  0  0  0  0  0  0  0  0  0
    4.2454    0.3510    3.0194 H   0  0  0  0  0  0  0  0  0  0  0  0
    2.0715   -0.6179    1.1178 H   0  0  0  0  0  0  0  0  0  0  0  0
    2.8756    0.9112    1.0845 H   0  0  0  0  0  0  0  0  0  0  0  0
    3.8492   -0.3235   -0.5667 H   0  0  0  0  0  0  0  0  0  0  0  0
    5.0702   -0.2023    0.6279 H   0  0  0  0  0  0  0  0  0  0  0  0
    2.2933   -2.9245    0.6287 H   0  0  0  0  0  0  0  0  0  0  0  0
    3.1969   -4.0117   -0.4171 H   0  0  0  0  0  0  0  0  0  0  0  0
    2.5962   -2.4826   -1.0365 H   0  0  0  0  0  0  0  0  0  0  0  0
    2.7830   -2.3225    2.8889 H   0  0  0  0  0  0  0  0  0  0  0  0
  1  2  1  0
  1 27  1  0
  1 28  1  0
  1 29  1  0
  2  3  1  0
  3  4  2  0
  3  5  1  0
  5 24  1  0
  5  6  1  0
  5 30  1  6
  6  7  1  0
  6 31  1  0
  6 32  1  0
  7  8  1  0
  7 33  1  0
  7 34  1  0
  8 24  1  0
  8  9  1  0
  8 35  1  1
  9 26  1  0
  9 10  1  0
  9 36  1  1
 10 26  1  0
 10 11  1  0
 10 37  1  1
 11 12  1  0
 11 38  1  0
 11 39  1  0
 12 13  2  0
 12 40  1  0
 13 19  1  0
 13 14  1  0
 14 15  1  0
 14 41  1  0
 14 42  1  0
 15 16  2  0
 15 17  1  0
 17 18  1  0
 17 43  1  0
 17 44  1  0
 18 19  1  0
 18 45  1  0
 18 46  1  0
 19 20  1  1
 19 21  1  0
 20 47  1  0
 20 48  1  0
 20 49  1  0
 21 22  1  0
 21 26  1  0
 21 50  1  6
 22 23  1  0
 22 51  1  0
 22 52  1  0
 23 24  1  0
 23 53  1  0
 23 54  1  0
 24 25  1  6
 25 55  1  0
 25 56  1  0
 25 57  1  0
 26 58  1  6
M  END
>  <i_m_ct_stereo_status>  (261) 
1

>  <s_m_source_file>  (261) 
/var/tmp/pbs.5076255.sched01/tmpua_2_py4/114lbcpx7pn.sdf

>  <i_m_source_file_index>  (261) 
7

>  <i_lp_mmshare_version>  (261) 
48012

>  <i_f3d_flags>  (261) 
0

>  <s_epik_input>  (261) 
W0NIM11PQyg9TylbQ0BIXShbQ0gyXVtDSDJdMSlbQ0BdKFtDSDNdKShbQ0gyXVtDSDJdW0NAQEhdMltDQEBIXTM0KVtDQEBIXTFbQ0BASF0zW0NASF00W0NIMl1bQ0hdPUMoW0NAQF0yNVtDSDNdKVtDSDJdQyg9TylbQ0gyXVtDSDJdNQ==

>  <s_epik_cmdline>  (261) 
J2VwaWtfcHl0aG9uJywgJy1waHQnLCAnMi4wJywgJy1waCcsICc3LjAnLCAnLXRuJywgJzgnLCAnLW1hJywgJzIwMCcsICctaW1hZScsICc8aW5maWxlLm1hZT4nLCAnLW9tYWUnLCAnPG91dGZpbGUubWFlPic=

>  <r_lp_tautomer_probability>  (261) 
1

>  <r_epik_Ionization_Penalty>  (261) 
2.03126e-13

>  <r_epik_Ionization_Penalty_Charging>  (261) 
0

>  <r_epik_Ionization_Penalty_Neutral>  (261) 
2.03126e-13

>  <r_epik_State_Penalty>  (261) 
-0

>  <r_epik_Charging_Adjusted_Penalty>  (261) 
0

>  <i_epik_Tot_Q>  (261) 
0

>  <i_epik_Tot_abs_Q>  (261) 
0

>  <s_epik_Chemistry_Notes>  (261) 
This compound has an ester and may undergo hydrolysis at high or low pH.

>  <s_lp_Force_Field>  (261) 
OPLS3e

>  <r_lp_Energy>  (261) 
57.1618

>  <b_lp_Chiralities_Consistent>  (261) 
1

>  <s_lp_Variant>  (261) 
90:0-1

>  <s_i_glide_gridfile>  (261) 
pfpi4k_grid

>  <i_i_glide_lignum>  (261) 
7

>  <i_i_glide_rotatable_bonds>  (261) 
2

>  <r_i_docking_score>  (261) 
-3.25269

>  <r_i_glide_ligand_efficiency>  (261) 
-0.125104

>  <r_i_glide_ligand_efficiency_sa>  (261) 
-0.370619

>  <r_i_glide_ligand_efficiency_ln>  (261) 
-0.763885

>  <r_i_glide_gscore>  (261) 
-3.25269

>  <r_i_glide_lipo>  (261) 
-0.459394

>  <r_i_glide_hbond>  (261) 
-0.0369741

>  <r_i_glide_metal>  (261) 
-0

>  <r_i_glide_rewards>  (261) 
-1.12656

>  <r_i_glide_evdw>  (261) 
-29.8898

>  <r_i_glide_ecoul>  (261) 
-1.81159

>  <r_i_glide_erotb>  (261) 
0.150546

>  <r_i_glide_esite>  (261) 
-0.0140863

>  <r_i_glide_emodel>  (261) 
-38

>  <r_i_glide_energy>  (261) 
-31.7014

>  <r_i_glide_einternal>  (261) 
0.451375

>  <r_i_glide_intrahb_reward>  (261) 
-0

>  <i_i_glide_confnum>  (261) 
1

>  <i_i_glide_posenum>  (261) 
2

>  <r_i_glide_eff_state_penalty>  (261) 
0

>  <ligand_id>  (261) 
90

>  <original_smiles>  (261) 
COC(=O)C1CCC2C3C4CC=C5CC(=O)CCC5(C)C(CCC12C)C43

>  <smiles>  (261) 
[H]C1=C2C([H])([H])C(=O)C([H])([H])C([H])([H])C2(C([H])([H])[H])C2([H])C([H])([H])C([H])([H])C3(C([H])([H])[H])C([H])(C(=O)OC([H])([H])[H])C([H])([H])C([H])([H])C3([H])C3([H])C([H])(C1([H])[H])C32[H]

$$$$
90:0:1
     RDKit          3D

 58 62  0  0  1  0  0  0  0  0999 V2000
    1.7602  -10.6402    3.3757 C   0  0  0  0  0  0  0  0  0  0  0  0
    0.4702  -10.5609    2.8183 O   0  0  0  0  0  0  0  0  0  0  0  0
   -0.3259   -9.4471    2.8992 C   0  0  0  0  0  0  0  0  0  0  0  0
   -1.4849   -9.4168    2.4834 O   0  0  0  0  0  0  0  0  0  0  0  0
    0.2905   -8.2035    3.5732 C   0  0  2  0  0  0  0  0  0  0  0  0
   -0.7185   -7.4199    4.4273 C   0  0  0  0  0  0  0  0  0  0  0  0
    0.0817   -6.1696    4.7820 C   0  0  0  0  0  0  0  0  0  0  0  0
    0.8602   -5.8283    3.4980 C   0  0  1  0  0  0  0  0  0  0  0  0
    2.2428   -5.2381    3.7748 C   0  0  2  0  0  0  0  0  0  0  0  0
    2.7440   -3.8177    3.6132 C   0  0  1  0  0  0  0  0  0  0  0  0
    4.1189   -3.4048    4.1147 C   0  0  0  0  0  0  0  0  0  0  0  0
    5.0164   -2.8371    3.0312 C   0  0  0  0  0  0  0  0  0  0  0  0
    5.4094   -3.3613    1.8381 C   0  0  0  0  0  0  0  0  0  0  0  0
    6.3389   -2.5098    0.9804 C   0  0  0  0  0  0  0  0  0  0  0  0
    5.7737   -2.3096   -0.4163 C   0  0  0  0  0  0  0  0  0  0  0  0
    5.7196   -1.2046   -0.9466 O   0  0  0  0  0  0  0  0  0  0  0  0
    5.3066   -3.5715   -1.1345 C   0  0  0  0  0  0  0  0  0  0  0  0
    4.4362   -4.4575   -0.2173 C   0  0  0  0  0  0  0  0  0  0  0  0
    5.0263   -4.7337    1.1948 C   0  0  1  0  0  0  0  0  0  0  0  0
    6.3202   -5.5786    1.0466 C   0  0  0  0  0  0  0  0  0  0  0  0
    4.0120   -5.5562    2.0467 C   0  0  2  0  0  0  0  0  0  0  0  0
    3.4092   -6.8365    1.3995 C   0  0  0  0  0  0  0  0  0  0  0  0
    2.4207   -7.6763    2.2847 C   0  0  0  0  0  0  0  0  0  0  0  0
    0.9771   -7.1514    2.6375 C   0  0  1  0  0  0  0  0  0  0  0  0
    0.2066   -6.9605    1.3026 C   0  0  0  0  0  0  0  0  0  0  0  0
    2.8144   -4.7576    2.4804 C   0  0  1  0  0  0  0  0  0  0  0  0
    2.1401  -11.6695    3.2340 H   0  0  0  0  0  0  0  0  0  0  0  0
    1.6590  -10.5362    4.4656 H   0  0  0  0  0  0  0  0  0  0  0  0
    2.4331   -9.9859    2.9140 H   0  0  0  0  0  0  0  0  0  0  0  0
    1.0482   -8.5541    4.2844 H   0  0  0  0  0  0  0  0  0  0  0  0
   -1.6490   -7.1701    3.9091 H   0  0  0  0  0  0  0  0  0  0  0  0
   -0.9780   -8.0034    5.3098 H   0  0  0  0  0  0  0  0  0  0  0  0
   -0.5538   -5.3496    5.1143 H   0  0  0  0  0  0  0  0  0  0  0  0
    0.7651   -6.4052    5.6046 H   0  0  0  0  0  0  0  0  0  0  0  0
    0.2721   -5.0995    2.9482 H   0  0  0  0  0  0  0  0  0  0  0  0
    2.8366   -5.8666    4.4340 H   0  0  0  0  0  0  0  0  0  0  0  0
    2.0234   -3.0198    3.5301 H   0  0  0  0  0  0  0  0  0  0  0  0
    3.9680   -2.6535    4.8760 H   0  0  0  0  0  0  0  0  0  0  0  0
    4.6139   -4.2547    4.5936 H   0  0  0  0  0  0  0  0  0  0  0  0
    5.4021   -1.8628    3.2910 H   0  0  0  0  0  0  0  0  0  0  0  0
    6.5054   -1.5300    1.4460 H   0  0  0  0  0  0  0  0  0  0  0  0
    7.3202   -2.9744    0.8945 H   0  0  0  0  0  0  0  0  0  0  0  0
    4.7588   -3.3067   -2.0410 H   0  0  0  0  0  0  0  0  0  0  0  0
    6.1942   -4.1073   -1.4511 H   0  0  0  0  0  0  0  0  0  0  0  0
    3.4594   -3.9737   -0.1325 H   0  0  0  0  0  0  0  0  0  0  0  0
    4.2685   -5.4010   -0.7423 H   0  0  0  0  0  0  0  0  0  0  0  0
    6.1219   -6.5332    0.5675 H   0  0  0  0  0  0  0  0  0  0  0  0
    6.7646   -5.7813    2.0227 H   0  0  0  0  0  0  0  0  0  0  0  0
    7.0813   -5.0864    0.4450 H   0  0  0  0  0  0  0  0  0  0  0  0
    4.5618   -5.8784    2.9420 H   0  0  0  0  0  0  0  0  0  0  0  0
    2.9215   -6.5791    0.4558 H   0  0  0  0  0  0  0  0  0  0  0  0
    4.2382   -7.4890    1.1522 H   0  0  0  0  0  0  0  0  0  0  0  0
    2.2618   -8.6121    1.8007 H   0  0  0  0  0  0  0  0  0  0  0  0
    2.9661   -7.9092    3.1843 H   0  0  0  0  0  0  0  0  0  0  0  0
    0.6280   -6.1354    0.7188 H   0  0  0  0  0  0  0  0  0  0  0  0
   -0.8503   -6.7697    1.4847 H   0  0  0  0  0  0  0  0  0  0  0  0
    0.2858   -7.8509    0.6972 H   0  0  0  0  0  0  0  0  0  0  0  0
    2.1482   -4.5152    1.6591 H   0  0  0  0  0  0  0  0  0  0  0  0
  1  2  1  0
  1 27  1  0
  1 28  1  0
  1 29  1  0
  2  3  1  0
  3  4  2  0
  3  5  1  0
  5 24  1  0
  5  6  1  0
  5 30  1  1
  6  7  1  0
  6 31  1  0
  6 32  1  0
  7  8  1  0
  7 33  1  0
  7 34  1  0
  8 24  1  0
  8  9  1  0
  8 35  1  6
  9 26  1  0
  9 10  1  0
  9 36  1  1
 10 26  1  0
 10 11  1  0
 10 37  1  6
 11 12  1  0
 11 38  1  0
 11 39  1  0
 12 13  2  0
 12 40  1  0
 13 19  1  0
 13 14  1  0
 14 15  1  0
 14 41  1  0
 14 42  1  0
 15 16  2  0
 15 17  1  0
 17 18  1  0
 17 43  1  0
 17 44  1  0
 18 19  1  0
 18 45  1  0
 18 46  1  0
 19 20  1  6
 19 21  1  0
 20 47  1  0
 20 48  1  0
 20 49  1  0
 21 22  1  0
 21 26  1  0
 21 50  1  1
 22 23  1  0
 22 51  1  0
 22 52  1  0
 23 24  1  0
 23 53  1  0
 23 54  1  0
 24 25  1  6
 25 55  1  0
 25 56  1  0
 25 57  1  0
 26 58  1  6
M  END
>  <i_m_ct_stereo_status>  (262) 
1

>  <s_m_source_file>  (262) 
/var/tmp/pbs.5076255.sched01/tmpua_2_py4/114lbcpx7pn.sdf

>  <i_m_source_file_index>  (262) 
7

>  <i_lp_mmshare_version>  (262) 
48012

>  <i_f3d_flags>  (262) 
0

>  <s_epik_input>  (262) 
W0NIM11PQyg9TylbQ0BIXShbQ0gyXVtDSDJdMSlbQ0BdKFtDSDNdKShbQ0gyXVtDSDJdW0NAQEhdMltDQEBIXTM0KVtDQEBIXTFbQ0BASF0zW0NASF00W0NIMl1bQ0hdPUMoW0NAQF0yNVtDSDNdKVtDSDJdQyg9TylbQ0gyXVtDSDJdNQ==

>  <s_epik_cmdline>  (262) 
J2VwaWtfcHl0aG9uJywgJy1waHQnLCAnMi4wJywgJy1waCcsICc3LjAnLCAnLXRuJywgJzgnLCAnLW1hJywgJzIwMCcsICctaW1hZScsICc8aW5maWxlLm1hZT4nLCAnLW9tYWUnLCAnPG91dGZpbGUubWFlPic=

>  <r_lp_tautomer_probability>  (262) 
1

>  <r_epik_Ionization_Penalty>  (262) 
2.03126e-13

>  <r_epik_Ionization_Penalty_Charging>  (262) 
0

>  <r_epik_Ionization_Penalty_Neutral>  (262) 
2.03126e-13

>  <r_epik_State_Penalty>  (262) 
-0

>  <r_epik_Charging_Adjusted_Penalty>  (262) 
0

>  <i_epik_Tot_Q>  (262) 
0

>  <i_epik_Tot_abs_Q>  (262) 
0

>  <s_epik_Chemistry_Notes>  (262) 
This compound has an ester and may undergo hydrolysis at high or low pH.

>  <s_lp_Force_Field>  (262) 
OPLS3e

>  <r_lp_Energy>  (262) 
57.1618

>  <b_lp_Chiralities_Consistent>  (262) 
1

>  <s_lp_Variant>  (262) 
90:0-1

>  <s_i_glide_gridfile>  (262) 
pfpi4k_grid

>  <i_i_glide_lignum>  (262) 
7

>  <i_i_glide_rotatable_bonds>  (262) 
2

>  <r_i_docking_score>  (262) 
-3.19513

>  <r_i_glide_ligand_efficiency>  (262) 
-0.12289

>  <r_i_glide_ligand_efficiency_sa>  (262) 
-0.36406

>  <r_i_glide_ligand_efficiency_ln>  (262) 
-0.750366

>  <r_i_glide_gscore>  (262) 
-3.19513

>  <r_i_glide_lipo>  (262) 
-0.562122

>  <r_i_glide_hbond>  (262) 
-0.0392087

>  <r_i_glide_metal>  (262) 
-0

>  <r_i_glide_rewards>  (262) 
-0.97842

>  <r_i_glide_evdw>  (262) 
-31.9739

>  <r_i_glide_ecoul>  (262) 
-0.884368

>  <r_i_glide_erotb>  (262) 
0.150546

>  <r_i_glide_esite>  (262) 
-0.0345752

>  <r_i_glide_emodel>  (262) 
-35.114

>  <r_i_glide_energy>  (262) 
-32.8583

>  <r_i_glide_einternal>  (262) 
5.95612

>  <r_i_glide_intrahb_reward>  (262) 
-0

>  <i_i_glide_confnum>  (262) 
3

>  <i_i_glide_posenum>  (262) 
14

>  <r_i_glide_eff_state_penalty>  (262) 
0

>  <ligand_id>  (262) 
90

>  <original_smiles>  (262) 
COC(=O)C1CCC2C3C4CC=C5CC(=O)CCC5(C)C(CCC12C)C43

>  <smiles>  (262) 
[H]C1=C2C([H])([H])C(=O)C([H])([H])C([H])([H])C2(C([H])([H])[H])C2([H])C([H])([H])C([H])([H])C3(C([H])([H])[H])C([H])(C(=O)OC([H])([H])[H])C([H])([H])C([H])([H])C3([H])C3([H])C([H])(C1([H])[H])C32[H]

$$$$
91:0:0
     RDKit          3D

 53 61  0  0  1  0  0  0  0  0999 V2000
    4.7481   -1.5548    5.3430 C   0  0  0  0  0  0  0  0  0  0  0  0
    5.1002   -2.7341    4.5526 N   0  0  0  0  0  0  0  0  0  0  0  0
    4.6021   -3.9285    5.2186 C   0  0  0  0  0  0  0  0  0  0  0  0
    4.7360   -5.0745    4.2122 C   0  0  0  0  0  0  0  0  0  0  0  0
    4.7277   -4.4433    2.8095 C   0  0  2  0  0  0  0  0  0  0  0  0
    5.9768   -4.8630    1.9756 C   0  0  1  0  0  0  0  0  0  0  0  0
    6.1070   -5.3875    0.4300 C   0  0  2  0  0  0  0  0  0  0  0  0
    7.1664   -4.2719    0.3735 C   0  0  1  0  0  0  0  0  0  0  0  0
    7.6766   -3.2521   -0.6336 C   0  0  0  0  0  0  0  0  0  0  0  0
    6.5959   -2.4073   -1.3129 C   0  0  1  0  0  0  0  0  0  0  0  0
    5.9454   -3.4150   -2.2854 C   0  0  0  0  0  0  0  0  0  0  0  0
    4.7668   -4.0377   -1.5423 C   0  0  2  0  0  0  0  0  0  0  0  0
    4.3669   -2.8058   -0.7247 C   0  0  2  0  0  0  0  0  0  0  0  0
    5.3987   -1.7124   -0.5109 C   0  0  1  0  0  0  0  0  0  0  0  0
    5.4273   -1.0301    0.9871 C   0  0  0  0  0  0  0  0  0  0  0  0
    5.0774   -1.4030    2.3175 C   0  0  0  0  0  0  0  0  0  0  0  0
    4.6009   -2.7682    3.1721 C   0  0  2  0  0  0  0  0  0  0  0  0
    4.4457   -3.4274    0.5433 C   0  0  2  0  0  0  0  0  0  0  0  0
    6.0264   -3.6854    1.1452 C   0  0  1  0  0  0  0  0  0  0  0  0
    3.7817   -4.7203    0.4971 C   0  0  2  0  0  0  0  0  0  0  0  0
    2.2751   -4.8518    0.3995 C   0  0  0  0  0  0  0  0  0  0  0  0
    2.2750   -4.8036    1.9418 C   0  0  0  0  0  0  0  0  0  0  0  0
    3.7016   -5.1377    1.9118 N   0  0  2  0  0  0  0  0  0  0  0  0
    4.8215   -5.2584   -0.4791 C   0  0  2  0  0  0  0  0  0  0  0  0
    5.0479   -1.7012    6.3823 H   0  0  0  0  0  0  0  0  0  0  0  0
    3.6733   -1.3607    5.3328 H   0  0  0  0  0  0  0  0  0  0  0  0
    5.2655   -0.6581    5.0057 H   0  0  0  0  0  0  0  0  0  0  0  0
    5.1632   -4.1219    6.1369 H   0  0  0  0  0  0  0  0  0  0  0  0
    3.5511   -3.7932    5.4868 H   0  0  0  0  0  0  0  0  0  0  0  0
    5.6702   -5.6013    4.4026 H   0  0  0  0  0  0  0  0  0  0  0  0
    3.9310   -5.7921    4.3641 H   0  0  0  0  0  0  0  0  0  0  0  0
    6.8722   -5.0381    2.5817 H   0  0  0  0  0  0  0  0  0  0  0  0
    6.5725   -6.3687    0.3926 H   0  0  0  0  0  0  0  0  0  0  0  0
    8.0310   -4.5984    0.9623 H   0  0  0  0  0  0  0  0  0  0  0  0
    8.3336   -2.5601   -0.1090 H   0  0  0  0  0  0  0  0  0  0  0  0
    8.3278   -3.7232   -1.3709 H   0  0  0  0  0  0  0  0  0  0  0  0
    7.0795   -1.6772   -1.9344 H   0  0  0  0  0  0  0  0  0  0  0  0
    5.5515   -2.8562   -3.1376 H   0  0  0  0  0  0  0  0  0  0  0  0
    6.6197   -4.1385   -2.7260 H   0  0  0  0  0  0  0  0  0  0  0  0
    3.9813   -4.2482   -2.2677 H   0  0  0  0  0  0  0  0  0  0  0  0
    3.3663   -2.4293   -0.9601 H   0  0  0  0  0  0  0  0  0  0  0  0
    5.0627   -0.8920   -1.1451 H   0  0  0  0  0  0  0  0  0  0  0  0
    5.7249    0.0059    0.8986 H   0  0  0  0  0  0  0  0  0  0  0  0
    5.1883   -0.5556    2.9713 H   0  0  0  0  0  0  0  0  0  0  0  0
    3.5353   -2.5847    3.2966 H   0  0  0  0  0  0  0  0  0  0  0  0
    3.7149   -2.8107    1.0578 H   0  0  0  0  0  0  0  0  0  0  0  0
    6.6109   -2.9595    1.6907 H   0  0  0  0  0  0  0  0  0  0  0  0
    1.8147   -3.9954   -0.0934 H   0  0  0  0  0  0  0  0  0  0  0  0
    1.9707   -5.8072   -0.0303 H   0  0  0  0  0  0  0  0  0  0  0  0
    2.0319   -3.8187    2.3376 H   0  0  0  0  0  0  0  0  0  0  0  0
    1.6545   -5.5858    2.3798 H   0  0  0  0  0  0  0  0  0  0  0  0
    4.5687   -6.2170   -0.9232 H   0  0  0  0  0  0  0  0  0  0  0  0
    3.8223   -6.1372    1.9575 H   0  0  0  0  0  0  0  0  0  0  0  0
  1  2  1  0
  1 25  1  0
  1 26  1  0
  1 27  1  0
  2 17  1  0
  2  3  1  0
  3  4  1  0
  3 28  1  0
  3 29  1  0
  5  4  1  1
  4 30  1  0
  4 31  1  0
  5 17  1  0
  5 23  1  0
  5  6  1  0
  6 19  1  0
  6  7  1  0
  6 32  1  1
  7 24  1  0
  7  8  1  0
  7 33  1  1
  8 19  1  0
  8  9  1  0
  8 34  1  1
  9 10  1  0
  9 35  1  0
  9 36  1  0
 10 14  1  0
 10 11  1  0
 10 37  1  6
 11 12  1  0
 11 38  1  0
 11 39  1  0
 12 24  1  0
 12 13  1  0
 12 40  1  6
 13 14  1  0
 13 18  1  0
 13 41  1  6
 14 15  1  0
 14 42  1  6
 15 16  2  3
 15 43  1  0
 16 17  1  0
 16 44  1  0
 17 45  1  1
 18 19  1  0
 18 20  1  0
 18 46  1  1
 19 47  1  1
 20 23  1  0
 20 21  1  6
 20 24  1  0
 21 22  1  0
 21 48  1  0
 21 49  1  0
 22 23  1  0
 22 50  1  0
 22 51  1  0
 23 53  1  6
 24 52  1  6
M  CHG  1  23   1
M  END
>  <i_m_ct_stereo_status>  (263) 
1

>  <s_m_source_file>  (263) 
/var/tmp/pbs.5076255.sched01/tmpua_2_py4/114lbcpx7pn.sdf

>  <i_m_source_file_index>  (263) 
8

>  <i_lp_mmshare_version>  (263) 
48012

>  <i_f3d_flags>  (263) 
0

>  <s_epik_input>  (263) 
W0NIMl0xW0NIMl1OKFtDSDNdKVtDQEhdMlxbQ0hdPVtDSF1cW0NAQEhdKFtDQEBIXShbQ0gyXTMpW0NIMl00KVtDQEhdNVtDQEBIXTRbQ0BASF02W0NAQF03KE44W0NIMl1bQ0gyXTcpW0NASF01W0NAQEhdOVtDQEhdM1tDQEhdNltDQEBIXTlbQ0BAXTEyOA==

>  <s_epik_cmdline>  (263) 
J2VwaWtfcHl0aG9uJywgJy1waHQnLCAnMi4wJywgJy1waCcsICc3LjAnLCAnLXRuJywgJzgnLCAnLW1hJywgJzIwMCcsICctaW1hZScsICc8aW5maWxlLm1hZT4nLCAnLW9tYWUnLCAnPG91dGZpbGUubWFlPic=

>  <r_epik_Ionization_Penalty>  (263) 
0.0258336

>  <r_epik_Ionization_Penalty_Charging>  (263) 
0.000107525

>  <r_epik_Ionization_Penalty_Neutral>  (263) 
0.0257261

>  <r_epik_State_Penalty>  (263) 
0.0566667

>  <r_epik_Charging_Adjusted_Penalty>  (263) 
0.0567742

>  <i_epik_Tot_Q>  (263) 
1

>  <i_epik_Tot_abs_Q>  (263) 
1

>  <s_lp_Force_Field>  (263) 
OPLS3e

>  <r_lp_Energy>  (263) 
321.981

>  <b_lp_Chiralities_Consistent>  (263) 
1

>  <s_lp_Variant>  (263) 
91:0-1

>  <s_i_glide_gridfile>  (263) 
pfpi4k_grid

>  <i_i_glide_lignum>  (263) 
8

>  <i_i_glide_rotatable_bonds>  (263) 
0

>  <r_i_docking_score>  (263) 
-3.43984

>  <r_i_glide_ligand_efficiency>  (263) 
-0.143327

>  <r_i_glide_ligand_efficiency_sa>  (263) 
-0.413426

>  <r_i_glide_ligand_efficiency_ln>  (263) 
-0.823312

>  <r_i_glide_gscore>  (263) 
-3.43984

>  <r_i_glide_lipo>  (263) 
-1.133

>  <r_i_glide_hbond>  (263) 
0

>  <r_i_glide_metal>  (263) 
-0

>  <r_i_glide_rewards>  (263) 
-1.21719

>  <r_i_glide_evdw>  (263) 
-15.6826

>  <r_i_glide_ecoul>  (263) 
-2.03681

>  <r_i_glide_erotb>  (263) 
0

>  <r_i_glide_esite>  (263) 
0

>  <r_i_glide_emodel>  (263) 
-21.2392

>  <r_i_glide_energy>  (263) 
-17.7194

>  <r_i_glide_einternal>  (263) 
0

>  <r_i_glide_intrahb_reward>  (263) 
-0

>  <i_i_glide_confnum>  (263) 
1

>  <i_i_glide_posenum>  (263) 
5

>  <r_i_glide_eff_state_penalty>  (263) 
0

>  <ligand_id>  (263) 
91

>  <original_smiles>  (263) 
CN1CCC23C4C5C6CC7CC8C(C7C=CC12)C(C64)C1(CCN13)C85

>  <smiles>  (263) 
[H]C1=C([H])C2([H])C3([H])C([H])([H])C4([H])C5([H])C6([H])C4([H])C4([H])C2([H])C([H])(C3([H])[H])C5([H])C42C([H])([H])C([H])([H])[N+]2([H])C62C1([H])N(C([H])([H])[H])C([H])([H])C2([H])[H]

$$$$
91:0:1
     RDKit          3D

 53 61  0  0  1  0  0  0  0  0999 V2000
    2.5594   -2.6735   -3.6675 C   0  0  0  0  0  0  0  0  0  0  0  0
    3.7105   -2.6445   -2.7667 N   0  0  0  0  0  0  0  0  0  0  0  0
    4.4813   -1.4386   -3.0305 C   0  0  0  0  0  0  0  0  0  0  0  0
    5.4787   -1.3135   -1.8794 C   0  0  0  0  0  0  0  0  0  0  0  0
    4.8733   -2.0434   -0.6733 C   0  0  2  0  0  0  0  0  0  0  0  0
    5.8509   -3.1226   -0.1031 C   0  0  1  0  0  0  0  0  0  0  0  0
    6.2911   -3.4567    1.4454 C   0  0  2  0  0  0  0  0  0  0  0  0
    5.8854   -4.8809    1.0042 C   0  0  1  0  0  0  0  0  0  0  0  0
    5.2352   -6.1116    1.6229 C   0  0  0  0  0  0  0  0  0  0  0  0
    3.9155   -5.8700    2.3608 C   0  0  1  0  0  0  0  0  0  0  0  0
    4.4117   -5.1455    3.6472 C   0  0  0  0  0  0  0  0  0  0  0  0
    4.3432   -3.6416    3.3654 C   0  0  2  0  0  0  0  0  0  0  0  0
    3.1252   -3.6563    2.4383 C   0  0  2  0  0  0  0  0  0  0  0  0
    2.7442   -4.9594    1.7555 C   0  0  1  0  0  0  0  0  0  0  0  0
    2.2507   -4.8283    0.1884 C   0  0  0  0  0  0  0  0  0  0  0  0
    2.4353   -3.9235   -0.9014 C   0  0  0  0  0  0  0  0  0  0  0  0
    3.3954   -2.6260   -1.3290 C   0  0  2  0  0  0  0  0  0  0  0  0
    3.7551   -3.0187    1.3379 C   0  0  2  0  0  0  0  0  0  0  0  0
    4.8280   -3.9921    0.4282 C   0  0  1  0  0  0  0  0  0  0  0  0
    4.5019   -1.8591    1.8029 C   0  0  2  0  0  0  0  0  0  0  0  0
    3.8211   -0.5939    2.2932 C   0  0  0  0  0  0  0  0  0  0  0  0
    3.8502   -0.1288    0.8281 C   0  0  0  0  0  0  0  0  0  0  0  0
    4.8801   -1.1440    0.5635 N   0  0  2  0  0  0  0  0  0  0  0  0
    5.4552   -2.7548    2.5906 C   0  0  2  0  0  0  0  0  0  0  0  0
    2.8839   -2.5147   -4.6975 H   0  0  0  0  0  0  0  0  0  0  0  0
    1.8383   -1.8933   -3.4222 H   0  0  0  0  0  0  0  0  0  0  0  0
    2.0433   -3.6317   -3.6564 H   0  0  0  0  0  0  0  0  0  0  0  0
    4.9803   -1.5053   -3.9983 H   0  0  0  0  0  0  0  0  0  0  0  0
    3.8268   -0.5633   -3.0555 H   0  0  0  0  0  0  0  0  0  0  0  0
    6.4136   -1.7860   -2.1768 H   0  0  0  0  0  0  0  0  0  0  0  0
    5.6699   -0.2601   -1.6827 H   0  0  0  0  0  0  0  0  0  0  0  0
    6.4851   -3.5792   -0.8686 H   0  0  0  0  0  0  0  0  0  0  0  0
    7.3707   -3.3890    1.5889 H   0  0  0  0  0  0  0  0  0  0  0  0
    6.6405   -5.2534    0.3052 H   0  0  0  0  0  0  0  0  0  0  0  0
    5.0156   -6.8171    0.8218 H   0  0  0  0  0  0  0  0  0  0  0  0
    5.9457   -6.6454    2.2562 H   0  0  0  0  0  0  0  0  0  0  0  0
    3.5034   -6.8435    2.6290 H   0  0  0  0  0  0  0  0  0  0  0  0
    3.6988   -5.3647    4.4467 H   0  0  0  0  0  0  0  0  0  0  0  0
    5.3886   -5.4624    4.0265 H   0  0  0  0  0  0  0  0  0  0  0  0
    4.0821   -3.1182    4.2884 H   0  0  0  0  0  0  0  0  0  0  0  0
    2.2723   -3.0901    2.8260 H   0  0  0  0  0  0  0  0  0  0  0  0
    1.8403   -5.2799    2.2745 H   0  0  0  0  0  0  0  0  0  0  0  0
    1.5403   -5.6145   -0.0311 H   0  0  0  0  0  0  0  0  0  0  0  0
    1.8146   -4.2248   -1.7258 H   0  0  0  0  0  0  0  0  0  0  0  0
    2.6953   -1.7959   -1.2395 H   0  0  0  0  0  0  0  0  0  0  0  0
    2.8752   -2.5452    0.9101 H   0  0  0  0  0  0  0  0  0  0  0  0
    4.5327   -4.6468   -0.3854 H   0  0  0  0  0  0  0  0  0  0  0  0
    2.8224   -0.7623    2.6904 H   0  0  0  0  0  0  0  0  0  0  0  0
    4.4568   -0.0129    2.9622 H   0  0  0  0  0  0  0  0  0  0  0  0
    2.9053   -0.2909    0.3077 H   0  0  0  0  0  0  0  0  0  0  0  0
    4.2182    0.8931    0.7185 H   0  0  0  0  0  0  0  0  0  0  0  0
    6.0853   -2.1884    3.2737 H   0  0  0  0  0  0  0  0  0  0  0  0
    5.8037   -0.7426    0.7023 H   0  0  0  0  0  0  0  0  0  0  0  0
  1  2  1  0
  1 25  1  0
  1 26  1  0
  1 27  1  0
  2 17  1  0
  2  3  1  0
  3  4  1  0
  3 28  1  0
  3 29  1  0
  5  4  1  6
  4 30  1  0
  4 31  1  0
  5 17  1  0
  5 23  1  0
  5  6  1  0
  6 19  1  0
  6  7  1  0
  6 32  1  6
  7 24  1  0
  7  8  1  0
  7 33  1  6
  8 19  1  0
  8  9  1  0
  8 34  1  6
  9 10  1  0
  9 35  1  0
  9 36  1  0
 10 14  1  0
 10 11  1  0
 10 37  1  1
 11 12  1  0
 11 38  1  0
 11 39  1  0
 12 24  1  0
 12 13  1  0
 12 40  1  1
 13 14  1  0
 13 18  1  0
 13 41  1  1
 14 15  1  0
 14 42  1  1
 15 16  2  3
 15 43  1  0
 16 17  1  0
 16 44  1  0
 17 45  1  6
 18 19  1  0
 18 20  1  0
 18 46  1  6
 19 47  1  6
 20 23  1  0
 20 21  1  1
 20 24  1  0
 21 22  1  0
 21 48  1  0
 21 49  1  0
 22 23  1  0
 22 50  1  0
 22 51  1  0
 23 53  1  1
 24 52  1  1
M  CHG  1  23   1
M  END
>  <i_m_ct_stereo_status>  (264) 
1

>  <s_m_source_file>  (264) 
/var/tmp/pbs.5076255.sched01/tmpua_2_py4/114lbcpx7pn.sdf

>  <i_m_source_file_index>  (264) 
8

>  <i_lp_mmshare_version>  (264) 
48012

>  <i_f3d_flags>  (264) 
0

>  <s_epik_input>  (264) 
W0NIMl0xW0NIMl1OKFtDSDNdKVtDQEhdMlxbQ0hdPVtDSF1cW0NAQEhdKFtDQEBIXShbQ0gyXTMpW0NIMl00KVtDQEhdNVtDQEBIXTRbQ0BASF02W0NAQF03KE44W0NIMl1bQ0gyXTcpW0NASF01W0NAQEhdOVtDQEhdM1tDQEhdNltDQEBIXTlbQ0BAXTEyOA==

>  <s_epik_cmdline>  (264) 
J2VwaWtfcHl0aG9uJywgJy1waHQnLCAnMi4wJywgJy1waCcsICc3LjAnLCAnLXRuJywgJzgnLCAnLW1hJywgJzIwMCcsICctaW1hZScsICc8aW5maWxlLm1hZT4nLCAnLW9tYWUnLCAnPG91dGZpbGUubWFlPic=

>  <r_epik_Ionization_Penalty>  (264) 
0.0258336

>  <r_epik_Ionization_Penalty_Charging>  (264) 
0.000107525

>  <r_epik_Ionization_Penalty_Neutral>  (264) 
0.0257261

>  <r_epik_State_Penalty>  (264) 
0.0566667

>  <r_epik_Charging_Adjusted_Penalty>  (264) 
0.0567742

>  <i_epik_Tot_Q>  (264) 
1

>  <i_epik_Tot_abs_Q>  (264) 
1

>  <s_lp_Force_Field>  (264) 
OPLS3e

>  <r_lp_Energy>  (264) 
321.981

>  <b_lp_Chiralities_Consistent>  (264) 
1

>  <s_lp_Variant>  (264) 
91:0-1

>  <s_i_glide_gridfile>  (264) 
pfpi4k_grid

>  <i_i_glide_lignum>  (264) 
8

>  <i_i_glide_rotatable_bonds>  (264) 
0

>  <r_i_docking_score>  (264) 
-3.05574

>  <r_i_glide_ligand_efficiency>  (264) 
-0.127322

>  <r_i_glide_ligand_efficiency_sa>  (264) 
-0.367261

>  <r_i_glide_ligand_efficiency_ln>  (264) 
-0.731378

>  <r_i_glide_gscore>  (264) 
-3.05574

>  <r_i_glide_lipo>  (264) 
-0.695929

>  <r_i_glide_hbond>  (264) 
0

>  <r_i_glide_metal>  (264) 
-0

>  <r_i_glide_rewards>  (264) 
-1.21719

>  <r_i_glide_evdw>  (264) 
-17.1969

>  <r_i_glide_ecoul>  (264) 
-1.88518

>  <r_i_glide_erotb>  (264) 
0

>  <r_i_glide_esite>  (264) 
0

>  <r_i_glide_emodel>  (264) 
-22.2579

>  <r_i_glide_energy>  (264) 
-19.082

>  <r_i_glide_einternal>  (264) 
0

>  <r_i_glide_intrahb_reward>  (264) 
-0

>  <i_i_glide_confnum>  (264) 
1

>  <i_i_glide_posenum>  (264) 
1

>  <r_i_glide_eff_state_penalty>  (264) 
0

>  <ligand_id>  (264) 
91

>  <original_smiles>  (264) 
CN1CCC23C4C5C6CC7CC8C(C7C=CC12)C(C64)C1(CCN13)C85

>  <smiles>  (264) 
[H]C1=C([H])C2([H])C3([H])C([H])([H])C4([H])C5([H])C6([H])C4([H])C4([H])C2([H])C([H])(C3([H])[H])C5([H])C42C([H])([H])C([H])([H])[N+]2([H])C62C1([H])N(C([H])([H])[H])C([H])([H])C2([H])[H]

$$$$
91:0:2
     RDKit          3D

 53 61  0  0  1  0  0  0  0  0999 V2000
    3.2678   -1.6617   -2.5967 C   0  0  0  0  0  0  0  0  0  0  0  0
    4.3040   -2.1659   -1.6917 N   0  0  0  0  0  0  0  0  0  0  0  0
    5.2364   -1.0885   -1.4073 C   0  0  0  0  0  0  0  0  0  0  0  0
    6.1134   -1.5552   -0.2403 C   0  0  0  0  0  0  0  0  0  0  0  0
    5.2812   -2.5841    0.5450 C   0  0  2  0  0  0  0  0  0  0  0  0
    6.0459   -3.9390    0.7084 C   0  0  1  0  0  0  0  0  0  0  0  0
    6.2556   -4.8997    2.0305 C   0  0  2  0  0  0  0  0  0  0  0  0
    5.7332   -5.9690    1.0460 C   0  0  1  0  0  0  0  0  0  0  0  0
    4.8679   -7.2217    1.0919 C   0  0  0  0  0  0  0  0  0  0  0  0
    3.5109   -7.0710    1.7811 C   0  0  1  0  0  0  0  0  0  0  0  0
    3.9350   -6.9727    3.2761 C   0  0  0  0  0  0  0  0  0  0  0  0
    4.0854   -5.4816    3.5975 C   0  0  2  0  0  0  0  0  0  0  0  0
    2.9940   -4.9522    2.6605 C   0  0  2  0  0  0  0  0  0  0  0  0
    2.5380   -5.8274    1.5039 C   0  0  1  0  0  0  0  0  0  0  0  0
    2.2520   -5.0507    0.0817 C   0  0  0  0  0  0  0  0  0  0  0  0
    2.6799   -3.8548   -0.5703 C   0  0  0  0  0  0  0  0  0  0  0  0
    3.8302   -2.6493   -0.3857 C   0  0  2  0  0  0  0  0  0  0  0  0
    3.8211   -4.0558    1.9380 C   0  0  2  0  0  0  0  0  0  0  0  0
    4.8678   -4.7740    0.7938 C   0  0  1  0  0  0  0  0  0  0  0  0
    4.6444   -3.2913    2.8650 C   0  0  2  0  0  0  0  0  0  0  0  0
    4.0686   -2.2130    3.7613 C   0  0  0  0  0  0  0  0  0  0  0  0
    4.3314   -1.2392    2.5943 C   0  0  0  0  0  0  0  0  0  0  0  0
    5.2533   -2.2337    2.0278 N   0  0  2  0  0  0  0  0  0  0  0  0
    5.3813   -4.5541    3.3024 C   0  0  2  0  0  0  0  0  0  0  0  0
    3.7269   -1.1819   -3.4644 H   0  0  0  0  0  0  0  0  0  0  0  0
    2.6205   -0.9215   -2.1188 H   0  0  0  0  0  0  0  0  0  0  0  0
    2.6390   -2.4584   -2.9914 H   0  0  0  0  0  0  0  0  0  0  0  0
    5.8156   -0.8582   -2.2999 H   0  0  0  0  0  0  0  0  0  0  0  0
    4.6851   -0.1884   -1.1272 H   0  0  0  0  0  0  0  0  0  0  0  0
    7.0259   -2.0035   -0.6322 H   0  0  0  0  0  0  0  0  0  0  0  0
    6.4095   -0.6970    0.3649 H   0  0  0  0  0  0  0  0  0  0  0  0
    6.7077   -4.1711   -0.1343 H   0  0  0  0  0  0  0  0  0  0  0  0
    7.3112   -5.0573    2.2570 H   0  0  0  0  0  0  0  0  0  0  0  0
    6.5165   -6.1628    0.3070 H   0  0  0  0  0  0  0  0  0  0  0  0
    4.6561   -7.5275    0.0686 H   0  0  0  0  0  0  0  0  0  0  0  0
    5.4276   -8.0597    1.5081 H   0  0  0  0  0  0  0  0  0  0  0  0
    2.9542   -7.9965    1.6242 H   0  0  0  0  0  0  0  0  0  0  0  0
    3.1125   -7.3587    3.8826 H   0  0  0  0  0  0  0  0  0  0  0  0
    4.8150   -7.5561    3.5623 H   0  0  0  0  0  0  0  0  0  0  0  0
    3.7813   -5.3087    4.6341 H   0  0  0  0  0  0  0  0  0  0  0  0
    2.1766   -4.4473    3.1875 H   0  0  0  0  0  0  0  0  0  0  0  0
    1.5485   -6.1735    1.8034 H   0  0  0  0  0  0  0  0  0  0  0  0
    1.4766   -5.5678   -0.4638 H   0  0  0  0  0  0  0  0  0  0  0  0
    2.1252   -3.7187   -1.4826 H   0  0  0  0  0  0  0  0  0  0  0  0
    3.2226   -1.8207   -0.0215 H   0  0  0  0  0  0  0  0  0  0  0  0
    3.0617   -3.3302    1.6665 H   0  0  0  0  0  0  0  0  0  0  0  0
    4.5974   -5.0232   -0.2241 H   0  0  0  0  0  0  0  0  0  0  0  0
    3.0154   -2.3589    4.0017 H   0  0  0  0  0  0  0  0  0  0  0  0
    4.6864   -2.0331    4.6457 H   0  0  0  0  0  0  0  0  0  0  0  0
    3.4407   -1.0386    1.9927 H   0  0  0  0  0  0  0  0  0  0  0  0
    4.8301   -0.3228    2.9183 H   0  0  0  0  0  0  0  0  0  0  0  0
    5.9950   -4.4135    4.1939 H   0  0  0  0  0  0  0  0  0  0  0  0
    6.1924   -2.0613    2.3604 H   0  0  0  0  0  0  0  0  0  0  0  0
  1  2  1  0
  1 25  1  0
  1 26  1  0
  1 27  1  0
  2 17  1  0
  2  3  1  0
  3  4  1  0
  3 28  1  0
  3 29  1  0
  5  4  1  6
  4 30  1  0
  4 31  1  0
  5 17  1  0
  5 23  1  0
  5  6  1  0
  6 19  1  0
  6  7  1  0
  6 32  1  6
  7 24  1  0
  7  8  1  0
  7 33  1  1
  8 19  1  0
  8  9  1  0
  8 34  1  6
  9 10  1  0
  9 35  1  0
  9 36  1  0
 10 14  1  0
 10 11  1  0
 10 37  1  1
 11 12  1  0
 11 38  1  0
 11 39  1  0
 12 24  1  0
 12 13  1  0
 12 40  1  1
 13 14  1  0
 13 18  1  0
 13 41  1  1
 14 15  1  0
 14 42  1  1
 15 16  2  3
 15 43  1  0
 16 17  1  0
 16 44  1  0
 17 45  1  1
 18 19  1  0
 18 20  1  0
 18 46  1  6
 19 47  1  6
 20 23  1  0
 20 21  1  1
 20 24  1  0
 21 22  1  0
 21 48  1  0
 21 49  1  0
 22 23  1  0
 22 50  1  0
 22 51  1  0
 23 53  1  1
 24 52  1  1
M  CHG  1  23   1
M  END
>  <i_m_ct_stereo_status>  (265) 
1

>  <s_m_source_file>  (265) 
/var/tmp/pbs.5076255.sched01/tmpua_2_py4/114lbcpx7pn.sdf

>  <i_m_source_file_index>  (265) 
8

>  <i_lp_mmshare_version>  (265) 
48012

>  <i_f3d_flags>  (265) 
0

>  <s_epik_input>  (265) 
W0NIMl0xW0NIMl1OKFtDSDNdKVtDQEhdMlxbQ0hdPVtDSF1cW0NAQEhdKFtDQEBIXShbQ0gyXTMpW0NIMl00KVtDQEhdNVtDQEBIXTRbQ0BASF02W0NAQF03KE44W0NIMl1bQ0gyXTcpW0NASF01W0NAQEhdOVtDQEhdM1tDQEhdNltDQEBIXTlbQ0BAXTEyOA==

>  <s_epik_cmdline>  (265) 
J2VwaWtfcHl0aG9uJywgJy1waHQnLCAnMi4wJywgJy1waCcsICc3LjAnLCAnLXRuJywgJzgnLCAnLW1hJywgJzIwMCcsICctaW1hZScsICc8aW5maWxlLm1hZT4nLCAnLW9tYWUnLCAnPG91dGZpbGUubWFlPic=

>  <r_epik_Ionization_Penalty>  (265) 
0.0258336

>  <r_epik_Ionization_Penalty_Charging>  (265) 
0.000107525

>  <r_epik_Ionization_Penalty_Neutral>  (265) 
0.0257261

>  <r_epik_State_Penalty>  (265) 
0.0566667

>  <r_epik_Charging_Adjusted_Penalty>  (265) 
0.0567742

>  <i_epik_Tot_Q>  (265) 
1

>  <i_epik_Tot_abs_Q>  (265) 
1

>  <s_lp_Force_Field>  (265) 
OPLS3e

>  <r_lp_Energy>  (265) 
321.981

>  <b_lp_Chiralities_Consistent>  (265) 
1

>  <s_lp_Variant>  (265) 
91:0-1

>  <s_i_glide_gridfile>  (265) 
pfpi4k_grid

>  <i_i_glide_lignum>  (265) 
8

>  <i_i_glide_rotatable_bonds>  (265) 
0

>  <r_i_docking_score>  (265) 
-2.80066

>  <r_i_glide_ligand_efficiency>  (265) 
-0.116694

>  <r_i_glide_ligand_efficiency_sa>  (265) 
-0.336604

>  <r_i_glide_ligand_efficiency_ln>  (265) 
-0.670326

>  <r_i_glide_gscore>  (265) 
-2.80066

>  <r_i_glide_lipo>  (265) 
-0.498889

>  <r_i_glide_hbond>  (265) 
0

>  <r_i_glide_metal>  (265) 
-0

>  <r_i_glide_rewards>  (265) 
-1.21719

>  <r_i_glide_evdw>  (265) 
-17.7121

>  <r_i_glide_ecoul>  (265) 
-1.32649

>  <r_i_glide_erotb>  (265) 
0

>  <r_i_glide_esite>  (265) 
0

>  <r_i_glide_emodel>  (265) 
-21.9758

>  <r_i_glide_energy>  (265) 
-19.0386

>  <r_i_glide_einternal>  (265) 
0

>  <r_i_glide_intrahb_reward>  (265) 
-0

>  <i_i_glide_confnum>  (265) 
1

>  <i_i_glide_posenum>  (265) 
6

>  <r_i_glide_eff_state_penalty>  (265) 
0

>  <ligand_id>  (265) 
91

>  <original_smiles>  (265) 
CN1CCC23C4C5C6CC7CC8C(C7C=CC12)C(C64)C1(CCN13)C85

>  <smiles>  (265) 
[H]C1=C([H])C2([H])C3([H])C([H])([H])C4([H])C5([H])C6([H])C4([H])C4([H])C2([H])C([H])(C3([H])[H])C5([H])C42C([H])([H])C([H])([H])[N+]2([H])C62C1([H])N(C([H])([H])[H])C([H])([H])C2([H])[H]

$$$$
91:1:0
     RDKit          3D

 53 61  0  0  1  0  0  0  0  0999 V2000
    1.8124   -2.6710   -3.5654 C   0  0  0  0  0  0  0  0  0  0  0  0
    2.8466   -3.4593   -2.8921 N   0  0  1  0  0  0  0  0  0  0  0  0
    4.0459   -3.6830   -3.7343 C   0  0  0  0  0  0  0  0  0  0  0  0
    5.1254   -2.8083   -3.1509 C   0  0  0  0  0  0  0  0  0  0  0  0
    4.9280   -2.9624   -1.6596 C   0  0  2  0  0  0  0  0  0  0  0  0
    5.6873   -4.1774   -1.0914 C   0  0  1  0  0  0  0  0  0  0  0  0
    6.6522   -4.3801    0.1956 C   0  0  2  0  0  0  0  0  0  0  0  0
    5.7057   -5.5393    0.4767 C   0  0  1  0  0  0  0  0  0  0  0  0
    5.1026   -6.2722    1.6630 C   0  0  0  0  0  0  0  0  0  0  0  0
    4.3952   -5.3636    2.6777 C   0  0  1  0  0  0  0  0  0  0  0  0
    5.5984   -4.6485    3.3531 C   0  0  0  0  0  0  0  0  0  0  0  0
    5.8303   -3.3401    2.5783 C   0  0  2  0  0  0  0  0  0  0  0  0
    4.3898   -3.0485    2.1931 C   0  0  2  0  0  0  0  0  0  0  0  0
    3.4088   -4.2029    2.1898 C   0  0  1  0  0  0  0  0  0  0  0  0
    2.3276   -4.2471    0.9588 C   0  0  0  0  0  0  0  0  0  0  0  0
    2.2143   -3.7530   -0.4046 C   0  0  0  0  0  0  0  0  0  0  0  0
    3.2390   -2.9906   -1.5198 C   0  0  2  0  0  0  0  0  0  0  0  0
    4.6033   -2.9420    0.8095 C   0  0  2  0  0  0  0  0  0  0  0  0
    4.8213   -4.4376    0.0068 C   0  0  1  0  0  0  0  0  0  0  0  0
    5.7899   -2.1538    0.5240 C   0  0  2  0  0  0  0  0  0  0  0  0
    5.8111   -0.6415    0.6670 C   0  0  0  0  0  0  0  0  0  0  0  0
    5.2349   -0.5996   -0.7766 C   0  0  0  0  0  0  0  0  0  0  0  0
    5.7722   -1.9310   -0.9202 N   0  0  0  0  0  0  0  0  0  0  0  0
    6.6927   -3.1622    1.2119 C   0  0  2  0  0  0  0  0  0  0  0  0
    2.1649   -1.6866   -3.8495 H   0  0  0  0  0  0  0  0  0  0  0  0
    1.0310   -2.6925   -2.8115 H   0  0  0  0  0  0  0  0  0  0  0  0
    1.4916   -3.2284   -4.4627 H   0  0  0  0  0  0  0  0  0  0  0  0
    4.3421   -4.7432   -3.6633 H   0  0  0  0  0  0  0  0  0  0  0  0
    3.8118   -3.4859   -4.7725 H   0  0  0  0  0  0  0  0  0  0  0  0
    6.1080   -3.1275   -3.4897 H   0  0  0  0  0  0  0  0  0  0  0  0
    4.9009   -1.7748   -3.4763 H   0  0  0  0  0  0  0  0  0  0  0  0
    5.5849   -5.0245   -1.8064 H   0  0  0  0  0  0  0  0  0  0  0  0
    7.6455   -4.7348   -0.0814 H   0  0  0  0  0  0  0  0  0  0  0  0
    5.8652   -6.2950   -0.2969 H   0  0  0  0  0  0  0  0  0  0  0  0
    4.3540   -6.9730    1.3076 H   0  0  0  0  0  0  0  0  0  0  0  0
    5.8364   -6.9075    2.1648 H   0  0  0  0  0  0  0  0  0  0  0  0
    3.8768   -5.9979    3.4058 H   0  0  0  0  0  0  0  0  0  0  0  0
    5.2975   -4.3860    4.3680 H   0  0  0  0  0  0  0  0  0  0  0  0
    6.5051   -5.2564    3.4450 H   0  0  0  0  0  0  0  0  0  0  0  0
    6.1401   -2.5560    3.2760 H   0  0  0  0  0  0  0  0  0  0  0  0
    3.9941   -2.1091    2.6183 H   0  0  0  0  0  0  0  0  0  0  0  0
    2.7763   -3.9980    3.0482 H   0  0  0  0  0  0  0  0  0  0  0  0
    1.4669   -4.7679    1.3468 H   0  0  0  0  0  0  0  0  0  0  0  0
    1.3047   -3.9820   -0.8621 H   0  0  0  0  0  0  0  0  0  0  0  0
    2.8953   -1.9679   -1.4883 H   0  0  0  0  0  0  0  0  0  0  0  0
    3.7941   -2.2520    0.5699 H   0  0  0  0  0  0  0  0  0  0  0  0
    4.0564   -5.0836   -0.3735 H   0  0  0  0  0  0  0  0  0  0  0  0
    5.1303   -0.2805    1.4431 H   0  0  0  0  0  0  0  0  0  0  0  0
    6.8286   -0.2834    0.7511 H   0  0  0  0  0  0  0  0  0  0  0  0
    4.1493   -0.5626   -0.8251 H   0  0  0  0  0  0  0  0  0  0  0  0
    5.7584    0.0315   -1.4723 H   0  0  0  0  0  0  0  0  0  0  0  0
    7.7162   -2.8214    1.2893 H   0  0  0  0  0  0  0  0  0  0  0  0
    2.4859   -4.3728   -2.7589 H   0  0  0  0  0  0  0  0  0  0  0  0
  1  2  1  0
  1 25  1  0
  1 26  1  0
  1 27  1  0
  2 17  1  0
  2  3  1  0
  2 53  1  1
  3  4  1  0
  3 28  1  0
  3 29  1  0
  5  4  1  6
  4 30  1  0
  4 31  1  0
  5 17  1  0
  5 23  1  0
  5  6  1  0
  6 19  1  0
  6  7  1  0
  6 32  1  6
  7 24  1  0
  7  8  1  0
  7 33  1  6
  8 19  1  0
  8  9  1  0
  8 34  1  6
  9 10  1  0
  9 35  1  0
  9 36  1  0
 10 14  1  0
 10 11  1  0
 10 37  1  1
 11 12  1  0
 11 38  1  0
 11 39  1  0
 12 24  1  0
 12 13  1  0
 12 40  1  1
 13 14  1  0
 13 18  1  0
 13 41  1  1
 14 15  1  0
 14 42  1  1
 15 16  2  3
 15 43  1  0
 16 17  1  0
 16 44  1  0
 17 45  1  6
 18 19  1  0
 18 20  1  0
 18 46  1  6
 19 47  1  6
 20 23  1  0
 20 21  1  1
 20 24  1  0
 21 22  1  0
 21 48  1  0
 21 49  1  0
 22 23  1  0
 22 50  1  0
 22 51  1  0
 24 52  1  1
M  CHG  1   2   1
M  END
>  <i_m_ct_stereo_status>  (266) 
1

>  <s_m_source_file>  (266) 
/var/tmp/pbs.5076255.sched01/tmpua_2_py4/114lbcpx7pn.sdf

>  <i_m_source_file_index>  (266) 
9

>  <i_lp_mmshare_version>  (266) 
48012

>  <i_f3d_flags>  (266) 
0

>  <s_epik_input>  (266) 
W0NIMl0xW0NIMl1OKFtDSDNdKVtDQEhdMlxbQ0hdPVtDSF1cW0NAQEhdKFtDQEBIXShbQ0gyXTMpW0NIMl00KVtDQEhdNVtDQEBIXTRbQ0BASF02W0NAQF03KE44W0NIMl1bQ0gyXTcpW0NASF01W0NAQEhdOVtDQEhdM1tDQEhdNltDQEBIXTlbQ0BAXTEyOA==

>  <s_epik_cmdline>  (266) 
J2VwaWtfcHl0aG9uJywgJy1waHQnLCAnMi4wJywgJy1waCcsICc3LjAnLCAnLXRuJywgJzgnLCAnLW1hJywgJzIwMCcsICctaW1hZScsICc8aW5maWxlLm1hZT4nLCAnLW9tYWUnLCAnPG91dGZpbGUubWFlPic=

>  <r_epik_Ionization_Penalty>  (266) 
0.271986

>  <r_epik_Ionization_Penalty_Charging>  (266) 
0.000847002

>  <r_epik_Ionization_Penalty_Neutral>  (266) 
0.271139

>  <r_epik_State_Penalty>  (266) 
1.68204

>  <r_epik_Charging_Adjusted_Penalty>  (266) 
1.68289

>  <i_epik_Tot_Q>  (266) 
1

>  <i_epik_Tot_abs_Q>  (266) 
1

>  <s_lp_Force_Field>  (266) 
OPLS3e

>  <r_lp_Energy>  (266) 
321.001

>  <b_lp_Chiralities_Consistent>  (266) 
1

>  <s_lp_Variant>  (266) 
91:0-2

>  <s_i_glide_gridfile>  (266) 
pfpi4k_grid

>  <i_i_glide_lignum>  (266) 
9

>  <i_i_glide_rotatable_bonds>  (266) 
0

>  <r_i_docking_score>  (266) 
-3.55547

>  <r_i_glide_ligand_efficiency>  (266) 
-0.148145

>  <r_i_glide_ligand_efficiency_sa>  (266) 
-0.427323

>  <r_i_glide_ligand_efficiency_ln>  (266) 
-0.850987

>  <r_i_glide_gscore>  (266) 
-3.55547

>  <r_i_glide_lipo>  (266) 
-0.977983

>  <r_i_glide_hbond>  (266) 
0

>  <r_i_glide_metal>  (266) 
-0

>  <r_i_glide_rewards>  (266) 
-1.21719

>  <r_i_glide_evdw>  (266) 
-8.24028

>  <r_i_glide_ecoul>  (266) 
-6.32189

>  <r_i_glide_erotb>  (266) 
0

>  <r_i_glide_esite>  (266) 
0

>  <r_i_glide_emodel>  (266) 
-19.2555

>  <r_i_glide_energy>  (266) 
-14.5622

>  <r_i_glide_einternal>  (266) 
0

>  <r_i_glide_intrahb_reward>  (266) 
-0

>  <i_i_glide_confnum>  (266) 
2

>  <i_i_glide_posenum>  (266) 
1

>  <r_i_glide_eff_state_penalty>  (266) 
0

>  <ligand_id>  (266) 
91

>  <original_smiles>  (266) 
CN1CCC23C4C5C6CC7CC8C(C7C=CC12)C(C64)C1(CCN13)C85

>  <smiles>  (266) 
[H]C1=C([H])C2([H])C3(N4C([H])([H])C([H])([H])C45C4([H])C6([H])C([H])([H])C7([H])C([H])([H])C8([H])C4([H])C3([H])C8([H])C5([H])C6([H])C17[H])C([H])([H])C([H])([H])[N+]2([H])C([H])([H])[H]

$$$$
91:1:1
     RDKit          3D

 53 61  0  0  1  0  0  0  0  0999 V2000
    2.5149   -2.4817   -3.5409 C   0  0  0  0  0  0  0  0  0  0  0  0
    3.5462   -3.1075   -2.6773 N   0  0  1  0  0  0  0  0  0  0  0  0
    4.9129   -2.6247   -2.9870 C   0  0  0  0  0  0  0  0  0  0  0  0
    5.3251   -1.6630   -1.8729 C   0  0  0  0  0  0  0  0  0  0  0  0
    4.7934   -2.3385   -0.6091 C   0  0  2  0  0  0  0  0  0  0  0  0
    5.8192   -3.3823   -0.0438 C   0  0  1  0  0  0  0  0  0  0  0  0
    6.3189   -3.6834    1.4926 C   0  0  2  0  0  0  0  0  0  0  0  0
    5.9031   -5.1176    1.0962 C   0  0  1  0  0  0  0  0  0  0  0  0
    5.2869   -6.3328    1.7752 C   0  0  0  0  0  0  0  0  0  0  0  0
    3.9980   -6.0723    2.5595 C   0  0  1  0  0  0  0  0  0  0  0  0
    4.5399   -5.3056    3.8037 C   0  0  0  0  0  0  0  0  0  0  0  0
    4.4476   -3.8134    3.4769 C   0  0  2  0  0  0  0  0  0  0  0  0
    3.1966   -3.8574    2.5905 C   0  0  2  0  0  0  0  0  0  0  0  0
    2.7968   -5.1875    1.9654 C   0  0  1  0  0  0  0  0  0  0  0  0
    2.2304   -5.1138    0.4199 C   0  0  0  0  0  0  0  0  0  0  0  0
    2.3737   -4.2530   -0.7074 C   0  0  0  0  0  0  0  0  0  0  0  0
    3.3101   -2.9620   -1.2109 C   0  0  2  0  0  0  0  0  0  0  0  0
    3.7812   -3.2487    1.4497 C   0  0  2  0  0  0  0  0  0  0  0  0
    4.8175   -4.2493    0.5361 C   0  0  1  0  0  0  0  0  0  0  0  0
    4.5589   -2.0788    1.8557 C   0  0  2  0  0  0  0  0  0  0  0  0
    3.9175   -0.7782    2.3093 C   0  0  0  0  0  0  0  0  0  0  0  0
    3.8668   -0.3770    0.8188 C   0  0  0  0  0  0  0  0  0  0  0  0
    4.8845   -1.4046    0.5722 N   0  0  0  0  0  0  0  0  0  0  0  0
    5.5250   -2.9482    2.6384 C   0  0  2  0  0  0  0  0  0  0  0  0
    2.5185   -1.3948   -3.4275 H   0  0  0  0  0  0  0  0  0  0  0  0
    1.5177   -2.8613   -3.3080 H   0  0  0  0  0  0  0  0  0  0  0  0
    2.7221   -2.7126   -4.5882 H   0  0  0  0  0  0  0  0  0  0  0  0
    5.5883   -3.4854   -3.0009 H   0  0  0  0  0  0  0  0  0  0  0  0
    4.9826   -2.1441   -3.9602 H   0  0  0  0  0  0  0  0  0  0  0  0
    6.3998   -1.4953   -1.8494 H   0  0  0  0  0  0  0  0  0  0  0  0
    4.8297   -0.6984   -2.0180 H   0  0  0  0  0  0  0  0  0  0  0  0
    6.4384   -3.8410   -0.8157 H   0  0  0  0  0  0  0  0  0  0  0  0
    7.4043   -3.5980    1.5794 H   0  0  0  0  0  0  0  0  0  0  0  0
    6.6283   -5.5032    0.3743 H   0  0  0  0  0  0  0  0  0  0  0  0
    5.0376   -7.0654    1.0069 H   0  0  0  0  0  0  0  0  0  0  0  0
    6.0243   -6.8416    2.3957 H   0  0  0  0  0  0  0  0  0  0  0  0
    3.5983   -7.0376    2.8760 H   0  0  0  0  0  0  0  0  0  0  0  0
    3.8670   -5.5050    4.6394 H   0  0  0  0  0  0  0  0  0  0  0  0
    5.5334   -5.6016    4.1453 H   0  0  0  0  0  0  0  0  0  0  0  0
    4.2227   -3.2633    4.3933 H   0  0  0  0  0  0  0  0  0  0  0  0
    2.3587   -3.2804    2.9984 H   0  0  0  0  0  0  0  0  0  0  0  0
    1.9181   -5.4907    2.5306 H   0  0  0  0  0  0  0  0  0  0  0  0
    1.5093   -5.9041    0.2628 H   0  0  0  0  0  0  0  0  0  0  0  0
    1.7265   -4.5502   -1.5178 H   0  0  0  0  0  0  0  0  0  0  0  0
    2.6129   -2.1308   -1.1331 H   0  0  0  0  0  0  0  0  0  0  0  0
    2.8837   -2.7915    1.0432 H   0  0  0  0  0  0  0  0  0  0  0  0
    4.5001   -4.9277   -0.2486 H   0  0  0  0  0  0  0  0  0  0  0  0
    2.9425   -0.9150    2.7809 H   0  0  0  0  0  0  0  0  0  0  0  0
    4.5941   -0.1761    2.9185 H   0  0  0  0  0  0  0  0  0  0  0  0
    2.9186   -0.5959    0.3305 H   0  0  0  0  0  0  0  0  0  0  0  0
    4.2594    0.6160    0.6114 H   0  0  0  0  0  0  0  0  0  0  0  0
    6.1801   -2.3604    3.2776 H   0  0  0  0  0  0  0  0  0  0  0  0
    3.5332   -4.1050   -2.8738 H   0  0  0  0  0  0  0  0  0  0  0  0
  1  2  1  0
  1 25  1  0
  1 26  1  0
  1 27  1  0
  2 17  1  0
  2  3  1  0
  2 53  1  1
  3  4  1  0
  3 28  1  0
  3 29  1  0
  5  4  1  6
  4 30  1  0
  4 31  1  0
  5 17  1  0
  5 23  1  0
  5  6  1  0
  6 19  1  0
  6  7  1  0
  6 32  1  6
  7 24  1  0
  7  8  1  0
  7 33  1  6
  8 19  1  0
  8  9  1  0
  8 34  1  6
  9 10  1  0
  9 35  1  0
  9 36  1  0
 10 14  1  0
 10 11  1  0
 10 37  1  1
 11 12  1  0
 11 38  1  0
 11 39  1  0
 12 24  1  0
 12 13  1  0
 12 40  1  1
 13 14  1  0
 13 18  1  0
 13 41  1  1
 14 15  1  0
 14 42  1  1
 15 16  2  3
 15 43  1  0
 16 17  1  0
 16 44  1  0
 17 45  1  6
 18 19  1  0
 18 20  1  0
 18 46  1  6
 19 47  1  6
 20 23  1  0
 20 21  1  1
 20 24  1  0
 21 22  1  0
 21 48  1  0
 21 49  1  0
 22 23  1  0
 22 50  1  0
 22 51  1  0
 24 52  1  1
M  CHG  1   2   1
M  END
>  <i_m_ct_stereo_status>  (267) 
1

>  <s_m_source_file>  (267) 
/var/tmp/pbs.5076255.sched01/tmpua_2_py4/114lbcpx7pn.sdf

>  <i_m_source_file_index>  (267) 
9

>  <i_lp_mmshare_version>  (267) 
48012

>  <i_f3d_flags>  (267) 
0

>  <s_epik_input>  (267) 
W0NIMl0xW0NIMl1OKFtDSDNdKVtDQEhdMlxbQ0hdPVtDSF1cW0NAQEhdKFtDQEBIXShbQ0gyXTMpW0NIMl00KVtDQEhdNVtDQEBIXTRbQ0BASF02W0NAQF03KE44W0NIMl1bQ0gyXTcpW0NASF01W0NAQEhdOVtDQEhdM1tDQEhdNltDQEBIXTlbQ0BAXTEyOA==

>  <s_epik_cmdline>  (267) 
J2VwaWtfcHl0aG9uJywgJy1waHQnLCAnMi4wJywgJy1waCcsICc3LjAnLCAnLXRuJywgJzgnLCAnLW1hJywgJzIwMCcsICctaW1hZScsICc8aW5maWxlLm1hZT4nLCAnLW9tYWUnLCAnPG91dGZpbGUubWFlPic=

>  <r_epik_Ionization_Penalty>  (267) 
0.271986

>  <r_epik_Ionization_Penalty_Charging>  (267) 
0.000847002

>  <r_epik_Ionization_Penalty_Neutral>  (267) 
0.271139

>  <r_epik_State_Penalty>  (267) 
1.68204

>  <r_epik_Charging_Adjusted_Penalty>  (267) 
1.68289

>  <i_epik_Tot_Q>  (267) 
1

>  <i_epik_Tot_abs_Q>  (267) 
1

>  <s_lp_Force_Field>  (267) 
OPLS3e

>  <r_lp_Energy>  (267) 
321.001

>  <b_lp_Chiralities_Consistent>  (267) 
1

>  <s_lp_Variant>  (267) 
91:0-2

>  <s_i_glide_gridfile>  (267) 
pfpi4k_grid

>  <i_i_glide_lignum>  (267) 
9

>  <i_i_glide_rotatable_bonds>  (267) 
0

>  <r_i_docking_score>  (267) 
-3.50927

>  <r_i_glide_ligand_efficiency>  (267) 
-0.14622

>  <r_i_glide_ligand_efficiency_sa>  (267) 
-0.421771

>  <r_i_glide_ligand_efficiency_ln>  (267) 
-0.83993

>  <r_i_glide_gscore>  (267) 
-3.50927

>  <r_i_glide_lipo>  (267) 
-0.831891

>  <r_i_glide_hbond>  (267) 
0

>  <r_i_glide_metal>  (267) 
-0

>  <r_i_glide_rewards>  (267) 
-1.21719

>  <r_i_glide_evdw>  (267) 
-17.0729

>  <r_i_glide_ecoul>  (267) 
-3.85869

>  <r_i_glide_erotb>  (267) 
0

>  <r_i_glide_esite>  (267) 
-0.0277458

>  <r_i_glide_emodel>  (267) 
-25.9115

>  <r_i_glide_energy>  (267) 
-20.9316

>  <r_i_glide_einternal>  (267) 
0

>  <r_i_glide_intrahb_reward>  (267) 
-0

>  <i_i_glide_confnum>  (267) 
1

>  <i_i_glide_posenum>  (267) 
15

>  <r_i_glide_eff_state_penalty>  (267) 
0

>  <ligand_id>  (267) 
91

>  <original_smiles>  (267) 
CN1CCC23C4C5C6CC7CC8C(C7C=CC12)C(C64)C1(CCN13)C85

>  <smiles>  (267) 
[H]C1=C([H])C2([H])C3(N4C([H])([H])C([H])([H])C45C4([H])C6([H])C([H])([H])C7([H])C([H])([H])C8([H])C4([H])C3([H])C8([H])C5([H])C6([H])C17[H])C([H])([H])C([H])([H])[N+]2([H])C([H])([H])[H]

$$$$
91:1:2
     RDKit          3D

 53 61  0  0  1  0  0  0  0  0999 V2000
    2.7205   -2.5820   -2.6953 C   0  0  0  0  0  0  0  0  0  0  0  0
    3.6360   -3.4518   -1.9094 N   0  0  1  0  0  0  0  0  0  0  0  0
    5.0628   -3.0660   -2.0531 C   0  0  0  0  0  0  0  0  0  0  0  0
    5.4761   -2.3642   -0.7563 C   0  0  0  0  0  0  0  0  0  0  0  0
    4.7981   -3.1999    0.3354 C   0  0  2  0  0  0  0  0  0  0  0  0
    5.6832   -4.4255    0.7578 C   0  0  1  0  0  0  0  0  0  0  0  0
    6.0437   -5.0447    2.2361 C   0  0  2  0  0  0  0  0  0  0  0  0
    5.5305   -6.3336    1.5606 C   0  0  1  0  0  0  0  0  0  0  0  0
    4.7593   -7.5825    1.9699 C   0  0  0  0  0  0  0  0  0  0  0  0
    3.4471   -7.3382    2.7205 C   0  0  1  0  0  0  0  0  0  0  0  0
    3.9663   -6.8657    4.1092 C   0  0  0  0  0  0  0  0  0  0  0  0
    4.0315   -5.3372    4.0578 C   0  0  2  0  0  0  0  0  0  0  0  0
    2.8515   -5.0934    3.1152 C   0  0  2  0  0  0  0  0  0  0  0  0
    2.3767   -6.2440    2.2358 C   0  0  1  0  0  0  0  0  0  0  0  0
    1.9312   -5.8439    0.7019 C   0  0  0  0  0  0  0  0  0  0  0  0
    2.2277   -4.8083   -0.2394 C   0  0  0  0  0  0  0  0  0  0  0  0
    3.3143   -3.5539   -0.4528 C   0  0  2  0  0  0  0  0  0  0  0  0
    3.5679   -4.3555    2.1370 C   0  0  2  0  0  0  0  0  0  0  0  0
    4.5714   -5.2761    1.1115 C   0  0  1  0  0  0  0  0  0  0  0  0
    4.4160   -3.3603    2.7918 C   0  0  2  0  0  0  0  0  0  0  0  0
    3.8624   -2.1046    3.4449 C   0  0  0  0  0  0  0  0  0  0  0  0
    3.9531   -1.4398    2.0508 C   0  0  0  0  0  0  0  0  0  0  0  0
    4.8878   -2.5069    1.6697 N   0  0  0  0  0  0  0  0  0  0  0  0
    5.2423   -4.4522    3.4555 C   0  0  2  0  0  0  0  0  0  0  0  0
    2.8027   -1.5419   -2.3760 H   0  0  0  0  0  0  0  0  0  0  0  0
    1.6823   -2.9027   -2.5848 H   0  0  0  0  0  0  0  0  0  0  0  0
    2.9753   -2.6346   -3.7553 H   0  0  0  0  0  0  0  0  0  0  0  0
    5.6501   -3.9787   -2.1807 H   0  0  0  0  0  0  0  0  0  0  0  0
    5.2433   -2.4486   -2.9309 H   0  0  0  0  0  0  0  0  0  0  0  0
    6.5589   -2.2970   -0.6424 H   0  0  0  0  0  0  0  0  0  0  0  0
    5.0732   -1.3464   -0.7498 H   0  0  0  0  0  0  0  0  0  0  0  0
    6.3130   -4.8009   -0.0526 H   0  0  0  0  0  0  0  0  0  0  0  0
    7.1235   -5.0845    2.3918 H   0  0  0  0  0  0  0  0  0  0  0  0
    6.2704   -6.6540    0.8205 H   0  0  0  0  0  0  0  0  0  0  0  0
    4.4994   -8.1371    1.0679 H   0  0  0  0  0  0  0  0  0  0  0  0
    5.4018   -8.2663    2.5248 H   0  0  0  0  0  0  0  0  0  0  0  0
    2.9426   -8.2970    2.8317 H   0  0  0  0  0  0  0  0  0  0  0  0
    3.2219   -7.1383    4.8604 H   0  0  0  0  0  0  0  0  0  0  0  0
    4.9035   -7.3139    4.4439 H   0  0  0  0  0  0  0  0  0  0  0  0
    3.7953   -4.9383    5.0447 H   0  0  0  0  0  0  0  0  0  0  0  0
    2.0432   -4.5171    3.5757 H   0  0  0  0  0  0  0  0  0  0  0  0
    1.4347   -6.5533    2.6907 H   0  0  0  0  0  0  0  0  0  0  0  0
    1.1470   -6.5093    0.3737 H   0  0  0  0  0  0  0  0  0  0  0  0
    1.6164   -4.8965   -1.1204 H   0  0  0  0  0  0  0  0  0  0  0  0
    2.6963   -2.6818   -0.2585 H   0  0  0  0  0  0  0  0  0  0  0  0
    2.7478   -3.7438    1.7709 H   0  0  0  0  0  0  0  0  0  0  0  0
    4.2472   -5.7693    0.2020 H   0  0  0  0  0  0  0  0  0  0  0  0
    2.8479   -2.2274    3.8279 H   0  0  0  0  0  0  0  0  0  0  0  0
    4.5443   -1.6946    4.1896 H   0  0  0  0  0  0  0  0  0  0  0  0
    3.0270   -1.4660    1.4807 H   0  0  0  0  0  0  0  0  0  0  0  0
    4.4508   -0.4732    2.0551 H   0  0  0  0  0  0  0  0  0  0  0  0
    5.9000   -4.0759    4.2374 H   0  0  0  0  0  0  0  0  0  0  0  0
    3.5452   -4.3922   -2.2895 H   0  0  0  0  0  0  0  0  0  0  0  0
  1  2  1  0
  1 25  1  0
  1 26  1  0
  1 27  1  0
  2 17  1  0
  2  3  1  0
  2 53  1  6
  3  4  1  0
  3 28  1  0
  3 29  1  0
  5  4  1  6
  4 30  1  0
  4 31  1  0
  5 17  1  0
  5 23  1  0
  5  6  1  0
  6 19  1  0
  6  7  1  0
  6 32  1  6
  7 24  1  0
  7  8  1  0
  7 33  1  1
  8 19  1  0
  8  9  1  0
  8 34  1  6
  9 10  1  0
  9 35  1  0
  9 36  1  0
 10 14  1  0
 10 11  1  0
 10 37  1  1
 11 12  1  0
 11 38  1  0
 11 39  1  0
 12 24  1  0
 12 13  1  0
 12 40  1  1
 13 14  1  0
 13 18  1  0
 13 41  1  1
 14 15  1  0
 14 42  1  1
 15 16  2  3
 15 43  1  0
 16 17  1  0
 16 44  1  0
 17 45  1  1
 18 19  1  0
 18 20  1  0
 18 46  1  6
 19 47  1  6
 20 23  1  0
 20 21  1  1
 20 24  1  0
 21 22  1  0
 21 48  1  0
 21 49  1  0
 22 23  1  0
 22 50  1  0
 22 51  1  0
 24 52  1  1
M  CHG  1   2   1
M  END
>  <i_m_ct_stereo_status>  (268) 
1

>  <s_m_source_file>  (268) 
/var/tmp/pbs.5076255.sched01/tmpua_2_py4/114lbcpx7pn.sdf

>  <i_m_source_file_index>  (268) 
9

>  <i_lp_mmshare_version>  (268) 
48012

>  <i_f3d_flags>  (268) 
0

>  <s_epik_input>  (268) 
W0NIMl0xW0NIMl1OKFtDSDNdKVtDQEhdMlxbQ0hdPVtDSF1cW0NAQEhdKFtDQEBIXShbQ0gyXTMpW0NIMl00KVtDQEhdNVtDQEBIXTRbQ0BASF02W0NAQF03KE44W0NIMl1bQ0gyXTcpW0NASF01W0NAQEhdOVtDQEhdM1tDQEhdNltDQEBIXTlbQ0BAXTEyOA==

>  <s_epik_cmdline>  (268) 
J2VwaWtfcHl0aG9uJywgJy1waHQnLCAnMi4wJywgJy1waCcsICc3LjAnLCAnLXRuJywgJzgnLCAnLW1hJywgJzIwMCcsICctaW1hZScsICc8aW5maWxlLm1hZT4nLCAnLW9tYWUnLCAnPG91dGZpbGUubWFlPic=

>  <r_epik_Ionization_Penalty>  (268) 
0.271986

>  <r_epik_Ionization_Penalty_Charging>  (268) 
0.000847002

>  <r_epik_Ionization_Penalty_Neutral>  (268) 
0.271139

>  <r_epik_State_Penalty>  (268) 
1.68204

>  <r_epik_Charging_Adjusted_Penalty>  (268) 
1.68289

>  <i_epik_Tot_Q>  (268) 
1

>  <i_epik_Tot_abs_Q>  (268) 
1

>  <s_lp_Force_Field>  (268) 
OPLS3e

>  <r_lp_Energy>  (268) 
321.001

>  <b_lp_Chiralities_Consistent>  (268) 
1

>  <s_lp_Variant>  (268) 
91:0-2

>  <s_i_glide_gridfile>  (268) 
pfpi4k_grid

>  <i_i_glide_lignum>  (268) 
9

>  <i_i_glide_rotatable_bonds>  (268) 
0

>  <r_i_docking_score>  (268) 
-3.19167

>  <r_i_glide_ligand_efficiency>  (268) 
-0.132986

>  <r_i_glide_ligand_efficiency_sa>  (268) 
-0.383599

>  <r_i_glide_ligand_efficiency_ln>  (268) 
-0.763913

>  <r_i_glide_gscore>  (268) 
-3.19167

>  <r_i_glide_lipo>  (268) 
-0.436878

>  <r_i_glide_hbond>  (268) 
0

>  <r_i_glide_metal>  (268) 
-0

>  <r_i_glide_rewards>  (268) 
-1.21719

>  <r_i_glide_evdw>  (268) 
-14.7625

>  <r_i_glide_ecoul>  (268) 
-5.26336

>  <r_i_glide_erotb>  (268) 
0

>  <r_i_glide_esite>  (268) 
-0.00997166

>  <r_i_glide_emodel>  (268) 
-24.5409

>  <r_i_glide_energy>  (268) 
-20.0259

>  <r_i_glide_einternal>  (268) 
0

>  <r_i_glide_intrahb_reward>  (268) 
-0

>  <i_i_glide_confnum>  (268) 
1

>  <i_i_glide_posenum>  (268) 
11

>  <r_i_glide_eff_state_penalty>  (268) 
0

>  <ligand_id>  (268) 
91

>  <original_smiles>  (268) 
CN1CCC23C4C5C6CC7CC8C(C7C=CC12)C(C64)C1(CCN13)C85

>  <smiles>  (268) 
[H]C1=C([H])C2([H])C3(N4C([H])([H])C([H])([H])C45C4([H])C6([H])C([H])([H])C7([H])C([H])([H])C8([H])C4([H])C3([H])C8([H])C5([H])C6([H])C17[H])C([H])([H])C([H])([H])[N+]2([H])C([H])([H])[H]

$$$$
91:2:0
     RDKit          3D

 54 62  0  0  1  0  0  0  0  0999 V2000
    1.9335   -2.9899   -3.1436 C   0  0  0  0  0  0  0  0  0  0  0  0
    3.1726   -3.4502   -2.4685 N   0  0  1  0  0  0  0  0  0  0  0  0
    4.3914   -2.8573   -3.0652 C   0  0  0  0  0  0  0  0  0  0  0  0
    4.8818   -1.7487   -2.1207 C   0  0  0  0  0  0  0  0  0  0  0  0
    4.6555   -2.3223   -0.7212 C   0  0  2  0  0  0  0  0  0  0  0  0
    5.8792   -3.1694   -0.2466 C   0  0  1  0  0  0  0  0  0  0  0  0
    6.6455   -3.2085    1.2062 C   0  0  2  0  0  0  0  0  0  0  0  0
    6.3968   -4.7232    1.0350 C   0  0  1  0  0  0  0  0  0  0  0  0
    6.0737   -5.9199    1.9182 C   0  0  0  0  0  0  0  0  0  0  0  0
    4.8933   -5.7455    2.8773 C   0  0  1  0  0  0  0  0  0  0  0  0
    5.5000   -4.7828    3.9376 C   0  0  0  0  0  0  0  0  0  0  0  0
    5.1518   -3.3554    3.4941 C   0  0  2  0  0  0  0  0  0  0  0  0
    3.7974   -3.6670    2.8475 C   0  0  2  0  0  0  0  0  0  0  0  0
    3.5015   -5.0965    2.4188 C   0  0  1  0  0  0  0  0  0  0  0  0
    2.7045   -5.2737    0.9857 C   0  0  0  0  0  0  0  0  0  0  0  0
    2.5482   -4.5341   -0.2264 C   0  0  0  0  0  0  0  0  0  0  0  0
    3.2016   -3.1996   -0.9951 C   0  0  2  0  0  0  0  0  0  0  0  0
    4.0984   -3.1267    1.5715 C   0  0  2  0  0  0  0  0  0  0  0  0
    5.1236   -4.0778    0.5848 C   0  0  1  0  0  0  0  0  0  0  0  0
    4.7258   -1.8228    1.7280 C   0  0  2  0  0  0  0  0  0  0  0  0
    3.9675   -0.6026    2.2051 C   0  0  0  0  0  0  0  0  0  0  0  0
    3.6505   -0.3496    0.7233 C   0  0  0  0  0  0  0  0  0  0  0  0
    4.7540   -1.2494    0.3666 N   0  0  2  0  0  0  0  0  0  0  0  0
    5.9349   -2.4494    2.3984 C   0  0  2  0  0  0  0  0  0  0  0  0
    1.8420   -1.9052   -3.0959 H   0  0  0  0  0  0  0  0  0  0  0  0
    1.0512   -3.4255   -2.6726 H   0  0  0  0  0  0  0  0  0  0  0  0
    1.9344   -3.2817   -4.1998 H   0  0  0  0  0  0  0  0  0  0  0  0
    5.1452   -3.6482   -3.1340 H   0  0  0  0  0  0  0  0  0  0  0  0
    4.2269   -2.4852   -4.0788 H   0  0  0  0  0  0  0  0  0  0  0  0
    5.9192   -1.4755   -2.3050 H   0  0  0  0  0  0  0  0  0  0  0  0
    4.2706   -0.8534   -2.2640 H   0  0  0  0  0  0  0  0  0  0  0  0
    6.4365   -3.6384   -1.0686 H   0  0  0  0  0  0  0  0  0  0  0  0
    7.7081   -2.9803    1.1133 H   0  0  0  0  0  0  0  0  0  0  0  0
    7.0567   -5.0926    0.2437 H   0  0  0  0  0  0  0  0  0  0  0  0
    5.8205   -6.7598    1.2728 H   0  0  0  0  0  0  0  0  0  0  0  0
    6.9629   -6.2567    2.4505 H   0  0  0  0  0  0  0  0  0  0  0  0
    4.6951   -6.7130    3.3403 H   0  0  0  0  0  0  0  0  0  0  0  0
    4.9919   -4.9684    4.8865 H   0  0  0  0  0  0  0  0  0  0  0  0
    6.5603   -4.9294    4.1507 H   0  0  0  0  0  0  0  0  0  0  0  0
    4.9931   -2.7393    4.3817 H   0  0  0  0  0  0  0  0  0  0  0  0
    2.9570   -3.1657    3.3379 H   0  0  0  0  0  0  0  0  0  0  0  0
    2.7716   -5.4492    3.1484 H   0  0  0  0  0  0  0  0  0  0  0  0
    2.0779   -6.1531    1.0304 H   0  0  0  0  0  0  0  0  0  0  0  0
    1.8286   -5.0037   -0.8801 H   0  0  0  0  0  0  0  0  0  0  0  0
    2.4281   -2.4572   -0.8415 H   0  0  0  0  0  0  0  0  0  0  0  0
    3.0920   -2.8454    1.2795 H   0  0  0  0  0  0  0  0  0  0  0  0
    4.7931   -4.8860   -0.0602 H   0  0  0  0  0  0  0  0  0  0  0  0
    3.1011   -0.8340    2.8241 H   0  0  0  0  0  0  0  0  0  0  0  0
    4.6207    0.1475    2.6566 H   0  0  0  0  0  0  0  0  0  0  0  0
    2.6528   -0.6842    0.4356 H   0  0  0  0  0  0  0  0  0  0  0  0
    3.8366    0.6951    0.4709 H   0  0  0  0  0  0  0  0  0  0  0  0
    6.5745   -1.6864    2.8409 H   0  0  0  0  0  0  0  0  0  0  0  0
    5.6035   -0.7107    0.2598 H   0  0  0  0  0  0  0  0  0  0  0  0
    3.2120   -4.4600   -2.6135 H   0  0  0  0  0  0  0  0  0  0  0  0
  1  2  1  0
  1 25  1  0
  1 26  1  0
  1 27  1  0
  2 17  1  0
  2  3  1  0
  2 54  1  1
  3  4  1  0
  3 28  1  0
  3 29  1  0
  5  4  1  6
  4 30  1  0
  4 31  1  0
  5 17  1  0
  5 23  1  0
  5  6  1  0
  6 19  1  0
  6  7  1  0
  6 32  1  6
  7 24  1  0
  7  8  1  0
  7 33  1  6
  8 19  1  0
  8  9  1  0
  8 34  1  6
  9 10  1  0
  9 35  1  0
  9 36  1  0
 10 14  1  0
 10 11  1  0
 10 37  1  1
 11 12  1  0
 11 38  1  0
 11 39  1  0
 12 24  1  0
 12 13  1  0
 12 40  1  1
 13 14  1  0
 13 18  1  0
 13 41  1  1
 14 15  1  0
 14 42  1  1
 15 16  2  3
 15 43  1  0
 16 17  1  0
 16 44  1  0
 17 45  1  6
 18 19  1  0
 18 20  1  0
 18 46  1  6
 19 47  1  6
 20 23  1  0
 20 21  1  1
 20 24  1  0
 21 22  1  0
 21 48  1  0
 21 49  1  0
 22 23  1  0
 22 50  1  0
 22 51  1  0
 23 53  1  6
 24 52  1  1
M  CHG  2   2   1  23   1
M  END
>  <i_m_ct_stereo_status>  (269) 
1

>  <s_m_source_file>  (269) 
/var/tmp/pbs.5076255.sched01/tmpua_2_py4/114lbcpx7pn.sdf

>  <i_m_source_file_index>  (269) 
10

>  <i_lp_mmshare_version>  (269) 
48012

>  <i_f3d_flags>  (269) 
0

>  <s_epik_input>  (269) 
W0NIMl0xW0NIMl1OKFtDSDNdKVtDQEhdMlxbQ0hdPVtDSF1cW0NAQEhdKFtDQEBIXShbQ0gyXTMpW0NIMl00KVtDQEhdNVtDQEBIXTRbQ0BASF02W0NAQF03KE44W0NIMl1bQ0gyXTcpW0NASF01W0NAQEhdOVtDQEhdM1tDQEhdNltDQEBIXTlbQ0BAXTEyOA==

>  <s_epik_cmdline>  (269) 
J2VwaWtfcHl0aG9uJywgJy1waHQnLCAnMi4wJywgJy1waCcsICc3LjAnLCAnLXRuJywgJzgnLCAnLW1hJywgJzIwMCcsICctaW1hZScsICc8aW5maWxlLm1hZT4nLCAnLW9tYWUnLCAnPG91dGZpbGUubWFlPic=

>  <r_epik_Ionization_Penalty>  (269) 
2.46489

>  <r_epik_Ionization_Penalty_Charging>  (269) 
2.46489

>  <r_epik_Ionization_Penalty_Neutral>  (269) 
0

>  <r_epik_State_Penalty>  (269) 
2.02608

>  <r_epik_Charging_Adjusted_Penalty>  (269) 
4.49097

>  <i_epik_Tot_Q>  (269) 
2

>  <i_epik_Tot_abs_Q>  (269) 
2

>  <s_lp_Force_Field>  (269) 
OPLS3e

>  <r_lp_Energy>  (269) 
332.112

>  <b_lp_Chiralities_Consistent>  (269) 
1

>  <s_lp_Variant>  (269) 
91:0-3

>  <s_i_glide_gridfile>  (269) 
pfpi4k_grid

>  <i_i_glide_lignum>  (269) 
10

>  <i_i_glide_rotatable_bonds>  (269) 
0

>  <r_i_docking_score>  (269) 
-3.97062

>  <r_i_glide_ligand_efficiency>  (269) 
-0.165442

>  <r_i_glide_ligand_efficiency_sa>  (269) 
-0.477218

>  <r_i_glide_ligand_efficiency_ln>  (269) 
-0.950351

>  <r_i_glide_gscore>  (269) 
-3.97062

>  <r_i_glide_lipo>  (269) 
-0.763016

>  <r_i_glide_hbond>  (269) 
0

>  <r_i_glide_metal>  (269) 
-0

>  <r_i_glide_rewards>  (269) 
-1.21032

>  <r_i_glide_evdw>  (269) 
-14.5203

>  <r_i_glide_ecoul>  (269) 
-8.28349

>  <r_i_glide_erotb>  (269) 
0

>  <r_i_glide_esite>  (269) 
-0.0287473

>  <r_i_glide_emodel>  (269) 
-28.7236

>  <r_i_glide_energy>  (269) 
-22.8038

>  <r_i_glide_einternal>  (269) 
0

>  <r_i_glide_intrahb_reward>  (269) 
-0

>  <i_i_glide_confnum>  (269) 
1

>  <i_i_glide_posenum>  (269) 
1

>  <r_i_glide_eff_state_penalty>  (269) 
0

>  <ligand_id>  (269) 
91

>  <original_smiles>  (269) 
CN1CCC23C4C5C6CC7CC8C(C7C=CC12)C(C64)C1(CCN13)C85

>  <smiles>  (269) 
[H]C1=C([H])C2([H])C3(C([H])([H])C([H])([H])[N+]2([H])C([H])([H])[H])C2([H])C4([H])C5([H])C([H])([H])C6([H])C([H])([H])C7([H])C([H])(C16[H])C([H])(C52[H])C1(C([H])([H])C([H])([H])[N+]13[H])C74[H]

$$$$
91:2:1
     RDKit          3D

 54 62  0  0  1  0  0  0  0  0999 V2000
    1.9079   -3.4271   -2.6500 C   0  0  0  0  0  0  0  0  0  0  0  0
    3.1792   -3.4497   -1.8954 N   0  0  1  0  0  0  0  0  0  0  0  0
    4.1117   -2.3976   -2.3448 C   0  0  0  0  0  0  0  0  0  0  0  0
    4.0930   -1.2774   -1.2948 C   0  0  0  0  0  0  0  0  0  0  0  0
    4.0174   -2.0209    0.0372 C   0  0  2  0  0  0  0  0  0  0  0  0
    5.4342   -2.3971    0.5662 C   0  0  1  0  0  0  0  0  0  0  0  0
    6.0747   -2.2805    2.0669 C   0  0  2  0  0  0  0  0  0  0  0  0
    6.4274   -3.7534    1.7808 C   0  0  1  0  0  0  0  0  0  0  0  0
    6.5177   -5.0697    2.5511 C   0  0  0  0  0  0  0  0  0  0  0  0
    5.3088   -5.4262    3.4199 C   0  0  1  0  0  0  0  0  0  0  0  0
    5.4492   -4.4129    4.5907 C   0  0  0  0  0  0  0  0  0  0  0  0
    4.6248   -3.1836    4.2067 C   0  0  2  0  0  0  0  0  0  0  0  0
    3.5237   -3.9059    3.4265 C   0  0  2  0  0  0  0  0  0  0  0  0
    3.8053   -5.2971    2.8826 C   0  0  1  0  0  0  0  0  0  0  0  0
    3.2193   -5.6200    1.3846 C   0  0  0  0  0  0  0  0  0  0  0  0
    2.8671   -4.8846    0.2092 C   0  0  0  0  0  0  0  0  0  0  0  0
    3.0145   -3.3453   -0.4125 C   0  0  2  0  0  0  0  0  0  0  0  0
    3.6729   -3.1754    2.2237 C   0  0  2  0  0  0  0  0  0  0  0  0
    5.0304   -3.5861    1.2726 C   0  0  1  0  0  0  0  0  0  0  0  0
    3.7665   -1.7483    2.5179 C   0  0  2  0  0  0  0  0  0  0  0  0
    2.5828   -0.9391    3.0039 C   0  0  0  0  0  0  0  0  0  0  0  0
    2.2769   -0.6964    1.5223 C   0  0  0  0  0  0  0  0  0  0  0  0
    3.6513   -1.0887    1.1966 N   0  0  2  0  0  0  0  0  0  0  0  0
    5.0851   -1.9553    3.2536 C   0  0  2  0  0  0  0  0  0  0  0  0
    1.4277   -2.4500   -2.5631 H   0  0  0  0  0  0  0  0  0  0  0  0
    1.2336   -4.1937   -2.2760 H   0  0  0  0  0  0  0  0  0  0  0  0
    2.0663   -3.6074   -3.7143 H   0  0  0  0  0  0  0  0  0  0  0  0
    5.0976   -2.8493   -2.4061 H   0  0  0  0  0  0  0  0  0  0  0  0
    3.8732   -2.0286   -3.3453 H   0  0  0  0  0  0  0  0  0  0  0  0
    4.9555   -0.6197   -1.3926 H   0  0  0  0  0  0  0  0  0  0  0  0
    3.1987   -0.6711   -1.4468 H   0  0  0  0  0  0  0  0  0  0  0  0
    6.1701   -2.5509   -0.2249 H   0  0  0  0  0  0  0  0  0  0  0  0
    6.9450   -1.6339    2.0235 H   0  0  0  0  0  0  0  0  0  0  0  0
    7.2156   -3.7752    1.0242 H   0  0  0  0  0  0  0  0  0  0  0  0
    6.6319   -5.8841    1.8330 H   0  0  0  0  0  0  0  0  0  0  0  0
    7.4379   -5.1250    3.1297 H   0  0  0  0  0  0  0  0  0  0  0  0
    5.4649   -6.4336    3.8044 H   0  0  0  0  0  0  0  0  0  0  0  0
    4.9930   -4.8546    5.4784 H   0  0  0  0  0  0  0  0  0  0  0  0
    6.4656   -4.1732    4.8953 H   0  0  0  0  0  0  0  0  0  0  0  0
    4.1930   -2.7516    5.1103 H   0  0  0  0  0  0  0  0  0  0  0  0
    2.5331   -3.7953    3.8695 H   0  0  0  0  0  0  0  0  0  0  0  0
    3.2256   -5.9566    3.5238 H   0  0  0  0  0  0  0  0  0  0  0  0
    2.9608   -6.6648    1.3167 H   0  0  0  0  0  0  0  0  0  0  0  0
    2.4066   -5.5260   -0.5225 H   0  0  0  0  0  0  0  0  0  0  0  0
    2.0040   -2.9572   -0.2816 H   0  0  0  0  0  0  0  0  0  0  0  0
    2.6537   -3.2600    1.8584 H   0  0  0  0  0  0  0  0  0  0  0  0
    5.0655   -4.3937    0.5539 H   0  0  0  0  0  0  0  0  0  0  0  0
    1.8278   -1.5371    3.5144 H   0  0  0  0  0  0  0  0  0  0  0  0
    2.8698   -0.0439    3.5569 H   0  0  0  0  0  0  0  0  0  0  0  0
    1.5059   -1.3884    1.1963 H   0  0  0  0  0  0  0  0  0  0  0  0
    2.0482    0.3449    1.2885 H   0  0  0  0  0  0  0  0  0  0  0  0
    5.4022   -1.0815    3.8209 H   0  0  0  0  0  0  0  0  0  0  0  0
    4.2362   -0.2629    1.1872 H   0  0  0  0  0  0  0  0  0  0  0  0
    3.5709   -4.3671   -2.1086 H   0  0  0  0  0  0  0  0  0  0  0  0
  1  2  1  0
  1 25  1  0
  1 26  1  0
  1 27  1  0
  2 17  1  0
  2  3  1  0
  2 54  1  1
  3  4  1  0
  3 28  1  0
  3 29  1  0
  5  4  1  6
  4 30  1  0
  4 31  1  0
  5 17  1  0
  5 23  1  0
  5  6  1  0
  6 19  1  0
  6  7  1  0
  6 32  1  6
  7 24  1  0
  7  8  1  0
  7 33  1  6
  8 19  1  0
  8  9  1  0
  8 34  1  6
  9 10  1  0
  9 35  1  0
  9 36  1  0
 10 14  1  0
 10 11  1  0
 10 37  1  1
 11 12  1  0
 11 38  1  0
 11 39  1  0
 12 24  1  0
 12 13  1  0
 12 40  1  1
 13 14  1  0
 13 18  1  0
 13 41  1  1
 14 15  1  0
 14 42  1  1
 15 16  2  3
 15 43  1  0
 16 17  1  0
 16 44  1  0
 17 45  1  6
 18 19  1  0
 18 20  1  0
 18 46  1  6
 19 47  1  6
 20 23  1  0
 20 21  1  1
 20 24  1  0
 21 22  1  0
 21 48  1  0
 21 49  1  0
 22 23  1  0
 22 50  1  0
 22 51  1  0
 23 53  1  1
 24 52  1  1
M  CHG  2   2   1  23   1
M  END
>  <i_m_ct_stereo_status>  (270) 
1

>  <s_m_source_file>  (270) 
/var/tmp/pbs.5076255.sched01/tmpua_2_py4/114lbcpx7pn.sdf

>  <i_m_source_file_index>  (270) 
10

>  <i_lp_mmshare_version>  (270) 
48012

>  <i_f3d_flags>  (270) 
0

>  <s_epik_input>  (270) 
W0NIMl0xW0NIMl1OKFtDSDNdKVtDQEhdMlxbQ0hdPVtDSF1cW0NAQEhdKFtDQEBIXShbQ0gyXTMpW0NIMl00KVtDQEhdNVtDQEBIXTRbQ0BASF02W0NAQF03KE44W0NIMl1bQ0gyXTcpW0NASF01W0NAQEhdOVtDQEhdM1tDQEhdNltDQEBIXTlbQ0BAXTEyOA==

>  <s_epik_cmdline>  (270) 
J2VwaWtfcHl0aG9uJywgJy1waHQnLCAnMi4wJywgJy1waCcsICc3LjAnLCAnLXRuJywgJzgnLCAnLW1hJywgJzIwMCcsICctaW1hZScsICc8aW5maWxlLm1hZT4nLCAnLW9tYWUnLCAnPG91dGZpbGUubWFlPic=

>  <r_epik_Ionization_Penalty>  (270) 
2.46489

>  <r_epik_Ionization_Penalty_Charging>  (270) 
2.46489

>  <r_epik_Ionization_Penalty_Neutral>  (270) 
0

>  <r_epik_State_Penalty>  (270) 
2.02608

>  <r_epik_Charging_Adjusted_Penalty>  (270) 
4.49097

>  <i_epik_Tot_Q>  (270) 
2

>  <i_epik_Tot_abs_Q>  (270) 
2

>  <s_lp_Force_Field>  (270) 
OPLS3e

>  <r_lp_Energy>  (270) 
332.112

>  <b_lp_Chiralities_Consistent>  (270) 
1

>  <s_lp_Variant>  (270) 
91:0-3

>  <s_i_glide_gridfile>  (270) 
pfpi4k_grid

>  <i_i_glide_lignum>  (270) 
10

>  <i_i_glide_rotatable_bonds>  (270) 
0

>  <r_i_docking_score>  (270) 
-3.71985

>  <r_i_glide_ligand_efficiency>  (270) 
-0.154994

>  <r_i_glide_ligand_efficiency_sa>  (270) 
-0.44708

>  <r_i_glide_ligand_efficiency_ln>  (270) 
-0.890332

>  <r_i_glide_gscore>  (270) 
-3.71985

>  <r_i_glide_lipo>  (270) 
-0.609686

>  <r_i_glide_hbond>  (270) 
0

>  <r_i_glide_metal>  (270) 
-0

>  <r_i_glide_rewards>  (270) 
-1.21032

>  <r_i_glide_evdw>  (270) 
-11.6281

>  <r_i_glide_ecoul>  (270) 
-8.65037

>  <r_i_glide_erotb>  (270) 
0

>  <r_i_glide_esite>  (270) 
-0.0208911

>  <r_i_glide_emodel>  (270) 
-25.7673

>  <r_i_glide_energy>  (270) 
-20.2785

>  <r_i_glide_einternal>  (270) 
0

>  <r_i_glide_intrahb_reward>  (270) 
-0

>  <i_i_glide_confnum>  (270) 
1

>  <i_i_glide_posenum>  (270) 
4

>  <r_i_glide_eff_state_penalty>  (270) 
0

>  <ligand_id>  (270) 
91

>  <original_smiles>  (270) 
CN1CCC23C4C5C6CC7CC8C(C7C=CC12)C(C64)C1(CCN13)C85

>  <smiles>  (270) 
[H]C1=C([H])C2([H])C3(C([H])([H])C([H])([H])[N+]2([H])C([H])([H])[H])C2([H])C4([H])C5([H])C([H])([H])C6([H])C([H])([H])C7([H])C([H])(C16[H])C([H])(C52[H])C1(C([H])([H])C([H])([H])[N+]13[H])C74[H]

$$$$
91:2:2
     RDKit          3D

 54 62  0  0  1  0  0  0  0  0999 V2000
    2.1812   -2.6951   -2.9275 C   0  0  0  0  0  0  0  0  0  0  0  0
    3.2053   -3.4579   -2.1729 N   0  0  1  0  0  0  0  0  0  0  0  0
    4.5773   -2.9864   -2.4455 C   0  0  0  0  0  0  0  0  0  0  0  0
    5.0364   -2.1754   -1.2228 C   0  0  0  0  0  0  0  0  0  0  0  0
    4.4879   -2.9603   -0.0273 C   0  0  2  0  0  0  0  0  0  0  0  0
    5.4845   -4.0742    0.4319 C   0  0  1  0  0  0  0  0  0  0  0  0
    5.9639   -4.5177    1.9435 C   0  0  2  0  0  0  0  0  0  0  0  0
    5.5571   -5.9069    1.4099 C   0  0  1  0  0  0  0  0  0  0  0  0
    4.9241   -7.1802    1.9554 C   0  0  0  0  0  0  0  0  0  0  0  0
    3.6228   -7.0009    2.7438 C   0  0  1  0  0  0  0  0  0  0  0  0
    4.1488   -6.3720    4.0665 C   0  0  0  0  0  0  0  0  0  0  0  0
    4.0723   -4.8542    3.8910 C   0  0  2  0  0  0  0  0  0  0  0  0
    2.8303   -4.8071    2.9962 C   0  0  2  0  0  0  0  0  0  0  0  0
    2.4325   -6.0595    2.2369 C   0  0  1  0  0  0  0  0  0  0  0  0
    1.8972   -5.8284    0.6975 C   0  0  0  0  0  0  0  0  0  0  0  0
    2.0614   -4.8483   -0.3197 C   0  0  0  0  0  0  0  0  0  0  0  0
    2.9992   -3.5122   -0.6972 C   0  0  2  0  0  0  0  0  0  0  0  0
    3.4324   -4.0859    1.9324 C   0  0  2  0  0  0  0  0  0  0  0  0
    4.4814   -4.9859    0.9283 C   0  0  1  0  0  0  0  0  0  0  0  0
    4.1859   -2.9556    2.4580 C   0  0  2  0  0  0  0  0  0  0  0  0
    3.5139   -1.7394    3.0570 C   0  0  0  0  0  0  0  0  0  0  0  0
    3.5039   -1.1586    1.6287 C   0  0  0  0  0  0  0  0  0  0  0  0
    4.5326   -2.1494    1.2587 N   0  0  2  0  0  0  0  0  0  0  0  0
    5.1603   -3.9025    3.1543 C   0  0  2  0  0  0  0  0  0  0  0  0
    2.2278   -1.6271   -2.6839 H   0  0  0  0  0  0  0  0  0  0  0  0
    1.1740   -3.0563   -2.7155 H   0  0  0  0  0  0  0  0  0  0  0  0
    2.3336   -2.7852   -4.0046 H   0  0  0  0  0  0  0  0  0  0  0  0
    5.2113   -3.8645   -2.5735 H   0  0  0  0  0  0  0  0  0  0  0  0
    4.6516   -2.4125   -3.3730 H   0  0  0  0  0  0  0  0  0  0  0  0
    6.1187   -2.0474   -1.2056 H   0  0  0  0  0  0  0  0  0  0  0  0
    4.5846   -1.1821   -1.2662 H   0  0  0  0  0  0  0  0  0  0  0  0
    6.1134   -4.4620   -0.3754 H   0  0  0  0  0  0  0  0  0  0  0  0
    7.0451   -4.4480    2.0528 H   0  0  0  0  0  0  0  0  0  0  0  0
    6.2939   -6.2191    0.6635 H   0  0  0  0  0  0  0  0  0  0  0  0
    4.6826   -7.8280    1.1129 H   0  0  0  0  0  0  0  0  0  0  0  0
    5.6513   -7.7542    2.5300 H   0  0  0  0  0  0  0  0  0  0  0  0
    3.2246   -7.9957    2.9516 H   0  0  0  0  0  0  0  0  0  0  0  0
    3.4589   -6.6500    4.8655 H   0  0  0  0  0  0  0  0  0  0  0  0
    5.1313   -6.7087    4.3980 H   0  0  0  0  0  0  0  0  0  0  0  0
    3.8333   -4.3982    4.8520 H   0  0  0  0  0  0  0  0  0  0  0  0
    1.9898   -4.2744    3.4474 H   0  0  0  0  0  0  0  0  0  0  0  0
    1.5458   -6.4226    2.7577 H   0  0  0  0  0  0  0  0  0  0  0  0
    1.1693   -6.5858    0.4605 H   0  0  0  0  0  0  0  0  0  0  0  0
    1.4140   -5.0608   -1.1722 H   0  0  0  0  0  0  0  0  0  0  0  0
    2.3066   -2.6910   -0.5049 H   0  0  0  0  0  0  0  0  0  0  0  0
    2.5408   -3.5895    1.5616 H   0  0  0  0  0  0  0  0  0  0  0  0
    4.1713   -5.5876    0.0816 H   0  0  0  0  0  0  0  0  0  0  0  0
    2.5257   -1.9453    3.4701 H   0  0  0  0  0  0  0  0  0  0  0  0
    4.1587   -1.2048    3.7572 H   0  0  0  0  0  0  0  0  0  0  0  0
    2.5455   -1.2703    1.1200 H   0  0  0  0  0  0  0  0  0  0  0  0
    3.8645   -0.1293    1.5960 H   0  0  0  0  0  0  0  0  0  0  0  0
    5.8087   -3.3992    3.8637 H   0  0  0  0  0  0  0  0  0  0  0  0
    5.4491   -1.7433    1.3927 H   0  0  0  0  0  0  0  0  0  0  0  0
    3.1436   -4.4238   -2.5106 H   0  0  0  0  0  0  0  0  0  0  0  0
  1  2  1  0
  1 25  1  0
  1 26  1  0
  1 27  1  0
  2 17  1  0
  2  3  1  0
  2 54  1  6
  3  4  1  0
  3 28  1  0
  3 29  1  0
  5  4  1  6
  4 30  1  0
  4 31  1  0
  5 17  1  0
  5 23  1  0
  5  6  1  0
  6 19  1  0
  6  7  1  0
  6 32  1  6
  7 24  1  0
  7  8  1  0
  7 33  1  1
  8 19  1  0
  8  9  1  0
  8 34  1  6
  9 10  1  0
  9 35  1  0
  9 36  1  0
 10 14  1  0
 10 11  1  0
 10 37  1  1
 11 12  1  0
 11 38  1  0
 11 39  1  0
 12 24  1  0
 12 13  1  0
 12 40  1  1
 13 14  1  0
 13 18  1  0
 13 41  1  1
 14 15  1  0
 14 42  1  1
 15 16  2  3
 15 43  1  0
 16 17  1  0
 16 44  1  0
 17 45  1  6
 18 19  1  0
 18 20  1  0
 18 46  1  6
 19 47  1  6
 20 23  1  0
 20 21  1  1
 20 24  1  0
 21 22  1  0
 21 48  1  0
 21 49  1  0
 22 23  1  0
 22 50  1  0
 22 51  1  0
 23 53  1  1
 24 52  1  1
M  CHG  2   2   1  23   1
M  END
>  <i_m_ct_stereo_status>  (271) 
1

>  <s_m_source_file>  (271) 
/var/tmp/pbs.5076255.sched01/tmpua_2_py4/114lbcpx7pn.sdf

>  <i_m_source_file_index>  (271) 
10

>  <i_lp_mmshare_version>  (271) 
48012

>  <i_f3d_flags>  (271) 
0

>  <s_epik_input>  (271) 
W0NIMl0xW0NIMl1OKFtDSDNdKVtDQEhdMlxbQ0hdPVtDSF1cW0NAQEhdKFtDQEBIXShbQ0gyXTMpW0NIMl00KVtDQEhdNVtDQEBIXTRbQ0BASF02W0NAQF03KE44W0NIMl1bQ0gyXTcpW0NASF01W0NAQEhdOVtDQEhdM1tDQEhdNltDQEBIXTlbQ0BAXTEyOA==

>  <s_epik_cmdline>  (271) 
J2VwaWtfcHl0aG9uJywgJy1waHQnLCAnMi4wJywgJy1waCcsICc3LjAnLCAnLXRuJywgJzgnLCAnLW1hJywgJzIwMCcsICctaW1hZScsICc8aW5maWxlLm1hZT4nLCAnLW9tYWUnLCAnPG91dGZpbGUubWFlPic=

>  <r_epik_Ionization_Penalty>  (271) 
2.46489

>  <r_epik_Ionization_Penalty_Charging>  (271) 
2.46489

>  <r_epik_Ionization_Penalty_Neutral>  (271) 
0

>  <r_epik_State_Penalty>  (271) 
2.02608

>  <r_epik_Charging_Adjusted_Penalty>  (271) 
4.49097

>  <i_epik_Tot_Q>  (271) 
2

>  <i_epik_Tot_abs_Q>  (271) 
2

>  <s_lp_Force_Field>  (271) 
OPLS3e

>  <r_lp_Energy>  (271) 
332.112

>  <b_lp_Chiralities_Consistent>  (271) 
1

>  <s_lp_Variant>  (271) 
91:0-3

>  <s_i_glide_gridfile>  (271) 
pfpi4k_grid

>  <i_i_glide_lignum>  (271) 
10

>  <i_i_glide_rotatable_bonds>  (271) 
0

>  <r_i_docking_score>  (271) 
-3.55514

>  <r_i_glide_ligand_efficiency>  (271) 
-0.148131

>  <r_i_glide_ligand_efficiency_sa>  (271) 
-0.427283

>  <r_i_glide_ligand_efficiency_ln>  (271) 
-0.850908

>  <r_i_glide_gscore>  (271) 
-3.55514

>  <r_i_glide_lipo>  (271) 
-0.425834

>  <r_i_glide_hbond>  (271) 
0

>  <r_i_glide_metal>  (271) 
-0

>  <r_i_glide_rewards>  (271) 
-1.21032

>  <r_i_glide_evdw>  (271) 
-13.8937

>  <r_i_glide_ecoul>  (271) 
-8.10124

>  <r_i_glide_erotb>  (271) 
0

>  <r_i_glide_esite>  (271) 
-0.00912307

>  <r_i_glide_emodel>  (271) 
-27.2687

>  <r_i_glide_energy>  (271) 
-21.9949

>  <r_i_glide_einternal>  (271) 
0

>  <r_i_glide_intrahb_reward>  (271) 
-0

>  <i_i_glide_confnum>  (271) 
2

>  <i_i_glide_posenum>  (271) 
20

>  <r_i_glide_eff_state_penalty>  (271) 
0

>  <ligand_id>  (271) 
91

>  <original_smiles>  (271) 
CN1CCC23C4C5C6CC7CC8C(C7C=CC12)C(C64)C1(CCN13)C85

>  <smiles>  (271) 
[H]C1=C([H])C2([H])C3(C([H])([H])C([H])([H])[N+]2([H])C([H])([H])[H])C2([H])C4([H])C5([H])C([H])([H])C6([H])C([H])([H])C7([H])C([H])(C16[H])C([H])(C52[H])C1(C([H])([H])C([H])([H])[N+]13[H])C74[H]

$$$$
93:0:0
     RDKit          3D

 70 74  0  0  1  0  0  0  0  0999 V2000
    2.9590   -3.8422    4.5500 C   0  0  0  0  0  0  0  0  0  0  0  0
    3.8288   -4.8141    3.7354 C   0  0  0  0  0  0  0  0  0  0  0  0
    3.3733   -5.9925    3.2176 C   0  0  0  0  0  0  0  0  0  0  0  0
    1.8865   -6.4225    3.2661 C   0  0  1  0  0  0  0  0  0  0  0  0
    1.2873   -6.4773    1.9901 O   0  0  0  0  0  0  0  0  0  0  0  0
    1.7968   -7.7973    3.9304 C   0  0  2  0  0  0  0  0  0  0  0  0
    2.5656   -8.8158    3.0657 C   0  0  1  0  0  0  0  0  0  0  0  0
    4.0624   -8.5182    3.2023 C   0  0  0  0  0  0  0  0  0  0  0  0
    4.3706   -7.0770    2.6739 C   0  0  1  0  0  0  0  0  0  0  0  0
    4.2375   -7.1315    1.2634 O   0  0  0  0  0  0  0  0  0  0  0  0
    5.8692   -6.7657    3.0168 C   0  0  1  0  0  0  0  0  0  0  0  0
    6.7664   -7.5839    2.2735 O   0  0  0  0  0  0  0  0  0  0  0  0
    6.2125   -5.3078    2.7395 C   0  0  0  0  0  0  0  0  0  0  0  0
    5.3134   -4.3763    3.5961 C   0  0  1  0  0  0  0  0  0  0  0  0
    5.4926   -3.0180    3.1295 O   0  0  0  0  0  0  0  0  0  0  0  0
    4.6988   -2.5766    2.0416 C   0  0  2  0  0  0  0  0  0  0  0  0
    4.9427   -3.3448    0.8830 O   0  0  0  0  0  0  0  0  0  0  0  0
    4.0389   -3.1167   -0.2052 C   0  0  1  0  0  0  0  0  0  0  0  0
    2.5684   -3.5355    0.1112 C   0  0  0  0  0  0  0  0  0  0  0  0
    2.4710   -4.9338    0.2354 O   0  0  0  0  0  0  0  0  0  0  0  0
    4.2359   -1.6498   -0.6387 C   0  0  1  0  0  0  0  0  0  0  0  0
    3.4550   -1.3019   -1.7748 O   0  0  0  0  0  0  0  0  0  0  0  0
    4.0245   -0.6465    0.5244 C   0  0  1  0  0  0  0  0  0  0  0  0
    2.6364   -0.6290    0.9357 O   0  0  0  0  0  0  0  0  0  0  0  0
    4.9299   -1.0677    1.7220 C   0  0  1  0  0  0  0  0  0  0  0  0
    4.6098   -0.3183    2.8921 O   0  0  0  0  0  0  0  0  0  0  0  0
    2.0501  -10.2194    3.4657 C   0  0  2  0  0  0  0  0  0  0  0  0
    2.9018  -11.2371    3.0097 O   0  0  0  0  0  0  0  0  0  0  0  0
    0.6511  -10.3857    2.7939 C   0  0  0  0  0  0  0  0  0  0  0  0
   -0.2328   -9.1659    3.1471 C   0  0  0  0  0  0  0  0  0  0  0  0
    0.4134   -8.3771    4.3140 C   0  0  2  0  0  0  0  0  0  0  0  0
   -0.5479   -7.3089    4.8712 C   0  0  0  0  0  0  0  0  0  0  0  0
    0.7876   -9.4435    5.3694 C   0  0  0  0  0  0  0  0  0  0  0  0
    1.8722  -10.2550    4.8666 O   0  0  0  0  0  0  0  0  0  0  0  0
    3.5541   -3.4113    5.3605 H   0  0  0  0  0  0  0  0  0  0  0  0
    2.1183   -4.3057    5.0895 H   0  0  0  0  0  0  0  0  0  0  0  0
    2.5916   -3.0248    3.9410 H   0  0  0  0  0  0  0  0  0  0  0  0
    1.2885   -5.7081    3.8294 H   0  0  0  0  0  0  0  0  0  0  0  0
    1.8415   -7.0216    1.4395 H   0  0  0  0  0  0  0  0  0  0  0  0
    2.3303   -7.6689    4.8831 H   0  0  0  0  0  0  0  0  0  0  0  0
    2.3387   -8.7367    1.9986 H   0  0  0  0  0  0  0  0  0  0  0  0
    4.3528   -8.5974    4.2519 H   0  0  0  0  0  0  0  0  0  0  0  0
    4.6628   -9.2657    2.6677 H   0  0  0  0  0  0  0  0  0  0  0  0
    4.7656   -7.8650    0.9499 H   0  0  0  0  0  0  0  0  0  0  0  0
    6.0620   -6.9559    4.0797 H   0  0  0  0  0  0  0  0  0  0  0  0
    7.6599   -7.3971    2.5474 H   0  0  0  0  0  0  0  0  0  0  0  0
    7.2660   -5.0824    2.9618 H   0  0  0  0  0  0  0  0  0  0  0  0
    6.1134   -5.1568    1.6631 H   0  0  0  0  0  0  0  0  0  0  0  0
    5.7224   -4.4416    4.6132 H   0  0  0  0  0  0  0  0  0  0  0  0
    3.6575   -2.7383    2.3266 H   0  0  0  0  0  0  0  0  0  0  0  0
    4.3714   -3.7280   -1.0340 H   0  0  0  0  0  0  0  0  0  0  0  0
    2.1644   -3.0974    1.0224 H   0  0  0  0  0  0  0  0  0  0  0  0
    1.9072   -3.2137   -0.7013 H   0  0  0  0  0  0  0  0  0  0  0  0
    2.9728   -5.2003    1.0027 H   0  0  0  0  0  0  0  0  0  0  0  0
    5.2742   -1.5784   -0.9454 H   0  0  0  0  0  0  0  0  0  0  0  0
    2.5075   -1.4432   -1.5694 H   0  0  0  0  0  0  0  0  0  0  0  0
    4.3525    0.3443    0.1692 H   0  0  0  0  0  0  0  0  0  0  0  0
    2.0098   -0.5635    0.1736 H   0  0  0  0  0  0  0  0  0  0  0  0
    5.9862   -0.8679    1.4938 H   0  0  0  0  0  0  0  0  0  0  0  0
    4.4888    0.6212    2.6899 H   0  0  0  0  0  0  0  0  0  0  0  0
    3.7678  -11.0691    3.3578 H   0  0  0  0  0  0  0  0  0  0  0  0
    0.7591  -10.4388    1.7091 H   0  0  0  0  0  0  0  0  0  0  0  0
    0.2120  -11.3189    3.1393 H   0  0  0  0  0  0  0  0  0  0  0  0
   -0.3881   -8.5361    2.2699 H   0  0  0  0  0  0  0  0  0  0  0  0
   -1.2264   -9.5168    3.4333 H   0  0  0  0  0  0  0  0  0  0  0  0
   -1.4459   -7.7873    5.2634 H   0  0  0  0  0  0  0  0  0  0  0  0
   -0.8604   -6.6050    4.0929 H   0  0  0  0  0  0  0  0  0  0  0  0
   -0.0793   -6.7375    5.6780 H   0  0  0  0  0  0  0  0  0  0  0  0
    1.1233   -8.9723    6.2940 H   0  0  0  0  0  0  0  0  0  0  0  0
   -0.0788  -10.0577    5.6209 H   0  0  0  0  0  0  0  0  0  0  0  0
  1  2  1  0
  1 35  1  0
  1 36  1  0
  1 37  1  0
  2 14  1  0
  2  3  2  0
  3  9  1  0
  3  4  1  0
  4  5  1  0
  4  6  1  0
  4 38  1  1
  5 39  1  0
  6 31  1  0
  6  7  1  0
  6 40  1  1
  7  8  1  0
  7 27  1  0
  7 41  1  6
  8  9  1  0
  8 42  1  0
  8 43  1  0
  9 10  1  6
  9 11  1  0
 10 44  1  0
 11 12  1  0
 11 13  1  0
 11 45  1  1
 12 46  1  0
 13 14  1  0
 13 47  1  0
 13 48  1  0
 14 15  1  0
 14 49  1  1
 15 16  1  0
 16 25  1  0
 16 17  1  0
 16 50  1  1
 17 18  1  0
 18 19  1  0
 18 21  1  0
 18 51  1  6
 19 20  1  0
 19 52  1  0
 19 53  1  0
 20 54  1  0
 21 22  1  0
 21 23  1  0
 21 55  1  6
 22 56  1  0
 23 24  1  0
 23 25  1  0
 23 57  1  6
 24 58  1  0
 25 26  1  0
 25 59  1  6
 26 60  1  0
 27 34  1  0
 27 28  1  6
 27 29  1  0
 28 61  1  0
 29 30  1  0
 29 62  1  0
 29 63  1  0
 30 31  1  0
 30 64  1  0
 30 65  1  0
 31 32  1  1
 31 33  1  0
 32 66  1  0
 32 67  1  0
 32 68  1  0
 33 34  1  0
 33 69  1  0
 33 70  1  0
M  END
>  <i_m_ct_stereo_status>  (272) 
1

>  <s_m_source_file>  (272) 
/var/tmp/pbs.5076255.sched01/tmpua_2_py4/114lbcpx7pn.sdf

>  <i_m_source_file_index>  (272) 
12

>  <i_lp_mmshare_version>  (272) 
48012

>  <i_f3d_flags>  (272) 
0

>  <s_epik_input>  (272) 
W09IXVtDQEBIXTFbQ0BIXShbT0hdKVtDQEhdKFtPSF0pW0NASF0oW0NIMl1bT0hdKU9bQ0BIXTFPW0NASF0oW0NIMl1bQ0BASF0yW09IXSlDKFtDSDNdKT1DKFtDQEBdMjNbT0hdKVtDQEBIXShbT0hdKVtDQEBIXTRbQ0BASF0oW0NIMl0zKVtDQF01KFtPSF0pW0NIMl1bQ0gyXVtDQEBdNChbQ0gzXSlbQ0gyXU81

>  <s_epik_cmdline>  (272) 
J2VwaWtfcHl0aG9uJywgJy1waHQnLCAnMi4wJywgJy1waCcsICc3LjAnLCAnLXRuJywgJzgnLCAnLW1hJywgJzIwMCcsICctaW1hZScsICc8aW5maWxlLm1hZT4nLCAnLW9tYWUnLCAnPG91dGZpbGUubWFlPic=

>  <r_lp_tautomer_probability>  (272) 
1

>  <r_epik_Ionization_Penalty>  (272) 
3.08546e-06

>  <r_epik_Ionization_Penalty_Charging>  (272) 
0

>  <r_epik_Ionization_Penalty_Neutral>  (272) 
3.08546e-06

>  <r_epik_State_Penalty>  (272) 
-0

>  <r_epik_Charging_Adjusted_Penalty>  (272) 
0

>  <i_epik_Tot_Q>  (272) 
0

>  <i_epik_Tot_abs_Q>  (272) 
0

>  <s_epik_Chemistry_Notes>  (272) 
This compound contains an acetal/aminal-like group ( X-CH(R)-Y where X, Y are N, S, or O) that may be acid/base labile, releasing an aldehyde.

>  <s_lp_Force_Field>  (272) 
OPLS3e

>  <r_lp_Energy>  (272) 
56.8493

>  <b_lp_Chiralities_Consistent>  (272) 
1

>  <s_lp_Variant>  (272) 
93:0-1

>  <s_i_glide_gridfile>  (272) 
pfpi4k_grid

>  <i_i_glide_lignum>  (272) 
12

>  <i_i_glide_rotatable_bonds>  (272) 
11

>  <r_i_docking_score>  (272) 
-3.6496

>  <r_i_glide_ligand_efficiency>  (272) 
-0.107341

>  <r_i_glide_ligand_efficiency_sa>  (272) 
-0.347744

>  <r_i_glide_ligand_efficiency_ln>  (272) 
-0.8063

>  <r_i_glide_gscore>  (272) 
-3.6496

>  <r_i_glide_lipo>  (272) 
-0.334377

>  <r_i_glide_hbond>  (272) 
0

>  <r_i_glide_metal>  (272) 
-0

>  <r_i_glide_rewards>  (272) 
-1.16168

>  <r_i_glide_evdw>  (272) 
-23.8398

>  <r_i_glide_ecoul>  (272) 
-8.11466

>  <r_i_glide_erotb>  (272) 
0.255644

>  <r_i_glide_esite>  (272) 
0

>  <r_i_glide_emodel>  (272) 
-45.7778

>  <r_i_glide_energy>  (272) 
-31.9544

>  <r_i_glide_einternal>  (272) 
7.04328

>  <r_i_glide_intrahb_reward>  (272) 
-1

>  <i_i_glide_confnum>  (272) 
3

>  <i_i_glide_posenum>  (272) 
9

>  <r_i_glide_eff_state_penalty>  (272) 
0

>  <ligand_id>  (272) 
93

>  <original_smiles>  (272) 
CC1=C2C(O)C3C(CC2(O)C(O)CC1OC1OC(CO)C(O)C(O)C1O)C1(O)CCC3(C)CO1

>  <smiles>  (272) 
[H]OC([H])([H])C1([H])OC([H])(OC2([H])C(C([H])([H])[H])=C3C([H])(O[H])C4([H])C([H])(C([H])([H])C3(O[H])C([H])(O[H])C2([H])[H])C2(O[H])OC([H])([H])C4(C([H])([H])[H])C([H])([H])C2([H])[H])C([H])(O[H])C([H])(O[H])C1([H])O[H]

$$$$
93:0:1
     RDKit          3D

 70 74  0  0  1  0  0  0  0  0999 V2000
    3.4921   -3.5821    4.1117 C   0  0  0  0  0  0  0  0  0  0  0  0
    4.0856   -4.7502    3.2967 C   0  0  0  0  0  0  0  0  0  0  0  0
    3.3819   -5.8589    2.9274 C   0  0  0  0  0  0  0  0  0  0  0  0
    1.8569   -6.0250    3.1594 C   0  0  1  0  0  0  0  0  0  0  0  0
    1.1153   -6.0456    1.9540 O   0  0  0  0  0  0  0  0  0  0  0  0
    1.6344   -7.3256    3.9335 C   0  0  2  0  0  0  0  0  0  0  0  0
    2.1176   -8.5142    3.0640 C   0  0  1  0  0  0  0  0  0  0  0  0
    3.6479   -8.4559    2.9982 C   0  0  0  0  0  0  0  0  0  0  0  0
    4.1169   -7.1146    2.3318 C   0  0  1  0  0  0  0  0  0  0  0  0
    3.8108   -7.2155    0.9534 O   0  0  0  0  0  0  0  0  0  0  0  0
    5.6728   -7.0310    2.4577 C   0  0  1  0  0  0  0  0  0  0  0  0
    6.3290   -8.0236    1.6761 O   0  0  0  0  0  0  0  0  0  0  0  0
    6.1949   -5.6612    2.0414 C   0  0  0  0  0  0  0  0  0  0  0  0
    5.5838   -4.5668    2.9443 C   0  0  1  0  0  0  0  0  0  0  0  0
    5.8911   -3.2736    2.3638 O   0  0  0  0  0  0  0  0  0  0  0  0
    5.0024   -2.7622    1.3952 C   0  0  2  0  0  0  0  0  0  0  0  0
    5.0458   -3.5422    0.2029 O   0  0  0  0  0  0  0  0  0  0  0  0
    4.0233   -3.2268   -0.7670 C   0  0  1  0  0  0  0  0  0  0  0  0
    2.5725   -3.4865   -0.2241 C   0  0  0  0  0  0  0  0  0  0  0  0
    2.3246   -4.8526   -0.0095 O   0  0  0  0  0  0  0  0  0  0  0  0
    4.3021   -1.7879   -1.2309 C   0  0  1  0  0  0  0  0  0  0  0  0
    3.4008   -1.3468   -2.2405 O   0  0  0  0  0  0  0  0  0  0  0  0
    4.3631   -0.8079   -0.0485 C   0  0  1  0  0  0  0  0  0  0  0  0
    3.0330   -0.6737    0.5211 O   0  0  0  0  0  0  0  0  0  0  0  0
    5.3648   -1.2967    1.0377 C   0  0  1  0  0  0  0  0  0  0  0  0
    5.2713   -0.5176    2.2203 O   0  0  0  0  0  0  0  0  0  0  0  0
    1.4342   -9.7795    3.6306 C   0  0  2  0  0  0  0  0  0  0  0  0
    2.0515  -10.9491    3.1573 O   0  0  0  0  0  0  0  0  0  0  0  0
   -0.0429   -9.7501    3.1542 C   0  0  0  0  0  0  0  0  0  0  0  0
   -0.6730   -8.3787    3.5232 C   0  0  0  0  0  0  0  0  0  0  0  0
    0.2379   -7.6429    4.5388 C   0  0  2  0  0  0  0  0  0  0  0  0
   -0.4459   -6.3971    5.1332 C   0  0  0  0  0  0  0  0  0  0  0  0
    0.5793   -8.7012    5.6156 C   0  0  0  0  0  0  0  0  0  0  0  0
    1.4486   -9.7129    5.0431 O   0  0  0  0  0  0  0  0  0  0  0  0
    4.2462   -3.2224    4.8239 H   0  0  0  0  0  0  0  0  0  0  0  0
    2.6538   -3.8653    4.7702 H   0  0  0  0  0  0  0  0  0  0  0  0
    3.2175   -2.7854    3.4615 H   0  0  0  0  0  0  0  0  0  0  0  0
    1.4732   -5.1917    3.7279 H   0  0  0  0  0  0  0  0  0  0  0  0
    1.5328   -6.6828    1.3833 H   0  0  0  0  0  0  0  0  0  0  0  0
    2.3014   -7.2327    4.7982 H   0  0  0  0  0  0  0  0  0  0  0  0
    1.7625   -8.4403    2.0309 H   0  0  0  0  0  0  0  0  0  0  0  0
    4.0574   -8.5278    4.0076 H   0  0  0  0  0  0  0  0  0  0  0  0
    4.0424   -9.3212    2.4528 H   0  0  0  0  0  0  0  0  0  0  0  0
    4.2209   -8.0063    0.6243 H   0  0  0  0  0  0  0  0  0  0  0  0
    5.9719   -7.1977    3.4974 H   0  0  0  0  0  0  0  0  0  0  0  0
    7.2598   -7.9956    1.8609 H   0  0  0  0  0  0  0  0  0  0  0  0
    7.2892   -5.5980    2.1074 H   0  0  0  0  0  0  0  0  0  0  0  0
    5.9659   -5.5336    0.9793 H   0  0  0  0  0  0  0  0  0  0  0  0
    6.1146   -4.6580    3.8962 H   0  0  0  0  0  0  0  0  0  0  0  0
    4.0341   -2.7985    1.7965 H   0  0  0  0  0  0  0  0  0  0  0  0
    4.1788   -3.8786   -1.6258 H   0  0  0  0  0  0  0  0  0  0  0  0
    2.3394   -2.9536    0.7033 H   0  0  0  0  0  0  0  0  0  0  0  0
    1.8430   -3.1320   -0.9685 H   0  0  0  0  0  0  0  0  0  0  0  0
    2.9737   -5.1731    0.6541 H   0  0  0  0  0  0  0  0  0  0  0  0
    5.3051   -1.7998   -1.6695 H   0  0  0  0  0  0  0  0  0  0  0  0
    2.4923   -1.4308   -1.9045 H   0  0  0  0  0  0  0  0  0  0  0  0
    4.7151    0.1388   -0.4408 H   0  0  0  0  0  0  0  0  0  0  0  0
    2.3467   -0.5803   -0.1429 H   0  0  0  0  0  0  0  0  0  0  0  0
    6.3844   -1.1887    0.6493 H   0  0  0  0  0  0  0  0  0  0  0  0
    5.8980   -0.8251    2.8867 H   0  0  0  0  0  0  0  0  0  0  0  0
    2.9595  -10.9388    3.4187 H   0  0  0  0  0  0  0  0  0  0  0  0
   -0.0882   -9.9014    2.0826 H   0  0  0  0  0  0  0  0  0  0  0  0
   -0.5901  -10.5681    3.6246 H   0  0  0  0  0  0  0  0  0  0  0  0
   -0.8374   -7.7750    2.6264 H   0  0  0  0  0  0  0  0  0  0  0  0
   -1.6533   -8.5540    3.9585 H   0  0  0  0  0  0  0  0  0  0  0  0
   -1.3643   -6.6509    5.6659 H   0  0  0  0  0  0  0  0  0  0  0  0
   -0.7150   -5.6962    4.3387 H   0  0  0  0  0  0  0  0  0  0  0  0
    0.2191   -5.8758    5.8298 H   0  0  0  0  0  0  0  0  0  0  0  0
    1.1116   -8.2528    6.4509 H   0  0  0  0  0  0  0  0  0  0  0  0
   -0.3276   -9.1524    6.0132 H   0  0  0  0  0  0  0  0  0  0  0  0
  1  2  1  0
  1 35  1  0
  1 36  1  0
  1 37  1  0
  2 14  1  0
  2  3  2  0
  3  9  1  0
  3  4  1  0
  4  5  1  0
  4  6  1  0
  4 38  1  1
  5 39  1  0
  6 31  1  0
  6  7  1  0
  6 40  1  1
  7  8  1  0
  7 27  1  0
  7 41  1  6
  8  9  1  0
  8 42  1  0
  8 43  1  0
  9 10  1  6
  9 11  1  0
 10 44  1  0
 11 12  1  0
 11 13  1  0
 11 45  1  1
 12 46  1  0
 13 14  1  0
 13 47  1  0
 13 48  1  0
 14 15  1  0
 14 49  1  1
 15 16  1  0
 16 25  1  0
 16 17  1  0
 16 50  1  1
 17 18  1  0
 18 19  1  0
 18 21  1  0
 18 51  1  6
 19 20  1  0
 19 52  1  0
 19 53  1  0
 20 54  1  0
 21 22  1  0
 21 23  1  0
 21 55  1  6
 22 56  1  0
 23 24  1  0
 23 25  1  0
 23 57  1  6
 24 58  1  0
 25 26  1  0
 25 59  1  6
 26 60  1  0
 27 34  1  0
 27 28  1  1
 27 29  1  0
 28 61  1  0
 29 30  1  0
 29 62  1  0
 29 63  1  0
 30 31  1  0
 30 64  1  0
 30 65  1  0
 31 32  1  1
 31 33  1  0
 32 66  1  0
 32 67  1  0
 32 68  1  0
 33 34  1  0
 33 69  1  0
 33 70  1  0
M  END
>  <i_m_ct_stereo_status>  (273) 
1

>  <s_m_source_file>  (273) 
/var/tmp/pbs.5076255.sched01/tmpua_2_py4/114lbcpx7pn.sdf

>  <i_m_source_file_index>  (273) 
12

>  <i_lp_mmshare_version>  (273) 
48012

>  <i_f3d_flags>  (273) 
0

>  <s_epik_input>  (273) 
W09IXVtDQEBIXTFbQ0BIXShbT0hdKVtDQEhdKFtPSF0pW0NASF0oW0NIMl1bT0hdKU9bQ0BIXTFPW0NASF0oW0NIMl1bQ0BASF0yW09IXSlDKFtDSDNdKT1DKFtDQEBdMjNbT0hdKVtDQEBIXShbT0hdKVtDQEBIXTRbQ0BASF0oW0NIMl0zKVtDQF01KFtPSF0pW0NIMl1bQ0gyXVtDQEBdNChbQ0gzXSlbQ0gyXU81

>  <s_epik_cmdline>  (273) 
J2VwaWtfcHl0aG9uJywgJy1waHQnLCAnMi4wJywgJy1waCcsICc3LjAnLCAnLXRuJywgJzgnLCAnLW1hJywgJzIwMCcsICctaW1hZScsICc8aW5maWxlLm1hZT4nLCAnLW9tYWUnLCAnPG91dGZpbGUubWFlPic=

>  <r_lp_tautomer_probability>  (273) 
1

>  <r_epik_Ionization_Penalty>  (273) 
3.08546e-06

>  <r_epik_Ionization_Penalty_Charging>  (273) 
0

>  <r_epik_Ionization_Penalty_Neutral>  (273) 
3.08546e-06

>  <r_epik_State_Penalty>  (273) 
-0

>  <r_epik_Charging_Adjusted_Penalty>  (273) 
0

>  <i_epik_Tot_Q>  (273) 
0

>  <i_epik_Tot_abs_Q>  (273) 
0

>  <s_epik_Chemistry_Notes>  (273) 
This compound contains an acetal/aminal-like group ( X-CH(R)-Y where X, Y are N, S, or O) that may be acid/base labile, releasing an aldehyde.

>  <s_lp_Force_Field>  (273) 
OPLS3e

>  <r_lp_Energy>  (273) 
56.8493

>  <b_lp_Chiralities_Consistent>  (273) 
1

>  <s_lp_Variant>  (273) 
93:0-1

>  <s_i_glide_gridfile>  (273) 
pfpi4k_grid

>  <i_i_glide_lignum>  (273) 
12

>  <i_i_glide_rotatable_bonds>  (273) 
11

>  <r_i_docking_score>  (273) 
-3.25855

>  <r_i_glide_ligand_efficiency>  (273) 
-0.0958398

>  <r_i_glide_ligand_efficiency_sa>  (273) 
-0.310484

>  <r_i_glide_ligand_efficiency_ln>  (273) 
-0.719906

>  <r_i_glide_gscore>  (273) 
-3.25855

>  <r_i_glide_lipo>  (273) 
-0.20675

>  <r_i_glide_hbond>  (273) 
0

>  <r_i_glide_metal>  (273) 
-0

>  <r_i_glide_rewards>  (273) 
-1.126

>  <r_i_glide_evdw>  (273) 
-25.1199

>  <r_i_glide_ecoul>  (273) 
-7.44957

>  <r_i_glide_erotb>  (273) 
0.255644

>  <r_i_glide_esite>  (273) 
-0.000643438

>  <r_i_glide_emodel>  (273) 
-44.0697

>  <r_i_glide_energy>  (273) 
-32.5694

>  <r_i_glide_einternal>  (273) 
7.35517

>  <r_i_glide_intrahb_reward>  (273) 
-1

>  <i_i_glide_confnum>  (273) 
3

>  <i_i_glide_posenum>  (273) 
3

>  <r_i_glide_eff_state_penalty>  (273) 
0

>  <ligand_id>  (273) 
93

>  <original_smiles>  (273) 
CC1=C2C(O)C3C(CC2(O)C(O)CC1OC1OC(CO)C(O)C(O)C1O)C1(O)CCC3(C)CO1

>  <smiles>  (273) 
[H]OC([H])([H])C1([H])OC([H])(OC2([H])C(C([H])([H])[H])=C3C([H])(O[H])C4([H])C([H])(C([H])([H])C3(O[H])C([H])(O[H])C2([H])[H])C2(O[H])OC([H])([H])C4(C([H])([H])[H])C([H])([H])C2([H])[H])C([H])(O[H])C([H])(O[H])C1([H])O[H]

$$$$
93:0:2
     RDKit          3D

 70 74  0  0  1  0  0  0  0  0999 V2000
    3.7408   -3.8016    3.9036 C   0  0  0  0  0  0  0  0  0  0  0  0
    4.2765   -5.0069    3.1031 C   0  0  0  0  0  0  0  0  0  0  0  0
    3.5244   -6.1102    2.8146 C   0  0  0  0  0  0  0  0  0  0  0  0
    2.0035   -6.2212    3.0939 C   0  0  1  0  0  0  0  0  0  0  0  0
    1.2157   -6.2759    1.9248 O   0  0  0  0  0  0  0  0  0  0  0  0
    1.7579   -7.4837    3.9197 C   0  0  2  0  0  0  0  0  0  0  0  0
    2.1806   -8.7185    3.0886 C   0  0  1  0  0  0  0  0  0  0  0  0
    3.7078   -8.7204    2.9977 C   0  0  0  0  0  0  0  0  0  0  0  0
    4.1981   -7.4185    2.2716 C   0  0  1  0  0  0  0  0  0  0  0  0
    3.8435   -7.5640    0.8982 O   0  0  0  0  0  0  0  0  0  0  0  0
    5.7623   -7.4031    2.3623 C   0  0  1  0  0  0  0  0  0  0  0  0
    6.3314   -8.4459    1.5772 O   0  0  0  0  0  0  0  0  0  0  0  0
    6.3432   -6.0827    1.8706 C   0  0  0  0  0  0  0  0  0  0  0  0
    5.7804   -4.9118    2.7122 C   0  0  1  0  0  0  0  0  0  0  0  0
    6.1622   -3.6830    2.0457 O   0  0  0  0  0  0  0  0  0  0  0  0
    5.2803   -3.1757    1.0699 C   0  0  2  0  0  0  0  0  0  0  0  0
    5.1833   -4.0476   -0.0204 O   0  0  0  0  0  0  0  0  0  0  0  0
    4.1631   -3.7350   -0.9865 C   0  0  1  0  0  0  0  0  0  0  0  0
    2.7066   -3.8082   -0.3925 C   0  0  0  0  0  0  0  0  0  0  0  0
    2.3382   -5.0999   -0.0571 O   0  0  0  0  0  0  0  0  0  0  0  0
    4.5724   -2.3809   -1.6046 C   0  0  1  0  0  0  0  0  0  0  0  0
    3.6836   -1.9556   -2.6405 O   0  0  0  0  0  0  0  0  0  0  0  0
    4.7438   -1.2770   -0.5387 C   0  0  1  0  0  0  0  0  0  0  0  0
    3.4530   -0.9941    0.0430 O   0  0  0  0  0  0  0  0  0  0  0  0
    5.7408   -1.7823    0.5621 C   0  0  1  0  0  0  0  0  0  0  0  0
    5.7862   -0.8994    1.6776 O   0  0  0  0  0  0  0  0  0  0  0  0
    1.4679   -9.9343    3.7116 C   0  0  2  0  0  0  0  0  0  0  0  0
    2.0544  -11.1470    3.2862 O   0  0  0  0  0  0  0  0  0  0  0  0
   -0.0089   -9.8617    3.2198 C   0  0  0  0  0  0  0  0  0  0  0  0
   -0.5878   -8.4623    3.5644 C   0  0  0  0  0  0  0  0  0  0  0  0
    0.3620   -7.7283    4.5446 C   0  0  2  0  0  0  0  0  0  0  0  0
   -0.2764   -6.4362    5.0997 C   0  0  0  0  0  0  0  0  0  0  0  0
    0.6814   -8.7500    5.6568 C   0  0  0  0  0  0  0  0  0  0  0  0
    1.4957   -9.8126    5.1140 O   0  0  0  0  0  0  0  0  0  0  0  0
    4.5227   -3.4389    4.5769 H   0  0  0  0  0  0  0  0  0  0  0  0
    2.9212   -4.0393    4.5982 H   0  0  0  0  0  0  0  0  0  0  0  0
    3.4574   -2.9968    3.2331 H   0  0  0  0  0  0  0  0  0  0  0  0
    1.6477   -5.3501    3.6341 H   0  0  0  0  0  0  0  0  0  0  0  0
    1.6230   -6.9206    1.3443 H   0  0  0  0  0  0  0  0  0  0  0  0
    2.4484   -7.3821    4.7725 H   0  0  0  0  0  0  0  0  0  0  0  0
    1.8194   -8.6843    2.0562 H   0  0  0  0  0  0  0  0  0  0  0  0
    4.1332   -8.7733    4.0049 H   0  0  0  0  0  0  0  0  0  0  0  0
    4.0527   -9.6218    2.4755 H   0  0  0  0  0  0  0  0  0  0  0  0
    4.2354   -8.3703    0.6052 H   0  0  0  0  0  0  0  0  0  0  0  0
    6.0975   -7.5379    3.4018 H   0  0  0  0  0  0  0  0  0  0  0  0
    6.0817   -9.2772    1.9491 H   0  0  0  0  0  0  0  0  0  0  0  0
    7.4405   -6.0504    1.9379 H   0  0  0  0  0  0  0  0  0  0  0  0
    6.1131   -6.0017    0.8064 H   0  0  0  0  0  0  0  0  0  0  0  0
    6.3117   -4.9684    3.6717 H   0  0  0  0  0  0  0  0  0  0  0  0
    4.3000   -3.0833    1.5437 H   0  0  0  0  0  0  0  0  0  0  0  0
    4.2632   -4.4715   -1.7794 H   0  0  0  0  0  0  0  0  0  0  0  0
    2.5609   -3.1904    0.4921 H   0  0  0  0  0  0  0  0  0  0  0  0
    1.9971   -3.4394   -1.1574 H   0  0  0  0  0  0  0  0  0  0  0  0
    2.9923   -5.4483    0.6204 H   0  0  0  0  0  0  0  0  0  0  0  0
    5.5489   -2.5396   -2.0653 H   0  0  0  0  0  0  0  0  0  0  0  0
    2.7743   -1.9854   -2.2999 H   0  0  0  0  0  0  0  0  0  0  0  0
    5.1738   -0.3839   -1.0332 H   0  0  0  0  0  0  0  0  0  0  0  0
    2.7720   -0.8021   -0.6383 H   0  0  0  0  0  0  0  0  0  0  0  0
    6.7611   -1.8206    0.1485 H   0  0  0  0  0  0  0  0  0  0  0  0
    6.1265   -0.0258    1.4289 H   0  0  0  0  0  0  0  0  0  0  0  0
    1.5256  -11.8516    3.6140 H   0  0  0  0  0  0  0  0  0  0  0  0
   -0.0720  -10.0413    2.1448 H   0  0  0  0  0  0  0  0  0  0  0  0
   -0.5726  -10.6469    3.7098 H   0  0  0  0  0  0  0  0  0  0  0  0
   -0.7590   -7.8841    2.6542 H   0  0  0  0  0  0  0  0  0  0  0  0
   -1.5660   -8.5919    4.0271 H   0  0  0  0  0  0  0  0  0  0  0  0
   -1.1811   -6.6564    5.6661 H   0  0  0  0  0  0  0  0  0  0  0  0
   -0.5568   -5.7565    4.2896 H   0  0  0  0  0  0  0  0  0  0  0  0
    0.4176   -5.9076    5.7598 H   0  0  0  0  0  0  0  0  0  0  0  0
    1.2438   -8.2827    6.4649 H   0  0  0  0  0  0  0  0  0  0  0  0
   -0.2348   -9.1516    6.0873 H   0  0  0  0  0  0  0  0  0  0  0  0
  1  2  1  0
  1 35  1  0
  1 36  1  0
  1 37  1  0
  2 14  1  0
  2  3  2  0
  3  9  1  0
  3  4  1  0
  4  5  1  0
  4  6  1  0
  4 38  1  1
  5 39  1  0
  6 31  1  0
  6  7  1  0
  6 40  1  1
  7  8  1  0
  7 27  1  0
  7 41  1  6
  8  9  1  0
  8 42  1  0
  8 43  1  0
  9 10  1  6
  9 11  1  0
 10 44  1  0
 11 12  1  0
 11 13  1  0
 11 45  1  1
 12 46  1  0
 13 14  1  0
 13 47  1  0
 13 48  1  0
 14 15  1  0
 14 49  1  1
 15 16  1  0
 16 25  1  0
 16 17  1  0
 16 50  1  1
 17 18  1  0
 18 19  1  0
 18 21  1  0
 18 51  1  6
 19 20  1  0
 19 52  1  0
 19 53  1  0
 20 54  1  0
 21 22  1  0
 21 23  1  0
 21 55  1  6
 22 56  1  0
 23 24  1  0
 23 25  1  0
 23 57  1  6
 24 58  1  0
 25 26  1  0
 25 59  1  6
 26 60  1  0
 27 34  1  0
 27 28  1  1
 27 29  1  0
 28 61  1  0
 29 30  1  0
 29 62  1  0
 29 63  1  0
 30 31  1  0
 30 64  1  0
 30 65  1  0
 31 32  1  1
 31 33  1  0
 32 66  1  0
 32 67  1  0
 32 68  1  0
 33 34  1  0
 33 69  1  0
 33 70  1  0
M  END
>  <i_m_ct_stereo_status>  (274) 
1

>  <s_m_source_file>  (274) 
/var/tmp/pbs.5076255.sched01/tmpua_2_py4/114lbcpx7pn.sdf

>  <i_m_source_file_index>  (274) 
12

>  <i_lp_mmshare_version>  (274) 
48012

>  <i_f3d_flags>  (274) 
0

>  <s_epik_input>  (274) 
W09IXVtDQEBIXTFbQ0BIXShbT0hdKVtDQEhdKFtPSF0pW0NASF0oW0NIMl1bT0hdKU9bQ0BIXTFPW0NASF0oW0NIMl1bQ0BASF0yW09IXSlDKFtDSDNdKT1DKFtDQEBdMjNbT0hdKVtDQEBIXShbT0hdKVtDQEBIXTRbQ0BASF0oW0NIMl0zKVtDQF01KFtPSF0pW0NIMl1bQ0gyXVtDQEBdNChbQ0gzXSlbQ0gyXU81

>  <s_epik_cmdline>  (274) 
J2VwaWtfcHl0aG9uJywgJy1waHQnLCAnMi4wJywgJy1waCcsICc3LjAnLCAnLXRuJywgJzgnLCAnLW1hJywgJzIwMCcsICctaW1hZScsICc8aW5maWxlLm1hZT4nLCAnLW9tYWUnLCAnPG91dGZpbGUubWFlPic=

>  <r_lp_tautomer_probability>  (274) 
1

>  <r_epik_Ionization_Penalty>  (274) 
3.08546e-06

>  <r_epik_Ionization_Penalty_Charging>  (274) 
0

>  <r_epik_Ionization_Penalty_Neutral>  (274) 
3.08546e-06

>  <r_epik_State_Penalty>  (274) 
-0

>  <r_epik_Charging_Adjusted_Penalty>  (274) 
0

>  <i_epik_Tot_Q>  (274) 
0

>  <i_epik_Tot_abs_Q>  (274) 
0

>  <s_epik_Chemistry_Notes>  (274) 
This compound contains an acetal/aminal-like group ( X-CH(R)-Y where X, Y are N, S, or O) that may be acid/base labile, releasing an aldehyde.

>  <s_lp_Force_Field>  (274) 
OPLS3e

>  <r_lp_Energy>  (274) 
56.8493

>  <b_lp_Chiralities_Consistent>  (274) 
1

>  <s_lp_Variant>  (274) 
93:0-1

>  <s_i_glide_gridfile>  (274) 
pfpi4k_grid

>  <i_i_glide_lignum>  (274) 
12

>  <i_i_glide_rotatable_bonds>  (274) 
11

>  <r_i_docking_score>  (274) 
-2.65385

>  <r_i_glide_ligand_efficiency>  (274) 
-0.0780544

>  <r_i_glide_ligand_efficiency_sa>  (274) 
-0.252866

>  <r_i_glide_ligand_efficiency_ln>  (274) 
-0.58631

>  <r_i_glide_gscore>  (274) 
-2.65385

>  <r_i_glide_lipo>  (274) 
-0.187174

>  <r_i_glide_hbond>  (274) 
0

>  <r_i_glide_metal>  (274) 
-0

>  <r_i_glide_rewards>  (274) 
-1.14305

>  <r_i_glide_evdw>  (274) 
-27.4023

>  <r_i_glide_ecoul>  (274) 
-5.20481

>  <r_i_glide_erotb>  (274) 
0.255644

>  <r_i_glide_esite>  (274) 
0

>  <r_i_glide_emodel>  (274) 
-42.1485

>  <r_i_glide_energy>  (274) 
-32.6071

>  <r_i_glide_einternal>  (274) 
6.93992

>  <r_i_glide_intrahb_reward>  (274) 
-1

>  <i_i_glide_confnum>  (274) 
3

>  <i_i_glide_posenum>  (274) 
13

>  <r_i_glide_eff_state_penalty>  (274) 
0

>  <ligand_id>  (274) 
93

>  <original_smiles>  (274) 
CC1=C2C(O)C3C(CC2(O)C(O)CC1OC1OC(CO)C(O)C(O)C1O)C1(O)CCC3(C)CO1

>  <smiles>  (274) 
[H]OC([H])([H])C1([H])OC([H])(OC2([H])C(C([H])([H])[H])=C3C([H])(O[H])C4([H])C([H])(C([H])([H])C3(O[H])C([H])(O[H])C2([H])[H])C2(O[H])OC([H])([H])C4(C([H])([H])[H])C([H])([H])C2([H])[H])C([H])(O[H])C([H])(O[H])C1([H])O[H]

$$$$
94:0:0
     RDKit          3D

 24 26  0  0  1  0  0  0  0  0999 V2000
    2.0968   -3.4908   -3.7268 C   0  0  0  0  0  0  0  0  0  0  0  0
    3.3404   -3.4160   -2.9492 N   0  0  2  0  0  0  0  0  0  0  0  0
    3.3764   -2.5708   -1.7308 C   0  0  1  0  0  0  0  0  0  0  0  0
    4.7466   -3.0611   -1.2076 C   0  0  0  0  0  0  0  0  0  0  0  0
    5.5558   -3.3387   -2.5205 C   0  0  0  0  0  0  0  0  0  0  0  0
    4.5671   -2.9581   -3.6397 C   0  0  2  0  0  0  0  0  0  0  0  0
    4.5084   -1.3834   -3.8159 C   0  0  1  0  0  0  0  0  0  0  0  0
    3.1207   -0.7998   -3.4793 C   0  0  0  0  0  0  0  0  0  0  0  0
    3.4225   -1.0851   -2.1938 C   0  0  0  0  0  0  0  0  0  0  0  0
    4.8099   -0.5397   -2.5554 C   0  0  0  0  0  0  0  0  0  0  0  0
    2.1700   -3.0657   -4.7181 H   0  0  0  0  0  0  0  0  0  0  0  0
    1.2593   -3.0449   -3.1843 H   0  0  0  0  0  0  0  0  0  0  0  0
    1.8862   -4.5461   -3.8723 H   0  0  0  0  0  0  0  0  0  0  0  0
    2.5485   -2.7551   -1.0475 H   0  0  0  0  0  0  0  0  0  0  0  0
    5.2300   -2.3601   -0.5236 H   0  0  0  0  0  0  0  0  0  0  0  0
    4.6175   -3.9987   -0.6622 H   0  0  0  0  0  0  0  0  0  0  0  0
    6.5046   -2.8037   -2.5826 H   0  0  0  0  0  0  0  0  0  0  0  0
    5.7745   -4.4001   -2.5846 H   0  0  0  0  0  0  0  0  0  0  0  0
    4.7349   -3.5004   -4.5710 H   0  0  0  0  0  0  0  0  0  0  0  0
    5.0120   -0.9976   -4.7059 H   0  0  0  0  0  0  0  0  0  0  0  0
    2.2247   -0.9449   -4.0765 H   0  0  0  0  0  0  0  0  0  0  0  0
    5.6953   -0.8219   -1.9868 H   0  0  0  0  0  0  0  0  0  0  0  0
    4.8678    0.5354   -2.7347 H   0  0  0  0  0  0  0  0  0  0  0  0
    3.4941   -4.3733   -2.6433 H   0  0  0  0  0  0  0  0  0  0  0  0
  1  2  1  0
  1 11  1  0
  1 12  1  0
  1 13  1  0
  2  6  1  0
  2  3  1  0
  2 24  1  1
  3  9  1  0
  3  4  1  0
  3 14  1  1
  4  5  1  0
  4 15  1  0
  4 16  1  0
  5  6  1  0
  5 17  1  0
  5 18  1  0
  6  7  1  0
  6 19  1  6
  7 10  1  0
  7  8  1  0
  7 20  1  6
  8  9  2  0
  8 21  1  0
  9 10  1  0
 10 22  1  0
 10 23  1  0
M  CHG  1   2   1
M  END
>  <i_m_ct_stereo_status>  (275) 
1

>  <s_m_source_file>  (275) 
/var/tmp/pbs.5076255.sched01/tmpua_2_py4/114lbcpx7pn.sdf

>  <i_m_source_file_index>  (275) 
13

>  <i_lp_mmshare_version>  (275) 
48012

>  <i_f3d_flags>  (275) 
1

>  <s_epik_input>  (275) 
W0NIM11OMVtDQEhdKFtDSDJdW0NIMl0yKVtDQEhdKFtDSDJdMylbQ0hdPUMzW0NAQEhdMTI=

>  <s_epik_cmdline>  (275) 
J2VwaWtfcHl0aG9uJywgJy1waHQnLCAnMi4wJywgJy1waCcsICc3LjAnLCAnLXRuJywgJzgnLCAnLW1hJywgJzIwMCcsICctaW1hZScsICc8aW5maWxlLm1hZT4nLCAnLW9tYWUnLCAnPG91dGZpbGUubWFlPic=

>  <r_epik_Ionization_Penalty>  (275) 
0.00237578

>  <r_epik_Ionization_Penalty_Charging>  (275) 
0.00237578

>  <r_epik_Ionization_Penalty_Neutral>  (275) 
0

>  <r_epik_State_Penalty>  (275) 
0.00164192

>  <r_epik_Charging_Adjusted_Penalty>  (275) 
0.0040177

>  <i_epik_Tot_Q>  (275) 
1

>  <i_epik_Tot_abs_Q>  (275) 
1

>  <s_lp_Force_Field>  (275) 
OPLS3e

>  <r_lp_Energy>  (275) 
93.1435

>  <b_lp_Chiralities_Consistent>  (275) 
1

>  <s_lp_Variant>  (275) 
94:0-1

>  <s_i_glide_gridfile>  (275) 
pfpi4k_grid

>  <i_i_glide_lignum>  (275) 
13

>  <i_i_glide_rotatable_bonds>  (275) 
0

>  <r_i_docking_score>  (275) 
-4.32421

>  <r_i_glide_ligand_efficiency>  (275) 
-0.432421

>  <r_i_glide_ligand_efficiency_sa>  (275) 
-0.931624

>  <r_i_glide_ligand_efficiency_ln>  (275) 
-1.30934

>  <r_i_glide_gscore>  (275) 
-4.32421

>  <r_i_glide_lipo>  (275) 
-0.85552

>  <r_i_glide_hbond>  (275) 
0

>  <r_i_glide_metal>  (275) 
-0

>  <r_i_glide_rewards>  (275) 
-2.25

>  <r_i_glide_evdw>  (275) 
-9.09382

>  <r_i_glide_ecoul>  (275) 
-5.04934

>  <r_i_glide_erotb>  (275) 
0

>  <r_i_glide_esite>  (275) 
-0.00660216

>  <r_i_glide_emodel>  (275) 
-19.5763

>  <r_i_glide_energy>  (275) 
-14.1432

>  <r_i_glide_einternal>  (275) 
0

>  <r_i_glide_intrahb_reward>  (275) 
-0

>  <i_i_glide_confnum>  (275) 
2

>  <i_i_glide_posenum>  (275) 
8

>  <r_i_glide_eff_state_penalty>  (275) 
0

>  <ligand_id>  (275) 
94

>  <original_smiles>  (275) 
CN1C2CCC1C1C=C2C1

>  <smiles>  (275) 
[H]C1=C2C([H])([H])C1([H])C1([H])C([H])([H])C([H])([H])C2([H])[N+]1([H])C([H])([H])[H]

$$$$
94:0:1
     RDKit          3D

 24 26  0  0  1  0  0  0  0  0999 V2000
    1.9346   -3.4499   -2.3363 C   0  0  0  0  0  0  0  0  0  0  0  0
    3.1993   -3.4412   -1.5623 N   0  0  2  0  0  0  0  0  0  0  0  0
    3.4725   -2.3335   -0.6118 C   0  0  1  0  0  0  0  0  0  0  0  0
    4.6851   -2.9890    0.0925 C   0  0  0  0  0  0  0  0  0  0  0  0
    5.3710   -3.8100   -1.0526 C   0  0  0  0  0  0  0  0  0  0  0  0
    4.4898   -3.5054   -2.2855 C   0  0  2  0  0  0  0  0  0  0  0  0
    4.8331   -2.0735   -2.8684 C   0  0  1  0  0  0  0  0  0  0  0  0
    3.6443   -1.0913   -2.7655 C   0  0  0  0  0  0  0  0  0  0  0  0
    3.8974   -1.0831   -1.4390 C   0  0  0  0  0  0  0  0  0  0  0  0
    5.3699   -1.0319   -1.8662 C   0  0  0  0  0  0  0  0  0  0  0  0
    2.0970   -3.3393   -3.4097 H   0  0  0  0  0  0  0  0  0  0  0  0
    1.2605   -2.6678   -2.0022 H   0  0  0  0  0  0  0  0  0  0  0  0
    1.4215   -4.3973   -2.1738 H   0  0  0  0  0  0  0  0  0  0  0  0
    2.6391   -2.1092    0.0533 H   0  0  0  0  0  0  0  0  0  0  0  0
    5.3428   -2.2685    0.5840 H   0  0  0  0  0  0  0  0  0  0  0  0
    4.3370   -3.6732    0.8664 H   0  0  0  0  0  0  0  0  0  0  0  0
    6.4206   -3.5530   -1.2057 H   0  0  0  0  0  0  0  0  0  0  0  0
    5.3307   -4.8749   -0.8162 H   0  0  0  0  0  0  0  0  0  0  0  0
    4.5249   -4.2893   -3.0434 H   0  0  0  0  0  0  0  0  0  0  0  0
    5.3983   -2.0961   -3.7963 H   0  0  0  0  0  0  0  0  0  0  0  0
    2.7214   -1.1603   -3.3344 H   0  0  0  0  0  0  0  0  0  0  0  0
    6.1693   -1.3594   -1.2058 H   0  0  0  0  0  0  0  0  0  0  0  0
    5.6890   -0.0911   -2.3167 H   0  0  0  0  0  0  0  0  0  0  0  0
    3.1607   -4.2853   -1.0092 H   0  0  0  0  0  0  0  0  0  0  0  0
  1  2  1  0
  1 11  1  0
  1 12  1  0
  1 13  1  0
  2  6  1  0
  2  3  1  0
  2 24  1  1
  3  9  1  0
  3  4  1  0
  3 14  1  1
  4  5  1  0
  4 15  1  0
  4 16  1  0
  5  6  1  0
  5 17  1  0
  5 18  1  0
  6  7  1  0
  6 19  1  6
  7 10  1  0
  7  8  1  0
  7 20  1  6
  8  9  2  0
  8 21  1  0
  9 10  1  0
 10 22  1  0
 10 23  1  0
M  CHG  1   2   1
M  END
>  <i_m_ct_stereo_status>  (276) 
1

>  <s_m_source_file>  (276) 
/var/tmp/pbs.5076255.sched01/tmpua_2_py4/114lbcpx7pn.sdf

>  <i_m_source_file_index>  (276) 
13

>  <i_lp_mmshare_version>  (276) 
48012

>  <i_f3d_flags>  (276) 
1

>  <s_epik_input>  (276) 
W0NIM11OMVtDQEhdKFtDSDJdW0NIMl0yKVtDQEhdKFtDSDJdMylbQ0hdPUMzW0NAQEhdMTI=

>  <s_epik_cmdline>  (276) 
J2VwaWtfcHl0aG9uJywgJy1waHQnLCAnMi4wJywgJy1waCcsICc3LjAnLCAnLXRuJywgJzgnLCAnLW1hJywgJzIwMCcsICctaW1hZScsICc8aW5maWxlLm1hZT4nLCAnLW9tYWUnLCAnPG91dGZpbGUubWFlPic=

>  <r_epik_Ionization_Penalty>  (276) 
0.00237578

>  <r_epik_Ionization_Penalty_Charging>  (276) 
0.00237578

>  <r_epik_Ionization_Penalty_Neutral>  (276) 
0

>  <r_epik_State_Penalty>  (276) 
0.00164192

>  <r_epik_Charging_Adjusted_Penalty>  (276) 
0.0040177

>  <i_epik_Tot_Q>  (276) 
1

>  <i_epik_Tot_abs_Q>  (276) 
1

>  <s_lp_Force_Field>  (276) 
OPLS3e

>  <r_lp_Energy>  (276) 
93.1435

>  <b_lp_Chiralities_Consistent>  (276) 
1

>  <s_lp_Variant>  (276) 
94:0-1

>  <s_i_glide_gridfile>  (276) 
pfpi4k_grid

>  <i_i_glide_lignum>  (276) 
13

>  <i_i_glide_rotatable_bonds>  (276) 
0

>  <r_i_docking_score>  (276) 
-3.67166

>  <r_i_glide_ligand_efficiency>  (276) 
-0.367166

>  <r_i_glide_ligand_efficiency_sa>  (276) 
-0.791035

>  <r_i_glide_ligand_efficiency_ln>  (276) 
-1.11175

>  <r_i_glide_gscore>  (276) 
-3.67166

>  <r_i_glide_lipo>  (276) 
-0.294054

>  <r_i_glide_hbond>  (276) 
0

>  <r_i_glide_metal>  (276) 
-0

>  <r_i_glide_rewards>  (276) 
-2.25

>  <r_i_glide_evdw>  (276) 
-10.5146

>  <r_i_glide_ecoul>  (276) 
-4.01249

>  <r_i_glide_erotb>  (276) 
0

>  <r_i_glide_esite>  (276) 
0

>  <r_i_glide_emodel>  (276) 
-19.1542

>  <r_i_glide_energy>  (276) 
-14.5271

>  <r_i_glide_einternal>  (276) 
0

>  <r_i_glide_intrahb_reward>  (276) 
-0

>  <i_i_glide_confnum>  (276) 
2

>  <i_i_glide_posenum>  (276) 
11

>  <r_i_glide_eff_state_penalty>  (276) 
0

>  <ligand_id>  (276) 
94

>  <original_smiles>  (276) 
CN1C2CCC1C1C=C2C1

>  <smiles>  (276) 
[H]C1=C2C([H])([H])C1([H])C1([H])C([H])([H])C([H])([H])C2([H])[N+]1([H])C([H])([H])[H]

$$$$
94:0:2
     RDKit          3D

 24 26  0  0  1  0  0  0  0  0999 V2000
    2.8483   -2.7257   -2.9936 C   0  0  0  0  0  0  0  0  0  0  0  0
    3.5042   -3.4478   -1.8752 N   0  0  2  0  0  0  0  0  0  0  0  0
    3.4269   -2.8917   -0.5004 C   0  0  1  0  0  0  0  0  0  0  0  0
    3.9507   -4.1482    0.2363 C   0  0  0  0  0  0  0  0  0  0  0  0
    4.9848   -4.7521   -0.7672 C   0  0  0  0  0  0  0  0  0  0  0  0
    4.9517   -3.7610   -1.9551 C   0  0  2  0  0  0  0  0  0  0  0  0
    5.7980   -2.4576   -1.6103 C   0  0  1  0  0  0  0  0  0  0  0  0
    4.9159   -1.1891   -1.5532 C   0  0  0  0  0  0  0  0  0  0  0  0
    4.4316   -1.6967   -0.3999 C   0  0  0  0  0  0  0  0  0  0  0  0
    5.8991   -2.0681   -0.1220 C   0  0  0  0  0  0  0  0  0  0  0  0
    3.5697   -2.3374   -3.7138 H   0  0  0  0  0  0  0  0  0  0  0  0
    2.2256   -1.9023   -2.6375 H   0  0  0  0  0  0  0  0  0  0  0  0
    2.1995   -3.4186   -3.5308 H   0  0  0  0  0  0  0  0  0  0  0  0
    2.4189   -2.6038   -0.2052 H   0  0  0  0  0  0  0  0  0  0  0  0
    4.3601   -3.9357    1.2257 H   0  0  0  0  0  0  0  0  0  0  0  0
    3.1346   -4.8579    0.3811 H   0  0  0  0  0  0  0  0  0  0  0  0
    5.9789   -4.8843   -0.3381 H   0  0  0  0  0  0  0  0  0  0  0  0
    4.6452   -5.7373   -1.0945 H   0  0  0  0  0  0  0  0  0  0  0  0
    5.2337   -4.2196   -2.9045 H   0  0  0  0  0  0  0  0  0  0  0  0
    6.7645   -2.3975   -2.1108 H   0  0  0  0  0  0  0  0  0  0  0  0
    4.4363   -0.7190   -2.4054 H   0  0  0  0  0  0  0  0  0  0  0  0
    6.1602   -2.8643    0.5729 H   0  0  0  0  0  0  0  0  0  0  0  0
    6.5964   -1.2414    0.0687 H   0  0  0  0  0  0  0  0  0  0  0  0
    3.0395   -4.3507   -1.8555 H   0  0  0  0  0  0  0  0  0  0  0  0
  1  2  1  0
  1 11  1  0
  1 12  1  0
  1 13  1  0
  2  6  1  0
  2  3  1  0
  2 24  1  1
  3  9  1  0
  3  4  1  0
  3 14  1  1
  4  5  1  0
  4 15  1  0
  4 16  1  0
  5  6  1  0
  5 17  1  0
  5 18  1  0
  6  7  1  0
  6 19  1  6
  7 10  1  0
  7  8  1  0
  7 20  1  6
  8  9  2  0
  8 21  1  0
  9 10  1  0
 10 22  1  0
 10 23  1  0
M  CHG  1   2   1
M  END
>  <i_m_ct_stereo_status>  (277) 
1

>  <s_m_source_file>  (277) 
/var/tmp/pbs.5076255.sched01/tmpua_2_py4/114lbcpx7pn.sdf

>  <i_m_source_file_index>  (277) 
13

>  <i_lp_mmshare_version>  (277) 
48012

>  <i_f3d_flags>  (277) 
1

>  <s_epik_input>  (277) 
W0NIM11OMVtDQEhdKFtDSDJdW0NIMl0yKVtDQEhdKFtDSDJdMylbQ0hdPUMzW0NAQEhdMTI=

>  <s_epik_cmdline>  (277) 
J2VwaWtfcHl0aG9uJywgJy1waHQnLCAnMi4wJywgJy1waCcsICc3LjAnLCAnLXRuJywgJzgnLCAnLW1hJywgJzIwMCcsICctaW1hZScsICc8aW5maWxlLm1hZT4nLCAnLW9tYWUnLCAnPG91dGZpbGUubWFlPic=

>  <r_epik_Ionization_Penalty>  (277) 
0.00237578

>  <r_epik_Ionization_Penalty_Charging>  (277) 
0.00237578

>  <r_epik_Ionization_Penalty_Neutral>  (277) 
0

>  <r_epik_State_Penalty>  (277) 
0.00164192

>  <r_epik_Charging_Adjusted_Penalty>  (277) 
0.0040177

>  <i_epik_Tot_Q>  (277) 
1

>  <i_epik_Tot_abs_Q>  (277) 
1

>  <s_lp_Force_Field>  (277) 
OPLS3e

>  <r_lp_Energy>  (277) 
93.1435

>  <b_lp_Chiralities_Consistent>  (277) 
1

>  <s_lp_Variant>  (277) 
94:0-1

>  <s_i_glide_gridfile>  (277) 
pfpi4k_grid

>  <i_i_glide_lignum>  (277) 
13

>  <i_i_glide_rotatable_bonds>  (277) 
0

>  <r_i_docking_score>  (277) 
-3.63405

>  <r_i_glide_ligand_efficiency>  (277) 
-0.363405

>  <r_i_glide_ligand_efficiency_sa>  (277) 
-0.782932

>  <r_i_glide_ligand_efficiency_ln>  (277) 
-1.10036

>  <r_i_glide_gscore>  (277) 
-3.63405

>  <r_i_glide_lipo>  (277) 
-0.0288109

>  <r_i_glide_hbond>  (277) 
0

>  <r_i_glide_metal>  (277) 
-0

>  <r_i_glide_rewards>  (277) 
-2.25

>  <r_i_glide_evdw>  (277) 
-12.3684

>  <r_i_glide_ecoul>  (277) 
-4.89648

>  <r_i_glide_erotb>  (277) 
0

>  <r_i_glide_esite>  (277) 
-0.00234824

>  <r_i_glide_emodel>  (277) 
-21.8445

>  <r_i_glide_energy>  (277) 
-17.2648

>  <r_i_glide_einternal>  (277) 
0

>  <r_i_glide_intrahb_reward>  (277) 
-0

>  <i_i_glide_confnum>  (277) 
1

>  <i_i_glide_posenum>  (277) 
1

>  <r_i_glide_eff_state_penalty>  (277) 
0

>  <ligand_id>  (277) 
94

>  <original_smiles>  (277) 
CN1C2CCC1C1C=C2C1

>  <smiles>  (277) 
[H]C1=C2C([H])([H])C1([H])C1([H])C([H])([H])C([H])([H])C2([H])[N+]1([H])C([H])([H])[H]

$$$$
95:0:0
     RDKit          3D

 31 34  0  0  1  0  0  0  0  0999 V2000
    3.6072   -0.2330   -4.6684 C   0  0  0  0  0  0  0  0  0  0  0  0
    3.6262   -1.0541   -3.4194 C   0  0  0  0  0  0  0  0  0  0  0  0
    4.4142   -0.6580   -2.3474 N   0  0  0  0  0  0  0  0  0  0  0  0
    4.2017   -1.5537   -1.3858 C   0  0  0  0  0  0  0  0  0  0  0  0
    4.7008   -1.6961   -0.0699 C   0  0  0  0  0  0  0  0  0  0  0  0
    4.3054   -2.7812    0.6721 C   0  0  0  0  0  0  0  0  0  0  0  0
    3.3940   -3.7165    0.1040 C   0  0  0  0  0  0  0  0  0  0  0  0
    2.9591   -4.8906    0.8839 C   0  0  0  0  0  0  0  0  0  0  0  0
    1.8117   -5.5409    0.6614 N   0  0  0  0  0  0  0  0  0  0  0  0
    1.6371   -6.5789    1.5700 C   0  0  0  0  0  0  0  0  0  0  0  0
    0.5347   -7.4579    1.6202 C   0  0  0  0  0  0  0  0  0  0  0  0
    0.4593   -8.4900    2.5711 C   0  0  0  0  0  0  0  0  0  0  0  0
    1.4933   -8.6526    3.5093 C   0  0  0  0  0  0  0  0  0  0  0  0
    2.6004   -7.7775    3.4908 C   0  0  0  0  0  0  0  0  0  0  0  0
    2.6714   -6.7465    2.5305 C   0  0  0  0  0  0  0  0  0  0  0  0
    3.9062   -5.5079    2.2618 S   0  0  0  0  0  0  0  0  0  0  0  0
    2.8531   -3.6225   -1.1140 N   0  0  0  0  0  0  0  0  0  0  0  0
    3.2954   -2.5505   -1.8239 N   0  0  0  0  0  0  0  0  0  0  0  0
    2.9782   -2.2276   -3.1393 C   0  0  0  0  0  0  0  0  0  0  0  0
    2.1481   -3.0239   -3.9245 N   0  0  0  0  0  0  0  0  0  0  0  0
    2.9655   -0.6509   -5.4411 H   0  0  0  0  0  0  0  0  0  0  0  0
    4.6060   -0.1545   -5.0839 H   0  0  0  0  0  0  0  0  0  0  0  0
    3.2560    0.7762   -4.4690 H   0  0  0  0  0  0  0  0  0  0  0  0
    5.3859   -0.9585    0.3242 H   0  0  0  0  0  0  0  0  0  0  0  0
    4.6749   -2.9049    1.6839 H   0  0  0  0  0  0  0  0  0  0  0  0
   -0.2478   -7.3612    0.8862 H   0  0  0  0  0  0  0  0  0  0  0  0
   -0.3831   -9.1666    2.5631 H   0  0  0  0  0  0  0  0  0  0  0  0
    1.4361   -9.4569    4.2331 H   0  0  0  0  0  0  0  0  0  0  0  0
    3.3897   -7.9068    4.2108 H   0  0  0  0  0  0  0  0  0  0  0  0
    1.8151   -2.7363   -4.8411 H   0  0  0  0  0  0  0  0  0  0  0  0
    1.6288   -3.8085   -3.5450 H   0  0  0  0  0  0  0  0  0  0  0  0
  1  2  1  0
  1 21  1  0
  1 22  1  0
  1 23  1  0
  2 19  2  0
  2  3  1  0
  3  4  2  0
  4 18  1  0
  4  5  1  0
  5  6  2  0
  5 24  1  0
  6  7  1  0
  6 25  1  0
  7  8  1  0
  7 17  2  0
  8 16  1  0
  8  9  2  0
  9 10  1  0
 10 15  2  0
 10 11  1  0
 11 12  2  0
 11 26  1  0
 12 13  1  0
 12 27  1  0
 13 14  2  0
 13 28  1  0
 14 15  1  0
 14 29  1  0
 15 16  1  0
 17 18  1  0
 18 19  1  0
 19 20  1  0
 20 30  1  0
 20 31  1  0
M  END
>  <i_m_ct_stereo_status>  (278) 
1

>  <s_m_source_file>  (278) 
/var/tmp/pbs.5076255.sched01/tmpua_2_py4/114lbcpx7pn.sdf

>  <i_m_source_file_index>  (278) 
14

>  <i_lp_mmshare_version>  (278) 
48012

>  <i_f3d_flags>  (278) 
0

>  <s_epik_input>  (278) 
W0NIM11jKG4xKWMoW05IMl0pbihjMTIpbmMoW2NIXVtjSF0yKS1jKG4zKXNjKGMzNClbY0hdW2NIXVtjSF1bY0hdNA==

>  <s_epik_cmdline>  (278) 
J2VwaWtfcHl0aG9uJywgJy1waHQnLCAnMi4wJywgJy1waCcsICc3LjAnLCAnLXRuJywgJzgnLCAnLW1hJywgJzIwMCcsICctaW1hZScsICc8aW5maWxlLm1hZT4nLCAnLW9tYWUnLCAnPG91dGZpbGUubWFlPic=

>  <r_epik_Ionization_Penalty>  (278) 
0.00203227

>  <r_epik_Ionization_Penalty_Charging>  (278) 
0

>  <r_epik_Ionization_Penalty_Neutral>  (278) 
0.00203227

>  <r_epik_State_Penalty>  (278) 
0.00128604

>  <r_epik_Charging_Adjusted_Penalty>  (278) 
0.00128604

>  <i_epik_Tot_Q>  (278) 
0

>  <i_epik_Tot_abs_Q>  (278) 
0

>  <s_lp_Force_Field>  (278) 
OPLS3e

>  <r_lp_Energy>  (278) 
25.2664

>  <b_lp_Chiralities_Consistent>  (278) 
1

>  <s_lp_Variant>  (278) 
95:0-1

>  <s_i_glide_gridfile>  (278) 
pfpi4k_grid

>  <i_i_glide_lignum>  (278) 
14

>  <i_i_glide_rotatable_bonds>  (278) 
1

>  <r_i_docking_score>  (278) 
-4.61476

>  <r_i_glide_ligand_efficiency>  (278) 
-0.230738

>  <r_i_glide_ligand_efficiency_sa>  (278) 
-0.626319

>  <r_i_glide_ligand_efficiency_ln>  (278) 
-1.15492

>  <r_i_glide_gscore>  (278) 
-4.61476

>  <r_i_glide_lipo>  (278) 
-0.530972

>  <r_i_glide_hbond>  (278) 
-0.651022

>  <r_i_glide_metal>  (278) 
-0

>  <r_i_glide_rewards>  (278) 
-1.49089

>  <r_i_glide_evdw>  (278) 
-28.225

>  <r_i_glide_ecoul>  (278) 
-4.50836

>  <r_i_glide_erotb>  (278) 
0.228366

>  <r_i_glide_esite>  (278) 
-0.0827377

>  <r_i_glide_emodel>  (278) 
-39.4362

>  <r_i_glide_energy>  (278) 
-32.7334

>  <r_i_glide_einternal>  (278) 
4.88254

>  <r_i_glide_intrahb_reward>  (278) 
-0

>  <i_i_glide_confnum>  (278) 
2

>  <i_i_glide_posenum>  (278) 
34

>  <r_i_glide_eff_state_penalty>  (278) 
0

>  <ligand_id>  (278) 
95

>  <original_smiles>  (278) 
Cc1nc2ccc(-c3nc4ccccc4s3)nn2c1N

>  <smiles>  (278) 
[H]c1c([H])c([H])c2sc(-c3nn4c(N([H])[H])c(C([H])([H])[H])nc4c([H])c3[H])nc2c1[H]

$$$$
95:0:1
     RDKit          3D

 31 34  0  0  1  0  0  0  0  0999 V2000
    4.0093   -0.7088   -4.2741 C   0  0  0  0  0  0  0  0  0  0  0  0
    3.8843   -1.5025   -3.0152 C   0  0  0  0  0  0  0  0  0  0  0  0
    4.7607   -1.2848   -1.9608 N   0  0  0  0  0  0  0  0  0  0  0  0
    4.3773   -2.1209   -0.9950 C   0  0  0  0  0  0  0  0  0  0  0  0
    4.8569   -2.3731    0.3087 C   0  0  0  0  0  0  0  0  0  0  0  0
    4.2413   -3.3440    1.0628 C   0  0  0  0  0  0  0  0  0  0  0  0
    3.1348   -4.0555    0.5207 C   0  0  0  0  0  0  0  0  0  0  0  0
    2.4840   -5.1174    1.3109 C   0  0  0  0  0  0  0  0  0  0  0  0
    1.4579   -5.8583    0.8648 N   0  0  0  0  0  0  0  0  0  0  0  0
    1.0199   -6.7510    1.8417 C   0  0  0  0  0  0  0  0  0  0  0  0
   -0.0581   -7.6498    1.7156 C   0  0  0  0  0  0  0  0  0  0  0  0
   -0.4199   -8.5202    2.7599 C   0  0  0  0  0  0  0  0  0  0  0  0
    0.2883   -8.4864    3.9736 C   0  0  0  0  0  0  0  0  0  0  0  0
    1.3548   -7.5783    4.1388 C   0  0  0  0  0  0  0  0  0  0  0  0
    1.7121   -6.7157    3.0806 C   0  0  0  0  0  0  0  0  0  0  0  0
    2.9711   -5.4830    2.9808 S   0  0  0  0  0  0  0  0  0  0  0  0
    2.6035   -3.8431   -0.6883 N   0  0  0  0  0  0  0  0  0  0  0  0
    3.2641   -2.8893   -1.4109 N   0  0  0  0  0  0  0  0  0  0  0  0
    2.9890   -2.4934   -2.7176 C   0  0  0  0  0  0  0  0  0  0  0  0
    1.9674   -3.0528   -3.4776 N   0  0  0  0  0  0  0  0  0  0  0  0
    3.2676   -0.9818   -5.0225 H   0  0  0  0  0  0  0  0  0  0  0  0
    4.9872   -0.8569   -4.7211 H   0  0  0  0  0  0  0  0  0  0  0  0
    3.8959    0.3555   -4.0734 H   0  0  0  0  0  0  0  0  0  0  0  0
    5.6970   -1.8109    0.6902 H   0  0  0  0  0  0  0  0  0  0  0  0
    4.6141   -3.5461    2.0622 H   0  0  0  0  0  0  0  0  0  0  0  0
   -0.5788   -7.6983    0.7742 H   0  0  0  0  0  0  0  0  0  0  0  0
   -1.2198   -9.2290    2.6098 H   0  0  0  0  0  0  0  0  0  0  0  0
    0.0147   -9.1755    4.7654 H   0  0  0  0  0  0  0  0  0  0  0  0
    1.8987   -7.5553    5.0684 H   0  0  0  0  0  0  0  0  0  0  0  0
    1.7092   -2.7522   -4.4053 H   0  0  0  0  0  0  0  0  0  0  0  0
    1.3449   -3.7773   -3.1308 H   0  0  0  0  0  0  0  0  0  0  0  0
  1  2  1  0
  1 21  1  0
  1 22  1  0
  1 23  1  0
  2 19  2  0
  2  3  1  0
  3  4  2  0
  4 18  1  0
  4  5  1  0
  5  6  2  0
  5 24  1  0
  6  7  1  0
  6 25  1  0
  7  8  1  0
  7 17  2  0
  8 16  1  0
  8  9  2  0
  9 10  1  0
 10 15  2  0
 10 11  1  0
 11 12  2  0
 11 26  1  0
 12 13  1  0
 12 27  1  0
 13 14  2  0
 13 28  1  0
 14 15  1  0
 14 29  1  0
 15 16  1  0
 17 18  1  0
 18 19  1  0
 19 20  1  0
 20 30  1  0
 20 31  1  0
M  END
>  <i_m_ct_stereo_status>  (279) 
1

>  <s_m_source_file>  (279) 
/var/tmp/pbs.5076255.sched01/tmpua_2_py4/114lbcpx7pn.sdf

>  <i_m_source_file_index>  (279) 
14

>  <i_lp_mmshare_version>  (279) 
48012

>  <i_f3d_flags>  (279) 
0

>  <s_epik_input>  (279) 
W0NIM11jKG4xKWMoW05IMl0pbihjMTIpbmMoW2NIXVtjSF0yKS1jKG4zKXNjKGMzNClbY0hdW2NIXVtjSF1bY0hdNA==

>  <s_epik_cmdline>  (279) 
J2VwaWtfcHl0aG9uJywgJy1waHQnLCAnMi4wJywgJy1waCcsICc3LjAnLCAnLXRuJywgJzgnLCAnLW1hJywgJzIwMCcsICctaW1hZScsICc8aW5maWxlLm1hZT4nLCAnLW9tYWUnLCAnPG91dGZpbGUubWFlPic=

>  <r_epik_Ionization_Penalty>  (279) 
0.00203227

>  <r_epik_Ionization_Penalty_Charging>  (279) 
0

>  <r_epik_Ionization_Penalty_Neutral>  (279) 
0.00203227

>  <r_epik_State_Penalty>  (279) 
0.00128604

>  <r_epik_Charging_Adjusted_Penalty>  (279) 
0.00128604

>  <i_epik_Tot_Q>  (279) 
0

>  <i_epik_Tot_abs_Q>  (279) 
0

>  <s_lp_Force_Field>  (279) 
OPLS3e

>  <r_lp_Energy>  (279) 
25.2664

>  <b_lp_Chiralities_Consistent>  (279) 
1

>  <s_lp_Variant>  (279) 
95:0-1

>  <s_i_glide_gridfile>  (279) 
pfpi4k_grid

>  <i_i_glide_lignum>  (279) 
14

>  <i_i_glide_rotatable_bonds>  (279) 
1

>  <r_i_docking_score>  (279) 
-4.0508

>  <r_i_glide_ligand_efficiency>  (279) 
-0.20254

>  <r_i_glide_ligand_efficiency_sa>  (279) 
-0.549778

>  <r_i_glide_ligand_efficiency_ln>  (279) 
-1.01378

>  <r_i_glide_gscore>  (279) 
-4.0508

>  <r_i_glide_lipo>  (279) 
-0.202483

>  <r_i_glide_hbond>  (279) 
-0.511724

>  <r_i_glide_metal>  (279) 
-0

>  <r_i_glide_rewards>  (279) 
-1.49089

>  <r_i_glide_evdw>  (279) 
-27.0543

>  <r_i_glide_ecoul>  (279) 
-4.53884

>  <r_i_glide_erotb>  (279) 
0.228366

>  <r_i_glide_esite>  (279) 
-0.0405326

>  <r_i_glide_emodel>  (279) 
-37.5149

>  <r_i_glide_energy>  (279) 
-31.5931

>  <r_i_glide_einternal>  (279) 
4.7142

>  <r_i_glide_intrahb_reward>  (279) 
-0

>  <i_i_glide_confnum>  (279) 
2

>  <i_i_glide_posenum>  (279) 
16

>  <r_i_glide_eff_state_penalty>  (279) 
0

>  <ligand_id>  (279) 
95

>  <original_smiles>  (279) 
Cc1nc2ccc(-c3nc4ccccc4s3)nn2c1N

>  <smiles>  (279) 
[H]c1c([H])c([H])c2sc(-c3nn4c(N([H])[H])c(C([H])([H])[H])nc4c([H])c3[H])nc2c1[H]

$$$$
95:0:2
     RDKit          3D

 31 34  0  0  1  0  0  0  0  0999 V2000
    8.4855   -2.2675   -0.1716 C   0  0  0  0  0  0  0  0  0  0  0  0
    7.8175   -3.5187    0.2920 C   0  0  0  0  0  0  0  0  0  0  0  0
    8.5747   -4.6588    0.5260 N   0  0  0  0  0  0  0  0  0  0  0  0
    7.7070   -5.5848    0.9279 C   0  0  0  0  0  0  0  0  0  0  0  0
    7.8480   -6.9343    1.3189 C   0  0  0  0  0  0  0  0  0  0  0  0
    6.7326   -7.6393    1.6797 C   0  0  0  0  0  0  0  0  0  0  0  0
    5.4618   -7.0002    1.6581 C   0  0  0  0  0  0  0  0  0  0  0  0
    4.2825   -7.7865    2.0531 C   0  0  0  0  0  0  0  0  0  0  0  0
    4.3552   -9.0559    2.4851 N   0  0  0  0  0  0  0  0  0  0  0  0
    3.0913   -9.5511    2.7876 C   0  0  0  0  0  0  0  0  0  0  0  0
    2.7822  -10.8399    3.2797 C   0  0  0  0  0  0  0  0  0  0  0  0
    1.4573  -11.2235    3.5554 C   0  0  0  0  0  0  0  0  0  0  0  0
    0.4099  -10.3105    3.3482 C   0  0  0  0  0  0  0  0  0  0  0  0
    0.6840   -9.0196    2.8647 C   0  0  0  0  0  0  0  0  0  0  0  0
    2.0119   -8.6437    2.5872 C   0  0  0  0  0  0  0  0  0  0  0  0
    2.6401   -7.1087    1.9835 S   0  0  0  0  0  0  0  0  0  0  0  0
    5.2446   -5.7318    1.3022 N   0  0  0  0  0  0  0  0  0  0  0  0
    6.3886   -5.0744    0.9514 N   0  0  0  0  0  0  0  0  0  0  0  0
    6.4875   -3.7498    0.5431 C   0  0  0  0  0  0  0  0  0  0  0  0
    5.3715   -2.9222    0.4495 N   0  0  0  0  0  0  0  0  0  0  0  0
    7.7658   -1.4625   -0.3078 H   0  0  0  0  0  0  0  0  0  0  0  0
    9.0003   -2.4268   -1.1178 H   0  0  0  0  0  0  0  0  0  0  0  0
    9.2301   -1.9264    0.5456 H   0  0  0  0  0  0  0  0  0  0  0  0
    8.8311   -7.3839    1.3291 H   0  0  0  0  0  0  0  0  0  0  0  0
    6.8360   -8.6766    1.9793 H   0  0  0  0  0  0  0  0  0  0  0  0
    3.5801  -11.5505    3.4327 H   0  0  0  0  0  0  0  0  0  0  0  0
    1.2444  -12.2173    3.9249 H   0  0  0  0  0  0  0  0  0  0  0  0
   -0.6008  -10.6090    3.5714 H   0  0  0  0  0  0  0  0  0  0  0  0
   -0.1241   -8.3267    2.7052 H   0  0  0  0  0  0  0  0  0  0  0  0
    5.3993   -1.9559    0.1579 H   0  0  0  0  0  0  0  0  0  0  0  0
    4.4392   -3.2497    0.6692 H   0  0  0  0  0  0  0  0  0  0  0  0
  1  2  1  0
  1 21  1  0
  1 22  1  0
  1 23  1  0
  2 19  2  0
  2  3  1  0
  3  4  2  0
  4 18  1  0
  4  5  1  0
  5  6  2  0
  5 24  1  0
  6  7  1  0
  6 25  1  0
  7  8  1  0
  7 17  2  0
  8 16  1  0
  8  9  2  0
  9 10  1  0
 10 15  2  0
 10 11  1  0
 11 12  2  0
 11 26  1  0
 12 13  1  0
 12 27  1  0
 13 14  2  0
 13 28  1  0
 14 15  1  0
 14 29  1  0
 15 16  1  0
 17 18  1  0
 18 19  1  0
 19 20  1  0
 20 30  1  0
 20 31  1  0
M  END
>  <i_m_ct_stereo_status>  (280) 
1

>  <s_m_source_file>  (280) 
/var/tmp/pbs.5076255.sched01/tmpua_2_py4/114lbcpx7pn.sdf

>  <i_m_source_file_index>  (280) 
14

>  <i_lp_mmshare_version>  (280) 
48012

>  <i_f3d_flags>  (280) 
0

>  <s_epik_input>  (280) 
W0NIM11jKG4xKWMoW05IMl0pbihjMTIpbmMoW2NIXVtjSF0yKS1jKG4zKXNjKGMzNClbY0hdW2NIXVtjSF1bY0hdNA==

>  <s_epik_cmdline>  (280) 
J2VwaWtfcHl0aG9uJywgJy1waHQnLCAnMi4wJywgJy1waCcsICc3LjAnLCAnLXRuJywgJzgnLCAnLW1hJywgJzIwMCcsICctaW1hZScsICc8aW5maWxlLm1hZT4nLCAnLW9tYWUnLCAnPG91dGZpbGUubWFlPic=

>  <r_epik_Ionization_Penalty>  (280) 
0.00203227

>  <r_epik_Ionization_Penalty_Charging>  (280) 
0

>  <r_epik_Ionization_Penalty_Neutral>  (280) 
0.00203227

>  <r_epik_State_Penalty>  (280) 
0.00128604

>  <r_epik_Charging_Adjusted_Penalty>  (280) 
0.00128604

>  <i_epik_Tot_Q>  (280) 
0

>  <i_epik_Tot_abs_Q>  (280) 
0

>  <s_lp_Force_Field>  (280) 
OPLS3e

>  <r_lp_Energy>  (280) 
25.2664

>  <b_lp_Chiralities_Consistent>  (280) 
1

>  <s_lp_Variant>  (280) 
95:0-1

>  <s_i_glide_gridfile>  (280) 
pfpi4k_grid

>  <i_i_glide_lignum>  (280) 
14

>  <i_i_glide_rotatable_bonds>  (280) 
1

>  <r_i_docking_score>  (280) 
-3.77135

>  <r_i_glide_ligand_efficiency>  (280) 
-0.188567

>  <r_i_glide_ligand_efficiency_sa>  (280) 
-0.511851

>  <r_i_glide_ligand_efficiency_ln>  (280) 
-0.943844

>  <r_i_glide_gscore>  (280) 
-3.77135

>  <r_i_glide_lipo>  (280) 
-0.663099

>  <r_i_glide_hbond>  (280) 
0

>  <r_i_glide_metal>  (280) 
-0

>  <r_i_glide_rewards>  (280) 
-1.73922

>  <r_i_glide_evdw>  (280) 
-25.8889

>  <r_i_glide_ecoul>  (280) 
-2.01965

>  <r_i_glide_erotb>  (280) 
0.228366

>  <r_i_glide_esite>  (280) 
0

>  <r_i_glide_emodel>  (280) 
-35.5923

>  <r_i_glide_energy>  (280) 
-27.9085

>  <r_i_glide_einternal>  (280) 
0.0250373

>  <r_i_glide_intrahb_reward>  (280) 
-0

>  <i_i_glide_confnum>  (280) 
2

>  <i_i_glide_posenum>  (280) 
18

>  <r_i_glide_eff_state_penalty>  (280) 
0

>  <ligand_id>  (280) 
95

>  <original_smiles>  (280) 
Cc1nc2ccc(-c3nc4ccccc4s3)nn2c1N

>  <smiles>  (280) 
[H]c1c([H])c([H])c2sc(-c3nn4c(N([H])[H])c(C([H])([H])[H])nc4c([H])c3[H])nc2c1[H]

$$$$
96:0:0
     RDKit          3D

 65 70  0  0  1  0  0  0  0  0999 V2000
    1.8434   -8.6390    1.7950 C   0  0  0  0  0  0  0  0  0  0  0  0
    2.6552   -7.7829    2.4435 C   0  0  0  0  0  0  0  0  0  0  0  0
    2.0657   -6.7976    3.5254 C   0  0  2  0  0  0  0  0  0  0  0  0
    1.4832   -5.3511    3.1235 C   0  0  0  0  0  0  0  0  0  0  0  0
    2.0759   -3.9202    3.6207 C   0  0  0  0  0  0  0  0  0  0  0  0
    2.7476   -2.6384    2.8581 C   0  0  1  0  0  0  0  0  0  0  0  0
    1.6517   -1.7960    2.1300 C   0  0  0  0  0  0  0  0  0  0  0  0
    2.8172   -1.7966    4.0018 O   0  0  0  0  0  0  0  0  0  0  0  0
    4.2766   -2.5360    2.2102 C   0  0  2  0  0  0  0  0  0  0  0  0
    5.2954   -1.9066    3.2222 C   0  0  0  0  0  0  0  0  0  0  0  0
    4.3447   -1.4935    0.9398 C   0  0  1  0  0  0  0  0  0  0  0  0
    5.6610   -0.6809    0.7572 C   0  0  0  0  0  0  0  0  0  0  0  0
    4.0089   -2.0356   -0.5115 C   0  0  0  0  0  0  0  0  0  0  0  0
    4.3951   -3.4985   -0.8331 C   0  0  1  0  0  0  0  0  0  0  0  0
    5.7471   -3.6367   -1.2255 O   0  0  0  0  0  0  0  0  0  0  0  0
    3.9861   -4.2792    0.4071 C   0  0  1  0  0  0  0  0  0  0  0  0
    2.4573   -4.4306    0.3018 C   0  0  0  0  0  0  0  0  0  0  0  0
    2.4963   -5.8332    0.5105 O   0  0  0  0  0  0  0  0  0  0  0  0
    3.9064   -5.7460    0.7138 C   0  0  1  0  0  0  0  0  0  0  0  0
    4.6142   -6.4177   -0.3110 O   0  0  0  0  0  0  0  0  0  0  0  0
    4.4508   -6.1835    2.1816 C   0  0  2  0  0  0  0  0  0  0  0  0
    4.1949   -7.7325    2.1241 C   0  0  1  0  0  0  0  0  0  0  0  0
    4.9299   -8.6306    2.9461 O   0  0  0  0  0  0  0  0  0  0  0  0
    4.2517   -5.9754    3.7662 C   0  0  1  0  0  0  0  0  0  0  0  0
    5.0980   -4.9242    4.4122 C   0  0  0  0  0  0  0  0  0  0  0  0
    6.0867   -4.7928    3.4354 O   0  0  0  0  0  0  0  0  0  0  0  0
    5.6059   -5.1253    2.1749 C   0  0  1  0  0  0  0  0  0  0  0  0
    6.6756   -5.5712    1.3694 O   0  0  0  0  0  0  0  0  0  0  0  0
    4.9098   -3.8133    1.5146 C   0  0  2  0  0  0  0  0  0  0  0  0
    3.1345   -6.6680    4.5559 C   0  0  1  0  0  0  0  0  0  0  0  0
    2.7398   -6.0657    5.7754 O   0  0  0  0  0  0  0  0  0  0  0  0
    2.2234   -9.3145    1.0429 H   0  0  0  0  0  0  0  0  0  0  0  0
    0.7849   -8.6570    1.9992 H   0  0  0  0  0  0  0  0  0  0  0  0
    1.2416   -7.3487    3.9828 H   0  0  0  0  0  0  0  0  0  0  0  0
    0.9795   -5.3647    2.1696 H   0  0  0  0  0  0  0  0  0  0  0  0
    0.5725   -5.3812    3.7238 H   0  0  0  0  0  0  0  0  0  0  0  0
    1.1502   -3.4801    3.9988 H   0  0  0  0  0  0  0  0  0  0  0  0
    2.5577   -4.0378    4.5741 H   0  0  0  0  0  0  0  0  0  0  0  0
    1.6320   -1.9329    1.0567 H   0  0  0  0  0  0  0  0  0  0  0  0
    1.7630   -0.7173    2.2566 H   0  0  0  0  0  0  0  0  0  0  0  0
    0.6490   -2.0358    2.4828 H   0  0  0  0  0  0  0  0  0  0  0  0
    1.9438   -1.6533    4.3268 H   0  0  0  0  0  0  0  0  0  0  0  0
    6.3071   -2.0068    2.8491 H   0  0  0  0  0  0  0  0  0  0  0  0
    5.3191   -2.3004    4.2272 H   0  0  0  0  0  0  0  0  0  0  0  0
    5.1049   -0.8445    3.3832 H   0  0  0  0  0  0  0  0  0  0  0  0
    3.6462   -0.6824    1.1248 H   0  0  0  0  0  0  0  0  0  0  0  0
    6.5361   -1.3115    0.6030 H   0  0  0  0  0  0  0  0  0  0  0  0
    5.8607   -0.0018    1.5823 H   0  0  0  0  0  0  0  0  0  0  0  0
    5.5924   -0.0200   -0.1040 H   0  0  0  0  0  0  0  0  0  0  0  0
    2.9358   -1.9438   -0.6673 H   0  0  0  0  0  0  0  0  0  0  0  0
    4.4184   -1.3936   -1.2911 H   0  0  0  0  0  0  0  0  0  0  0  0
    3.8466   -3.8177   -1.7168 H   0  0  0  0  0  0  0  0  0  0  0  0
    5.8646   -4.5170   -1.5532 H   0  0  0  0  0  0  0  0  0  0  0  0
    1.8490   -3.9410    1.0192 H   0  0  0  0  0  0  0  0  0  0  0  0
    2.0363   -4.2288   -0.6842 H   0  0  0  0  0  0  0  0  0  0  0  0
    4.0988   -6.2856   -1.0993 H   0  0  0  0  0  0  0  0  0  0  0  0
    4.3426   -8.1799    1.1453 H   0  0  0  0  0  0  0  0  0  0  0  0
    4.6658   -9.5160    2.7356 H   0  0  0  0  0  0  0  0  0  0  0  0
    5.0109   -6.6778    4.1044 H   0  0  0  0  0  0  0  0  0  0  0  0
    4.5418   -4.0375    4.6267 H   0  0  0  0  0  0  0  0  0  0  0  0
    5.5578   -5.2322    5.3542 H   0  0  0  0  0  0  0  0  0  0  0  0
    6.3064   -5.8330    0.5369 H   0  0  0  0  0  0  0  0  0  0  0  0
    5.8213   -3.3804    1.1090 H   0  0  0  0  0  0  0  0  0  0  0  0
    3.4323   -7.6772    4.8540 H   0  0  0  0  0  0  0  0  0  0  0  0
    2.5215   -5.1602    5.6184 H   0  0  0  0  0  0  0  0  0  0  0  0
  1  2  2  0
  1 32  1  0
  1 33  1  0
  2 22  1  0
  2  3  1  0
  3 30  1  0
  3  4  1  0
  3 34  1  1
  4  5  1  0
  4 35  1  0
  4 36  1  0
  5  6  1  0
  5 37  1  0
  5 38  1  0
  6  7  1  0
  6  8  1  1
  6  9  1  0
  7 39  1  0
  7 40  1  0
  7 41  1  0
  8 42  1  0
  9 29  1  0
  9 10  1  1
  9 11  1  0
 10 43  1  0
 10 44  1  0
 10 45  1  0
 11 12  1  0
 11 13  1  0
 11 46  1  1
 12 47  1  0
 12 48  1  0
 12 49  1  0
 13 14  1  0
 13 50  1  0
 13 51  1  0
 14 15  1  0
 14 16  1  0
 14 52  1  6
 15 53  1  0
 16 19  1  0
 16 29  1  0
 16 17  1  1
 17 18  1  0
 17 54  1  0
 17 55  1  0
 18 19  1  0
 19 20  1  6
 21 19  1  6
 20 56  1  0
 21 27  1  0
 21 22  1  0
 21 24  1  0
 22 23  1  0
 22 57  1  6
 23 58  1  0
 24 25  1  0
 24 30  1  0
 24 59  1  1
 25 26  1  0
 25 60  1  0
 25 61  1  0
 26 27  1  0
 27 28  1  6
 27 29  1  0
 28 62  1  0
 29 63  1  6
 30 31  1  0
 30 64  1  1
 31 65  1  0
M  END
>  <i_m_ct_stereo_status>  (281) 
1

>  <s_m_source_file>  (281) 
/var/tmp/pbs.5076255.sched01/tmpua_2_py4/114lbcpx7pn.sdf

>  <i_m_source_file_index>  (281) 
15

>  <i_lp_mmshare_version>  (281) 
48012

>  <i_f3d_flags>  (281) 
0

>  <s_epik_input>  (281) 
W09IXVtDQEhdMUMoPVtDSDJdKVtDQEBIXShbQ0BASF0yW09IXSlbQ0gyXVtDSDJdW0NAQF0oW0NIM10pKFtPSF0pW0NAXShbQ0gzXSkoW0NAQEhdKFtDSDNdKVtDSDJdW0NASF0zW09IXSlbQ0BIXTRbQ0BAXTUoW09IXSlPW0NIMl1bQ0BASF0yW0NAXTE1W0NAQF0oW0NAXTM0NikoW09IXSlPW0NIMl02

>  <s_epik_cmdline>  (281) 
J2VwaWtfcHl0aG9uJywgJy1waHQnLCAnMi4wJywgJy1waCcsICc3LjAnLCAnLXRuJywgJzgnLCAnLW1hJywgJzIwMCcsICctaW1hZScsICc8aW5maWxlLm1hZT4nLCAnLW9tYWUnLCAnPG91dGZpbGUubWFlPic=

>  <r_lp_tautomer_probability>  (281) 
1

>  <r_epik_Ionization_Penalty>  (281) 
2.11084e-06

>  <r_epik_Ionization_Penalty_Charging>  (281) 
0

>  <r_epik_Ionization_Penalty_Neutral>  (281) 
2.11084e-06

>  <r_epik_State_Penalty>  (281) 
-0

>  <r_epik_Charging_Adjusted_Penalty>  (281) 
0

>  <i_epik_Tot_Q>  (281) 
0

>  <i_epik_Tot_abs_Q>  (281) 
0

>  <s_lp_Force_Field>  (281) 
OPLS3e

>  <r_lp_Energy>  (281) 
259.857

>  <b_lp_Chiralities_Consistent>  (281) 
1

>  <s_lp_Variant>  (281) 
96:0-1

>  <s_i_glide_gridfile>  (281) 
pfpi4k_grid

>  <i_i_glide_lignum>  (281) 
15

>  <i_i_glide_rotatable_bonds>  (281) 
6

>  <r_i_docking_score>  (281) 
-2.93784

>  <r_i_glide_ligand_efficiency>  (281) 
-0.0947691

>  <r_i_glide_ligand_efficiency_sa>  (281) 
-0.297706

>  <r_i_glide_ligand_efficiency_ln>  (281) 
-0.662573

>  <r_i_glide_gscore>  (281) 
-2.93784

>  <r_i_glide_lipo>  (281) 
-0.283917

>  <r_i_glide_hbond>  (281) 
0

>  <r_i_glide_metal>  (281) 
-0

>  <r_i_glide_rewards>  (281) 
-0.519946

>  <r_i_glide_evdw>  (281) 
-22.115

>  <r_i_glide_ecoul>  (281) 
-6.85486

>  <r_i_glide_erotb>  (281) 
0

>  <r_i_glide_esite>  (281) 
0

>  <r_i_glide_emodel>  (281) 
-32.7513

>  <r_i_glide_energy>  (281) 
-28.9699

>  <r_i_glide_einternal>  (281) 
2.39485

>  <r_i_glide_intrahb_reward>  (281) 
-0

>  <i_i_glide_confnum>  (281) 
2

>  <i_i_glide_posenum>  (281) 
5

>  <r_i_glide_eff_state_penalty>  (281) 
0

>  <ligand_id>  (281) 
96

>  <original_smiles>  (281) 
C=C1C2CCC(C)(O)C3(C)C(C)CC(O)C45COC4(O)C4(C1O)C(COC4(O)C35)C2O

>  <smiles>  (281) 
[H]OC1([H])C(=C([H])[H])C2([H])C([H])([H])C([H])([H])C(O[H])(C([H])([H])[H])C3(C([H])([H])[H])C([H])(C([H])([H])[H])C([H])([H])C([H])(O[H])C45C([H])([H])OC4(O[H])C14C(O[H])(OC([H])([H])C4([H])C2([H])O[H])C53[H]

$$$$
96:0:1
     RDKit          3D

 65 70  0  0  1  0  0  0  0  0999 V2000
    1.8758   -8.6644    1.8018 C   0  0  0  0  0  0  0  0  0  0  0  0
    2.6848   -7.8073    2.4469 C   0  0  0  0  0  0  0  0  0  0  0  0
    2.0914   -6.8281    3.5306 C   0  0  2  0  0  0  0  0  0  0  0  0
    1.5007   -5.3812    3.1361 C   0  0  0  0  0  0  0  0  0  0  0  0
    2.0900   -3.9477    3.6320 C   0  0  0  0  0  0  0  0  0  0  0  0
    2.7498   -2.6619    2.8701 C   0  0  1  0  0  0  0  0  0  0  0  0
    1.6481   -1.8226    2.1453 C   0  0  0  0  0  0  0  0  0  0  0  0
    2.8010   -1.8245    4.0185 O   0  0  0  0  0  0  0  0  0  0  0  0
    4.2783   -2.5501    2.2167 C   0  0  2  0  0  0  0  0  0  0  0  0
    5.2905   -1.9134    3.2274 C   0  0  0  0  0  0  0  0  0  0  0  0
    4.3332   -1.5048    0.9499 C   0  0  1  0  0  0  0  0  0  0  0  0
    5.6424   -0.6828    0.7628 C   0  0  0  0  0  0  0  0  0  0  0  0
    3.9902   -2.0454   -0.5012 C   0  0  0  0  0  0  0  0  0  0  0  0
    4.3850   -3.5045   -0.8290 C   0  0  1  0  0  0  0  0  0  0  0  0
    5.7298   -3.6197   -1.2438 O   0  0  0  0  0  0  0  0  0  0  0  0
    3.9930   -4.2933    0.4099 C   0  0  1  0  0  0  0  0  0  0  0  0
    2.4649   -4.4471    0.3167 C   0  0  0  0  0  0  0  0  0  0  0  0
    2.5075   -5.8485    0.5306 O   0  0  0  0  0  0  0  0  0  0  0  0
    3.9123   -5.7575    0.7160 C   0  0  1  0  0  0  0  0  0  0  0  0
    4.6024   -6.4449   -0.3102 O   0  0  0  0  0  0  0  0  0  0  0  0
    4.4716   -6.1959    2.1753 C   0  0  2  0  0  0  0  0  0  0  0  0
    4.2242   -7.7467    2.1239 C   0  0  1  0  0  0  0  0  0  0  0  0
    4.9748   -8.6375    2.9393 O   0  0  0  0  0  0  0  0  0  0  0  0
    4.2678   -5.9896    3.7617 C   0  0  1  0  0  0  0  0  0  0  0  0
    5.1060   -4.9342    4.4136 C   0  0  0  0  0  0  0  0  0  0  0  0
    6.0984   -4.7912    3.4418 O   0  0  0  0  0  0  0  0  0  0  0  0
    5.6286   -5.1310    2.1765 C   0  0  1  0  0  0  0  0  0  0  0  0
    6.7180   -5.5599    1.3837 O   0  0  0  0  0  0  0  0  0  0  0  0
    4.9217   -3.8228    1.5149 C   0  0  2  0  0  0  0  0  0  0  0  0
    3.1620   -6.6953    4.5557 C   0  0  1  0  0  0  0  0  0  0  0  0
    2.7613   -6.0847    5.7666 O   0  0  0  0  0  0  0  0  0  0  0  0
    2.2546   -9.3369    1.0455 H   0  0  0  0  0  0  0  0  0  0  0  0
    0.8167   -8.6877    2.0103 H   0  0  0  0  0  0  0  0  0  0  0  0
    1.2698   -7.3834    3.9887 H   0  0  0  0  0  0  0  0  0  0  0  0
    0.9879   -5.3918    2.1868 H   0  0  0  0  0  0  0  0  0  0  0  0
    0.5969   -5.4128    3.7466 H   0  0  0  0  0  0  0  0  0  0  0  0
    1.1679   -3.5079    4.0200 H   0  0  0  0  0  0  0  0  0  0  0  0
    2.5692   -4.0661    4.5876 H   0  0  0  0  0  0  0  0  0  0  0  0
    1.6231   -1.9554    1.0724 H   0  0  0  0  0  0  0  0  0  0  0  0
    1.7460   -0.7436    2.2762 H   0  0  0  0  0  0  0  0  0  0  0  0
    0.6492   -2.0750    2.4993 H   0  0  0  0  0  0  0  0  0  0  0  0
    3.0401   -0.9558    3.7341 H   0  0  0  0  0  0  0  0  0  0  0  0
    6.3009   -2.0099    2.8486 H   0  0  0  0  0  0  0  0  0  0  0  0
    5.3218   -2.3138    4.2291 H   0  0  0  0  0  0  0  0  0  0  0  0
    5.0995   -0.8519    3.3909 H   0  0  0  0  0  0  0  0  0  0  0  0
    3.6313   -0.6966    1.1362 H   0  0  0  0  0  0  0  0  0  0  0  0
    6.5216   -1.3078    0.6045 H   0  0  0  0  0  0  0  0  0  0  0  0
    5.8403   -0.0034    1.5878 H   0  0  0  0  0  0  0  0  0  0  0  0
    5.5649   -0.0215   -0.0969 H   0  0  0  0  0  0  0  0  0  0  0  0
    2.9149   -1.9596   -0.6515 H   0  0  0  0  0  0  0  0  0  0  0  0
    4.3949   -1.4003   -1.2811 H   0  0  0  0  0  0  0  0  0  0  0  0
    3.8310   -3.8254   -1.7089 H   0  0  0  0  0  0  0  0  0  0  0  0
    5.8749   -4.5203   -1.4948 H   0  0  0  0  0  0  0  0  0  0  0  0
    1.8546   -3.9581    1.0331 H   0  0  0  0  0  0  0  0  0  0  0  0
    2.0358   -4.2481   -0.6676 H   0  0  0  0  0  0  0  0  0  0  0  0
    4.1108   -6.2748   -1.1078 H   0  0  0  0  0  0  0  0  0  0  0  0
    4.3653   -8.1978    1.1472 H   0  0  0  0  0  0  0  0  0  0  0  0
    4.7100   -9.5236    2.7304 H   0  0  0  0  0  0  0  0  0  0  0  0
    5.0341   -6.6857    4.0981 H   0  0  0  0  0  0  0  0  0  0  0  0
    4.5446   -4.0509    4.6331 H   0  0  0  0  0  0  0  0  0  0  0  0
    5.5720   -5.2449    5.3523 H   0  0  0  0  0  0  0  0  0  0  0  0
    7.0022   -6.3994    1.7147 H   0  0  0  0  0  0  0  0  0  0  0  0
    5.8280   -3.3886    1.0990 H   0  0  0  0  0  0  0  0  0  0  0  0
    3.4760   -7.6985    4.8545 H   0  0  0  0  0  0  0  0  0  0  0  0
    2.1882   -6.6761    6.2303 H   0  0  0  0  0  0  0  0  0  0  0  0
  1  2  2  0
  1 32  1  0
  1 33  1  0
  2 22  1  0
  2  3  1  0
  3 30  1  0
  3  4  1  0
  3 34  1  1
  4  5  1  0
  4 35  1  0
  4 36  1  0
  5  6  1  0
  5 37  1  0
  5 38  1  0
  6  7  1  0
  6  8  1  1
  6  9  1  0
  7 39  1  0
  7 40  1  0
  7 41  1  0
  8 42  1  0
  9 29  1  0
  9 10  1  1
  9 11  1  0
 10 43  1  0
 10 44  1  0
 10 45  1  0
 11 12  1  0
 11 13  1  0
 11 46  1  1
 12 47  1  0
 12 48  1  0
 12 49  1  0
 13 14  1  0
 13 50  1  0
 13 51  1  0
 14 15  1  0
 14 16  1  0
 14 52  1  6
 15 53  1  0
 16 19  1  0
 16 29  1  0
 16 17  1  1
 17 18  1  0
 17 54  1  0
 17 55  1  0
 18 19  1  0
 19 20  1  6
 21 19  1  6
 20 56  1  0
 21 27  1  0
 21 22  1  0
 21 24  1  0
 22 23  1  0
 22 57  1  6
 23 58  1  0
 24 25  1  0
 24 30  1  0
 24 59  1  1
 25 26  1  0
 25 60  1  0
 25 61  1  0
 26 27  1  0
 27 28  1  6
 27 29  1  0
 28 62  1  0
 29 63  1  6
 30 31  1  0
 30 64  1  1
 31 65  1  0
M  END
>  <i_m_ct_stereo_status>  (282) 
1

>  <s_m_source_file>  (282) 
/var/tmp/pbs.5076255.sched01/tmpua_2_py4/114lbcpx7pn.sdf

>  <i_m_source_file_index>  (282) 
15

>  <i_lp_mmshare_version>  (282) 
48012

>  <i_f3d_flags>  (282) 
0

>  <s_epik_input>  (282) 
W09IXVtDQEhdMUMoPVtDSDJdKVtDQEBIXShbQ0BASF0yW09IXSlbQ0gyXVtDSDJdW0NAQF0oW0NIM10pKFtPSF0pW0NAXShbQ0gzXSkoW0NAQEhdKFtDSDNdKVtDSDJdW0NASF0zW09IXSlbQ0BIXTRbQ0BAXTUoW09IXSlPW0NIMl1bQ0BASF0yW0NAXTE1W0NAQF0oW0NAXTM0NikoW09IXSlPW0NIMl02

>  <s_epik_cmdline>  (282) 
J2VwaWtfcHl0aG9uJywgJy1waHQnLCAnMi4wJywgJy1waCcsICc3LjAnLCAnLXRuJywgJzgnLCAnLW1hJywgJzIwMCcsICctaW1hZScsICc8aW5maWxlLm1hZT4nLCAnLW9tYWUnLCAnPG91dGZpbGUubWFlPic=

>  <r_lp_tautomer_probability>  (282) 
1

>  <r_epik_Ionization_Penalty>  (282) 
2.11084e-06

>  <r_epik_Ionization_Penalty_Charging>  (282) 
0

>  <r_epik_Ionization_Penalty_Neutral>  (282) 
2.11084e-06

>  <r_epik_State_Penalty>  (282) 
-0

>  <r_epik_Charging_Adjusted_Penalty>  (282) 
0

>  <i_epik_Tot_Q>  (282) 
0

>  <i_epik_Tot_abs_Q>  (282) 
0

>  <s_lp_Force_Field>  (282) 
OPLS3e

>  <r_lp_Energy>  (282) 
259.857

>  <b_lp_Chiralities_Consistent>  (282) 
1

>  <s_lp_Variant>  (282) 
96:0-1

>  <s_i_glide_gridfile>  (282) 
pfpi4k_grid

>  <i_i_glide_lignum>  (282) 
15

>  <i_i_glide_rotatable_bonds>  (282) 
6

>  <r_i_docking_score>  (282) 
-2.92317

>  <r_i_glide_ligand_efficiency>  (282) 
-0.0942957

>  <r_i_glide_ligand_efficiency_sa>  (282) 
-0.296219

>  <r_i_glide_ligand_efficiency_ln>  (282) 
-0.659263

>  <r_i_glide_gscore>  (282) 
-2.92317

>  <r_i_glide_lipo>  (282) 
-0.285002

>  <r_i_glide_hbond>  (282) 
0

>  <r_i_glide_metal>  (282) 
-0

>  <r_i_glide_rewards>  (282) 
-0.52268

>  <r_i_glide_evdw>  (282) 
-22.063

>  <r_i_glide_ecoul>  (282) 
-6.74888

>  <r_i_glide_erotb>  (282) 
0

>  <r_i_glide_esite>  (282) 
0

>  <r_i_glide_emodel>  (282) 
-33.2011

>  <r_i_glide_energy>  (282) 
-28.8119

>  <r_i_glide_einternal>  (282) 
1.10889

>  <r_i_glide_intrahb_reward>  (282) 
-0

>  <i_i_glide_confnum>  (282) 
2

>  <i_i_glide_posenum>  (282) 
24

>  <r_i_glide_eff_state_penalty>  (282) 
0

>  <ligand_id>  (282) 
96

>  <original_smiles>  (282) 
C=C1C2CCC(C)(O)C3(C)C(C)CC(O)C45COC4(O)C4(C1O)C(COC4(O)C35)C2O

>  <smiles>  (282) 
[H]OC1([H])C(=C([H])[H])C2([H])C([H])([H])C([H])([H])C(O[H])(C([H])([H])[H])C3(C([H])([H])[H])C([H])(C([H])([H])[H])C([H])([H])C([H])(O[H])C45C([H])([H])OC4(O[H])C14C(O[H])(OC([H])([H])C4([H])C2([H])O[H])C53[H]

$$$$
96:0:2
     RDKit          3D

 65 70  0  0  1  0  0  0  0  0999 V2000
    1.8917   -8.6542    1.8093 C   0  0  0  0  0  0  0  0  0  0  0  0
    2.7032   -7.8031    2.4628 C   0  0  0  0  0  0  0  0  0  0  0  0
    2.1095   -6.8122    3.5380 C   0  0  2  0  0  0  0  0  0  0  0  0
    1.5233   -5.3659    3.1316 C   0  0  0  0  0  0  0  0  0  0  0  0
    2.1141   -3.9314    3.6235 C   0  0  0  0  0  0  0  0  0  0  0  0
    2.7835   -2.6522    2.8569 C   0  0  1  0  0  0  0  0  0  0  0  0
    1.6904   -1.8098    2.1287 C   0  0  0  0  0  0  0  0  0  0  0  0
    2.8554   -1.8114    3.9979 O   0  0  0  0  0  0  0  0  0  0  0  0
    4.3127   -2.5485    2.2063 C   0  0  2  0  0  0  0  0  0  0  0  0
    5.3294   -1.9130    3.2174 C   0  0  0  0  0  0  0  0  0  0  0  0
    4.3819   -1.5120    0.9374 C   0  0  1  0  0  0  0  0  0  0  0  0
    5.6928   -0.6939    0.7495 C   0  0  0  0  0  0  0  0  0  0  0  0
    4.0382   -2.0553   -0.5121 C   0  0  0  0  0  0  0  0  0  0  0  0
    4.4250   -3.5225   -0.8288 C   0  0  1  0  0  0  0  0  0  0  0  0
    5.7749   -3.6590   -1.2279 O   0  0  0  0  0  0  0  0  0  0  0  0
    4.0162   -4.3009    0.4098 C   0  0  1  0  0  0  0  0  0  0  0  0
    2.4886   -4.4536    0.3101 C   0  0  0  0  0  0  0  0  0  0  0  0
    2.5087   -5.8354    0.5421 O   0  0  0  0  0  0  0  0  0  0  0  0
    3.9212   -5.7562    0.7446 C   0  0  1  0  0  0  0  0  0  0  0  0
    4.6277   -6.4431   -0.2432 O   0  0  0  0  0  0  0  0  0  0  0  0
    4.4726   -6.1997    2.1987 C   0  0  2  0  0  0  0  0  0  0  0  0
    4.2439   -7.7541    2.1515 C   0  0  1  0  0  0  0  0  0  0  0  0
    4.9784   -8.6447    2.9731 O   0  0  0  0  0  0  0  0  0  0  0  0
    4.2919   -5.9880    3.7747 C   0  0  1  0  0  0  0  0  0  0  0  0
    5.1431   -4.9304    4.4147 C   0  0  0  0  0  0  0  0  0  0  0  0
    6.1327   -4.7981    3.4444 O   0  0  0  0  0  0  0  0  0  0  0  0
    5.6437   -5.1459    2.1759 C   0  0  1  0  0  0  0  0  0  0  0  0
    6.7204   -5.5858    1.3762 O   0  0  0  0  0  0  0  0  0  0  0  0
    4.9449   -3.8248    1.5085 C   0  0  2  0  0  0  0  0  0  0  0  0
    3.1784   -6.6766    4.5690 C   0  0  1  0  0  0  0  0  0  0  0  0
    2.7842   -6.0744    5.7848 O   0  0  0  0  0  0  0  0  0  0  0  0
    2.2692   -9.3342    1.0574 H   0  0  0  0  0  0  0  0  0  0  0  0
    0.8303   -8.6744    2.0083 H   0  0  0  0  0  0  0  0  0  0  0  0
    1.2853   -7.3642    3.9941 H   0  0  0  0  0  0  0  0  0  0  0  0
    1.0077   -5.3775    2.1822 H   0  0  0  0  0  0  0  0  0  0  0  0
    0.6163   -5.3952    3.7376 H   0  0  0  0  0  0  0  0  0  0  0  0
    1.1897   -3.4928    4.0011 H   0  0  0  0  0  0  0  0  0  0  0  0
    2.5975   -4.0470    4.5756 H   0  0  0  0  0  0  0  0  0  0  0  0
    1.6685   -1.9442    1.0555 H   0  0  0  0  0  0  0  0  0  0  0  0
    1.8011   -0.7325    2.2546 H   0  0  0  0  0  0  0  0  0  0  0  0
    0.6878   -2.0494    2.4824 H   0  0  0  0  0  0  0  0  0  0  0  0
    1.9797   -1.6665    4.3244 H   0  0  0  0  0  0  0  0  0  0  0  0
    6.3400   -2.0066    2.8377 H   0  0  0  0  0  0  0  0  0  0  0  0
    5.3587   -2.3058    4.2212 H   0  0  0  0  0  0  0  0  0  0  0  0
    5.1344   -0.8524    3.3769 H   0  0  0  0  0  0  0  0  0  0  0  0
    3.6823   -0.6978    1.1212 H   0  0  0  0  0  0  0  0  0  0  0  0
    6.5682   -1.3205    0.5960 H   0  0  0  0  0  0  0  0  0  0  0  0
    5.8910   -0.0131    1.5725 H   0  0  0  0  0  0  0  0  0  0  0  0
    5.6212   -0.0355   -0.1122 H   0  0  0  0  0  0  0  0  0  0  0  0
    2.9674   -1.9605   -0.6671 H   0  0  0  0  0  0  0  0  0  0  0  0
    4.4486   -1.4153   -1.2937 H   0  0  0  0  0  0  0  0  0  0  0  0
    3.8766   -3.8408   -1.7117 H   0  0  0  0  0  0  0  0  0  0  0  0
    5.8734   -4.5414   -1.5617 H   0  0  0  0  0  0  0  0  0  0  0  0
    1.8869   -3.9507    1.0157 H   0  0  0  0  0  0  0  0  0  0  0  0
    2.0772   -4.2481   -0.6757 H   0  0  0  0  0  0  0  0  0  0  0  0
    4.1888   -7.2690   -0.3800 H   0  0  0  0  0  0  0  0  0  0  0  0
    4.3863   -8.2219    1.1825 H   0  0  0  0  0  0  0  0  0  0  0  0
    4.7187   -9.5326    2.7528 H   0  0  0  0  0  0  0  0  0  0  0  0
    5.0576   -6.6841    4.1156 H   0  0  0  0  0  0  0  0  0  0  0  0
    4.5821   -4.0419    4.6244 H   0  0  0  0  0  0  0  0  0  0  0  0
    5.6035   -5.2334    5.3595 H   0  0  0  0  0  0  0  0  0  0  0  0
    6.3422   -5.8282    0.5316 H   0  0  0  0  0  0  0  0  0  0  0  0
    5.8590   -3.3933    1.1039 H   0  0  0  0  0  0  0  0  0  0  0  0
    3.4812   -7.6858    4.8635 H   0  0  0  0  0  0  0  0  0  0  0  0
    2.5803   -5.1636    5.6259 H   0  0  0  0  0  0  0  0  0  0  0  0
  1  2  2  0
  1 32  1  0
  1 33  1  0
  2 22  1  0
  2  3  1  0
  3 30  1  0
  3  4  1  0
  3 34  1  1
  4  5  1  0
  4 35  1  0
  4 36  1  0
  5  6  1  0
  5 37  1  0
  5 38  1  0
  6  7  1  0
  6  8  1  1
  6  9  1  0
  7 39  1  0
  7 40  1  0
  7 41  1  0
  8 42  1  0
  9 29  1  0
  9 10  1  1
  9 11  1  0
 10 43  1  0
 10 44  1  0
 10 45  1  0
 11 12  1  0
 11 13  1  0
 11 46  1  1
 12 47  1  0
 12 48  1  0
 12 49  1  0
 13 14  1  0
 13 50  1  0
 13 51  1  0
 14 15  1  0
 14 16  1  0
 14 52  1  6
 15 53  1  0
 16 19  1  0
 16 29  1  0
 16 17  1  1
 17 18  1  0
 17 54  1  0
 17 55  1  0
 18 19  1  0
 19 20  1  6
 21 19  1  6
 20 56  1  0
 21 27  1  0
 21 22  1  0
 21 24  1  0
 22 23  1  0
 22 57  1  6
 23 58  1  0
 24 25  1  0
 24 30  1  0
 24 59  1  1
 25 26  1  0
 25 60  1  0
 25 61  1  0
 26 27  1  0
 27 28  1  6
 27 29  1  0
 28 62  1  0
 29 63  1  6
 30 31  1  0
 30 64  1  1
 31 65  1  0
M  END
>  <i_m_ct_stereo_status>  (283) 
1

>  <s_m_source_file>  (283) 
/var/tmp/pbs.5076255.sched01/tmpua_2_py4/114lbcpx7pn.sdf

>  <i_m_source_file_index>  (283) 
15

>  <i_lp_mmshare_version>  (283) 
48012

>  <i_f3d_flags>  (283) 
0

>  <s_epik_input>  (283) 
W09IXVtDQEhdMUMoPVtDSDJdKVtDQEBIXShbQ0BASF0yW09IXSlbQ0gyXVtDSDJdW0NAQF0oW0NIM10pKFtPSF0pW0NAXShbQ0gzXSkoW0NAQEhdKFtDSDNdKVtDSDJdW0NASF0zW09IXSlbQ0BIXTRbQ0BAXTUoW09IXSlPW0NIMl1bQ0BASF0yW0NAXTE1W0NAQF0oW0NAXTM0NikoW09IXSlPW0NIMl02

>  <s_epik_cmdline>  (283) 
J2VwaWtfcHl0aG9uJywgJy1waHQnLCAnMi4wJywgJy1waCcsICc3LjAnLCAnLXRuJywgJzgnLCAnLW1hJywgJzIwMCcsICctaW1hZScsICc8aW5maWxlLm1hZT4nLCAnLW9tYWUnLCAnPG91dGZpbGUubWFlPic=

>  <r_lp_tautomer_probability>  (283) 
1

>  <r_epik_Ionization_Penalty>  (283) 
2.11084e-06

>  <r_epik_Ionization_Penalty_Charging>  (283) 
0

>  <r_epik_Ionization_Penalty_Neutral>  (283) 
2.11084e-06

>  <r_epik_State_Penalty>  (283) 
-0

>  <r_epik_Charging_Adjusted_Penalty>  (283) 
0

>  <i_epik_Tot_Q>  (283) 
0

>  <i_epik_Tot_abs_Q>  (283) 
0

>  <s_lp_Force_Field>  (283) 
OPLS3e

>  <r_lp_Energy>  (283) 
259.857

>  <b_lp_Chiralities_Consistent>  (283) 
1

>  <s_lp_Variant>  (283) 
96:0-1

>  <s_i_glide_gridfile>  (283) 
pfpi4k_grid

>  <i_i_glide_lignum>  (283) 
15

>  <i_i_glide_rotatable_bonds>  (283) 
6

>  <r_i_docking_score>  (283) 
-2.81331

>  <r_i_glide_ligand_efficiency>  (283) 
-0.0907519

>  <r_i_glide_ligand_efficiency_sa>  (283) 
-0.285086

>  <r_i_glide_ligand_efficiency_ln>  (283) 
-0.634487

>  <r_i_glide_gscore>  (283) 
-2.81331

>  <r_i_glide_lipo>  (283) 
-0.282324

>  <r_i_glide_hbond>  (283) 
0

>  <r_i_glide_metal>  (283) 
-0

>  <r_i_glide_rewards>  (283) 
-1.02384

>  <r_i_glide_evdw>  (283) 
-22.0964

>  <r_i_glide_ecoul>  (283) 
-2.68213

>  <r_i_glide_erotb>  (283) 
0

>  <r_i_glide_esite>  (283) 
0

>  <r_i_glide_emodel>  (283) 
-32.7748

>  <r_i_glide_energy>  (283) 
-24.7785

>  <r_i_glide_einternal>  (283) 
3.3625

>  <r_i_glide_intrahb_reward>  (283) 
-0.5

>  <i_i_glide_confnum>  (283) 
1

>  <i_i_glide_posenum>  (283) 
1

>  <r_i_glide_eff_state_penalty>  (283) 
0

>  <ligand_id>  (283) 
96

>  <original_smiles>  (283) 
C=C1C2CCC(C)(O)C3(C)C(C)CC(O)C45COC4(O)C4(C1O)C(COC4(O)C35)C2O

>  <smiles>  (283) 
[H]OC1([H])C(=C([H])[H])C2([H])C([H])([H])C([H])([H])C(O[H])(C([H])([H])[H])C3(C([H])([H])[H])C([H])(C([H])([H])[H])C([H])([H])C([H])(O[H])C45C([H])([H])OC4(O[H])C14C(O[H])(OC([H])([H])C4([H])C2([H])O[H])C53[H]

$$$$
97:0:0
     RDKit          3D

 42 45  0  0  1  0  0  0  0  0999 V2000
    4.3751   -8.1800    3.3164 C   0  0  0  0  0  0  0  0  0  0  0  0
    3.9393   -7.8767    1.8720 C   0  0  0  0  0  0  0  0  0  0  0  0
    4.5886   -8.8583    0.8807 C   0  0  0  0  0  0  0  0  0  0  0  0
    2.4160   -7.7739    1.7079 C   0  0  0  0  0  0  0  0  0  0  0  0
    2.2116   -6.3217    1.2820 C   0  0  0  0  0  0  0  0  0  0  0  0
    1.0856   -5.8718    1.0496 O   0  0  0  0  0  0  0  0  0  0  0  0
    3.3769   -5.6388    1.1866 N   0  0  0  0  0  0  0  0  0  0  0  0
    3.4313   -4.2003    0.7495 C   0  0  2  0  0  0  0  0  0  0  0  0
    4.2458   -3.8943   -0.5369 C   0  0  1  0  0  0  0  0  0  0  0  0
    3.8137   -2.4912   -1.0338 C   0  0  0  0  0  0  0  0  0  0  0  0
    4.1444   -1.4269    0.0571 C   0  0  2  0  0  0  0  0  0  0  0  0
    5.6685   -1.4320    0.3474 C   0  0  0  0  0  0  0  0  0  0  0  0
    6.0861   -2.8242    0.8413 C   0  0  2  0  0  0  0  0  0  0  0  0
    5.7823   -3.8359   -0.3057 C   0  0  0  0  0  0  0  0  0  0  0  0
    5.3123   -3.1351    2.1510 C   0  0  0  0  0  0  0  0  0  0  0  0
    3.8078   -3.1678    1.8396 C   0  0  1  0  0  0  0  0  0  0  0  0
    3.3759   -1.7598    1.3632 C   0  0  0  0  0  0  0  0  0  0  0  0
    4.3890   -6.4542    1.5272 C   0  0  0  0  0  0  0  0  0  0  0  0
    5.6050   -6.1802    1.5987 O   0  0  0  0  0  0  0  0  0  0  0  0
    4.0298   -9.1550    3.6496 H   0  0  0  0  0  0  0  0  0  0  0  0
    4.0157   -7.4155    4.0089 H   0  0  0  0  0  0  0  0  0  0  0  0
    5.4643   -8.1690    3.3896 H   0  0  0  0  0  0  0  0  0  0  0  0
    4.2566   -9.8756    1.0419 H   0  0  0  0  0  0  0  0  0  0  0  0
    5.6747   -8.8468    0.9717 H   0  0  0  0  0  0  0  0  0  0  0  0
    4.3704   -8.5923   -0.1548 H   0  0  0  0  0  0  0  0  0  0  0  0
    2.0165   -8.4400    0.9390 H   0  0  0  0  0  0  0  0  0  0  0  0
    1.8760   -7.9561    2.6375 H   0  0  0  0  0  0  0  0  0  0  0  0
    2.4074   -3.9423    0.4785 H   0  0  0  0  0  0  0  0  0  0  0  0
    4.0151   -4.6316   -1.2997 H   0  0  0  0  0  0  0  0  0  0  0  0
    4.3312   -2.2420   -1.9608 H   0  0  0  0  0  0  0  0  0  0  0  0
    2.7480   -2.4573   -1.2685 H   0  0  0  0  0  0  0  0  0  0  0  0
    3.8461   -0.4259   -0.2924 H   0  0  0  0  0  0  0  0  0  0  0  0
    6.2059   -1.1942   -0.5714 H   0  0  0  0  0  0  0  0  0  0  0  0
    5.9199   -0.6624    1.0781 H   0  0  0  0  0  0  0  0  0  0  0  0
    7.1534   -2.8385    1.0541 H   0  0  0  0  0  0  0  0  0  0  0  0
    6.2240   -4.8200   -0.1182 H   0  0  0  0  0  0  0  0  0  0  0  0
    6.2607   -3.4821   -1.2299 H   0  0  0  0  0  0  0  0  0  0  0  0
    5.6380   -4.0606    2.6145 H   0  0  0  0  0  0  0  0  0  0  0  0
    5.5239   -2.3751    2.9088 H   0  0  0  0  0  0  0  0  0  0  0  0
    3.2599   -3.4014    2.7472 H   0  0  0  0  0  0  0  0  0  0  0  0
    3.5859   -1.0041    2.1246 H   0  0  0  0  0  0  0  0  0  0  0  0
    2.3008   -1.7047    1.1810 H   0  0  0  0  0  0  0  0  0  0  0  0
  1  2  1  0
  1 20  1  0
  1 21  1  0
  1 22  1  0
  2 18  1  0
  2  3  1  0
  2  4  1  0
  3 23  1  0
  3 24  1  0
  3 25  1  0
  4  5  1  0
  4 26  1  0
  4 27  1  0
  5  6  2  0
  5  7  1  0
  7  8  1  0
  7 18  1  0
  8 16  1  0
  8  9  1  0
  8 28  1  6
  9 14  1  0
  9 10  1  0
  9 29  1  6
 10 11  1  0
 10 30  1  0
 10 31  1  0
 11 17  1  0
 11 12  1  0
 11 32  1  6
 12 13  1  0
 12 33  1  0
 12 34  1  0
 13 14  1  0
 13 15  1  0
 13 35  1  1
 14 36  1  0
 14 37  1  0
 15 16  1  0
 15 38  1  0
 15 39  1  0
 16 17  1  0
 16 40  1  1
 17 41  1  0
 17 42  1  0
 18 19  2  0
M  END
>  <i_m_ct_stereo_status>  (284) 
1

>  <s_m_source_file>  (284) 
/var/tmp/pbs.5076255.sched01/tmpua_2_py4/114lbcpx7pn.sdf

>  <i_m_source_file_index>  (284) 
16

>  <i_lp_mmshare_version>  (284) 
48012

>  <i_f3d_flags>  (284) 
0

>  <s_epik_input>  (284) 
W0NIM11DMShbQ0gzXSlbQ0gyXUMoPU8pTihDMT1PKVtDQEhdKFtDQEBIXTIzKVtDQEhdNFtDSDJdW0NAQEhdKFtDSDJdMylbQ0gyXVtDQEBIXShbQ0gyXTIpW0NIMl00

>  <s_epik_cmdline>  (284) 
J2VwaWtfcHl0aG9uJywgJy1waHQnLCAnMi4wJywgJy1waCcsICc3LjAnLCAnLXRuJywgJzgnLCAnLW1hJywgJzIwMCcsICctaW1hZScsICc8aW5maWxlLm1hZT4nLCAnLW9tYWUnLCAnPG91dGZpbGUubWFlPic=

>  <r_lp_tautomer_probability>  (284) 
1

>  <r_epik_Ionization_Penalty>  (284) 
6.91334e-10

>  <r_epik_Ionization_Penalty_Charging>  (284) 
0

>  <r_epik_Ionization_Penalty_Neutral>  (284) 
6.91334e-10

>  <r_epik_State_Penalty>  (284) 
-0

>  <r_epik_Charging_Adjusted_Penalty>  (284) 
0

>  <i_epik_Tot_Q>  (284) 
0

>  <i_epik_Tot_abs_Q>  (284) 
0

>  <s_lp_Force_Field>  (284) 
OPLS3e

>  <r_lp_Energy>  (284) 
13.3213

>  <b_lp_Chiralities_Consistent>  (284) 
1

>  <s_lp_Variant>  (284) 
97:0-1

>  <s_i_glide_gridfile>  (284) 
pfpi4k_grid

>  <i_i_glide_lignum>  (284) 
16

>  <i_i_glide_rotatable_bonds>  (284) 
1

>  <r_i_docking_score>  (284) 
-3.61173

>  <r_i_glide_ligand_efficiency>  (284) 
-0.190091

>  <r_i_glide_ligand_efficiency_sa>  (284) 
-0.507239

>  <r_i_glide_ligand_efficiency_ln>  (284) 
-0.91565

>  <r_i_glide_gscore>  (284) 
-3.61173

>  <r_i_glide_lipo>  (284) 
-0.264562

>  <r_i_glide_hbond>  (284) 
-0.16

>  <r_i_glide_metal>  (284) 
-0

>  <r_i_glide_rewards>  (284) 
-1.72479

>  <r_i_glide_evdw>  (284) 
-21.3735

>  <r_i_glide_ecoul>  (284) 
-4.20695

>  <r_i_glide_erotb>  (284) 
0.259411

>  <r_i_glide_esite>  (284) 
-0.0220685

>  <r_i_glide_emodel>  (284) 
-31.1484

>  <r_i_glide_energy>  (284) 
-25.5804

>  <r_i_glide_einternal>  (284) 
0.105386

>  <r_i_glide_intrahb_reward>  (284) 
-0

>  <i_i_glide_confnum>  (284) 
4

>  <i_i_glide_posenum>  (284) 
34

>  <r_i_glide_eff_state_penalty>  (284) 
0

>  <ligand_id>  (284) 
97

>  <original_smiles>  (284) 
CC1(C)CC(=O)N(C2C3CC4CC(C3)CC2C4)C1=O

>  <smiles>  (284) 
[H]C([H])([H])C1(C([H])([H])[H])C(=O)N(C2([H])C3([H])C([H])([H])C4([H])C([H])([H])C([H])(C3([H])[H])C([H])([H])C2([H])C4([H])[H])C(=O)C1([H])[H]

$$$$
97:0:1
     RDKit          3D

 42 45  0  0  1  0  0  0  0  0999 V2000
    1.0094   -7.6985    1.6984 C   0  0  0  0  0  0  0  0  0  0  0  0
    2.2771   -7.2747    2.4569 C   0  0  0  0  0  0  0  0  0  0  0  0
    2.2027   -7.7101    3.9325 C   0  0  0  0  0  0  0  0  0  0  0  0
    3.5531   -7.7898    1.7839 C   0  0  0  0  0  0  0  0  0  0  0  0
    4.3115   -6.5304    1.4219 C   0  0  0  0  0  0  0  0  0  0  0  0
    5.4316   -6.5999    0.9448 O   0  0  0  0  0  0  0  0  0  0  0  0
    3.6101   -5.4135    1.7358 N   0  0  0  0  0  0  0  0  0  0  0  0
    4.0163   -3.9931    1.5851 C   0  0  2  0  0  0  0  0  0  0  0  0
    3.0276   -3.0909    0.7827 C   0  0  1  0  0  0  0  0  0  0  0  0
    3.3833   -1.6074    1.0446 C   0  0  0  0  0  0  0  0  0  0  0  0
    4.8208   -1.3192    0.5503 C   0  0  2  0  0  0  0  0  0  0  0  0
    4.8904   -1.5918   -0.9713 C   0  0  0  0  0  0  0  0  0  0  0  0
    4.5378   -3.0722   -1.2448 C   0  0  2  0  0  0  0  0  0  0  0  0
    3.1125   -3.3686   -0.7364 C   0  0  0  0  0  0  0  0  0  0  0  0
    5.5220   -3.9842   -0.5088 C   0  0  0  0  0  0  0  0  0  0  0  0
    5.4474   -3.7188    1.0228 C   0  0  1  0  0  0  0  0  0  0  0  0
    5.8139   -2.2398    1.2912 C   0  0  0  0  0  0  0  0  0  0  0  0
    2.4551   -5.7569    2.3636 C   0  0  0  0  0  0  0  0  0  0  0  0
    1.6432   -4.9769    2.8316 O   0  0  0  0  0  0  0  0  0  0  0  0
    0.9434   -8.7861    1.6763 H   0  0  0  0  0  0  0  0  0  0  0  0
    1.0135   -7.3441    0.6668 H   0  0  0  0  0  0  0  0  0  0  0  0
    0.1041   -7.3252    2.1778 H   0  0  0  0  0  0  0  0  0  0  0  0
    2.1880   -8.7976    4.0041 H   0  0  0  0  0  0  0  0  0  0  0  0
    1.3059   -7.3343    4.4257 H   0  0  0  0  0  0  0  0  0  0  0  0
    3.0653   -7.3612    4.5022 H   0  0  0  0  0  0  0  0  0  0  0  0
    4.1690   -8.3901    2.4598 H   0  0  0  0  0  0  0  0  0  0  0  0
    3.3460   -8.3753    0.8847 H   0  0  0  0  0  0  0  0  0  0  0  0
    4.0146   -3.6237    2.6142 H   0  0  0  0  0  0  0  0  0  0  0  0
    1.9967   -3.2327    1.1037 H   0  0  0  0  0  0  0  0  0  0  0  0
    2.6708   -0.9547    0.5364 H   0  0  0  0  0  0  0  0  0  0  0  0
    3.2964   -1.3859    2.1099 H   0  0  0  0  0  0  0  0  0  0  0  0
    5.0739   -0.2712    0.7439 H   0  0  0  0  0  0  0  0  0  0  0  0
    4.1911   -0.9436   -1.5007 H   0  0  0  0  0  0  0  0  0  0  0  0
    5.8896   -1.3733   -1.3489 H   0  0  0  0  0  0  0  0  0  0  0  0
    4.5956   -3.2729   -2.3175 H   0  0  0  0  0  0  0  0  0  0  0  0
    2.8365   -4.3997   -0.9462 H   0  0  0  0  0  0  0  0  0  0  0  0
    2.3966   -2.7483   -1.2716 H   0  0  0  0  0  0  0  0  0  0  0  0
    5.2615   -5.0072   -0.7689 H   0  0  0  0  0  0  0  0  0  0  0  0
    6.5418   -3.8223   -0.8630 H   0  0  0  0  0  0  0  0  0  0  0  0
    6.1740   -4.3259    1.5518 H   0  0  0  0  0  0  0  0  0  0  0  0
    6.8356   -2.0402    0.9723 H   0  0  0  0  0  0  0  0  0  0  0  0
    5.7946   -2.0323    2.3629 H   0  0  0  0  0  0  0  0  0  0  0  0
  1  2  1  0
  1 20  1  0
  1 21  1  0
  1 22  1  0
  2 18  1  0
  2  3  1  0
  2  4  1  0
  3 23  1  0
  3 24  1  0
  3 25  1  0
  4  5  1  0
  4 26  1  0
  4 27  1  0
  5  6  2  0
  5  7  1  0
  7  8  1  0
  7 18  1  0
  8 16  1  0
  8  9  1  0
  8 28  1  1
  9 14  1  0
  9 10  1  0
  9 29  1  1
 10 11  1  0
 10 30  1  0
 10 31  1  0
 11 17  1  0
 11 12  1  0
 11 32  1  6
 12 13  1  0
 12 33  1  0
 12 34  1  0
 13 14  1  0
 13 15  1  0
 13 35  1  6
 14 36  1  0
 14 37  1  0
 15 16  1  0
 15 38  1  0
 15 39  1  0
 16 17  1  0
 16 40  1  1
 17 41  1  0
 17 42  1  0
 18 19  2  0
M  END
>  <i_m_ct_stereo_status>  (285) 
1

>  <s_m_source_file>  (285) 
/var/tmp/pbs.5076255.sched01/tmpua_2_py4/114lbcpx7pn.sdf

>  <i_m_source_file_index>  (285) 
16

>  <i_lp_mmshare_version>  (285) 
48012

>  <i_f3d_flags>  (285) 
0

>  <s_epik_input>  (285) 
W0NIM11DMShbQ0gzXSlbQ0gyXUMoPU8pTihDMT1PKVtDQEhdKFtDQEBIXTIzKVtDQEhdNFtDSDJdW0NAQEhdKFtDSDJdMylbQ0gyXVtDQEBIXShbQ0gyXTIpW0NIMl00

>  <s_epik_cmdline>  (285) 
J2VwaWtfcHl0aG9uJywgJy1waHQnLCAnMi4wJywgJy1waCcsICc3LjAnLCAnLXRuJywgJzgnLCAnLW1hJywgJzIwMCcsICctaW1hZScsICc8aW5maWxlLm1hZT4nLCAnLW9tYWUnLCAnPG91dGZpbGUubWFlPic=

>  <r_lp_tautomer_probability>  (285) 
1

>  <r_epik_Ionization_Penalty>  (285) 
6.91334e-10

>  <r_epik_Ionization_Penalty_Charging>  (285) 
0

>  <r_epik_Ionization_Penalty_Neutral>  (285) 
6.91334e-10

>  <r_epik_State_Penalty>  (285) 
-0

>  <r_epik_Charging_Adjusted_Penalty>  (285) 
0

>  <i_epik_Tot_Q>  (285) 
0

>  <i_epik_Tot_abs_Q>  (285) 
0

>  <s_lp_Force_Field>  (285) 
OPLS3e

>  <r_lp_Energy>  (285) 
13.3213

>  <b_lp_Chiralities_Consistent>  (285) 
1

>  <s_lp_Variant>  (285) 
97:0-1

>  <s_i_glide_gridfile>  (285) 
pfpi4k_grid

>  <i_i_glide_lignum>  (285) 
16

>  <i_i_glide_rotatable_bonds>  (285) 
1

>  <r_i_docking_score>  (285) 
-2.93379

>  <r_i_glide_ligand_efficiency>  (285) 
-0.15441

>  <r_i_glide_ligand_efficiency_sa>  (285) 
-0.412027

>  <r_i_glide_ligand_efficiency_ln>  (285) 
-0.743778

>  <r_i_glide_gscore>  (285) 
-2.93379

>  <r_i_glide_lipo>  (285) 
-0.345463

>  <r_i_glide_hbond>  (285) 
0

>  <r_i_glide_metal>  (285) 
-0

>  <r_i_glide_rewards>  (285) 
-1.73644

>  <r_i_glide_evdw>  (285) 
-22.2412

>  <r_i_glide_ecoul>  (285) 
0.0694358

>  <r_i_glide_erotb>  (285) 
0.259411

>  <r_i_glide_esite>  (285) 
-0.00964603

>  <r_i_glide_emodel>  (285) 
-26.1035

>  <r_i_glide_energy>  (285) 
-22.1718

>  <r_i_glide_einternal>  (285) 
2.13253

>  <r_i_glide_intrahb_reward>  (285) 
-0

>  <i_i_glide_confnum>  (285) 
4

>  <i_i_glide_posenum>  (285) 
9

>  <r_i_glide_eff_state_penalty>  (285) 
0

>  <ligand_id>  (285) 
97

>  <original_smiles>  (285) 
CC1(C)CC(=O)N(C2C3CC4CC(C3)CC2C4)C1=O

>  <smiles>  (285) 
[H]C([H])([H])C1(C([H])([H])[H])C(=O)N(C2([H])C3([H])C([H])([H])C4([H])C([H])([H])C([H])(C3([H])[H])C([H])([H])C2([H])C4([H])[H])C(=O)C1([H])[H]

$$$$
97:0:2
     RDKit          3D

 42 45  0  0  1  0  0  0  0  0999 V2000
    3.8766   -6.4315    2.9887 C   0  0  0  0  0  0  0  0  0  0  0  0
    3.3159   -4.9992    2.9277 C   0  0  0  0  0  0  0  0  0  0  0  0
    1.8201   -4.9663    3.2953 C   0  0  0  0  0  0  0  0  0  0  0  0
    4.1508   -3.9951    3.7292 C   0  0  0  0  0  0  0  0  0  0  0  0
    4.6772   -3.0495    2.6605 C   0  0  0  0  0  0  0  0  0  0  0  0
    5.3951   -2.0884    2.9400 O   0  0  0  0  0  0  0  0  0  0  0  0
    4.2614   -3.3897    1.4293 N   0  0  0  0  0  0  0  0  0  0  0  0
    4.6205   -2.5765    0.2169 C   0  0  2  0  0  0  0  0  0  0  0  0
    3.4541   -1.8712   -0.5284 C   0  0  1  0  0  0  0  0  0  0  0  0
    4.0734   -0.8054   -1.4408 C   0  0  0  0  0  0  0  0  0  0  0  0
    5.0170   -1.4406   -2.4584 C   0  0  2  0  0  0  0  0  0  0  0  0
    4.2246   -2.4058   -3.3576 C   0  0  0  0  0  0  0  0  0  0  0  0
    3.6445   -3.4589   -2.4406 C   0  0  2  0  0  0  0  0  0  0  0  0
    2.6673   -2.8372   -1.4467 C   0  0  0  0  0  0  0  0  0  0  0  0
    4.7733   -4.2290   -1.7181 C   0  0  0  0  0  0  0  0  0  0  0  0
    5.5522   -3.2782   -0.8111 C   0  0  1  0  0  0  0  0  0  0  0  0
    6.1567   -2.2005   -1.7423 C   0  0  0  0  0  0  0  0  0  0  0  0
    3.4721   -4.4889    1.4934 C   0  0  0  0  0  0  0  0  0  0  0  0
    2.8909   -5.0775    0.5949 O   0  0  0  0  0  0  0  0  0  0  0  0
    3.8461   -6.8374    4.0006 H   0  0  0  0  0  0  0  0  0  0  0  0
    4.9058   -6.4784    2.6274 H   0  0  0  0  0  0  0  0  0  0  0  0
    3.2981   -7.0989    2.3486 H   0  0  0  0  0  0  0  0  0  0  0  0
    1.6504   -5.2727    4.3283 H   0  0  0  0  0  0  0  0  0  0  0  0
    1.2537   -5.6439    2.6560 H   0  0  0  0  0  0  0  0  0  0  0  0
    1.3877   -3.9735    3.1533 H   0  0  0  0  0  0  0  0  0  0  0  0
    3.5631   -3.4275    4.4563 H   0  0  0  0  0  0  0  0  0  0  0  0
    4.9990   -4.4540    4.2433 H   0  0  0  0  0  0  0  0  0  0  0  0
    5.2307   -1.7505    0.5927 H   0  0  0  0  0  0  0  0  0  0  0  0
    2.7940   -1.4059    0.2046 H   0  0  0  0  0  0  0  0  0  0  0  0
    3.3189   -0.2841   -2.0057 H   0  0  0  0  0  0  0  0  0  0  0  0
    4.6024   -0.0707   -0.8625 H   0  0  0  0  0  0  0  0  0  0  0  0
    5.4107   -0.6478   -3.0837 H   0  0  0  0  0  0  0  0  0  0  0  0
    3.4183   -1.8885   -3.8736 H   0  0  0  0  0  0  0  0  0  0  0  0
    4.8557   -2.8851   -4.1122 H   0  0  0  0  0  0  0  0  0  0  0  0
    3.0934   -4.1184   -3.0976 H   0  0  0  0  0  0  0  0  0  0  0  0
    2.0693   -3.5768   -0.9096 H   0  0  0  0  0  0  0  0  0  0  0  0
    1.9391   -2.2844   -2.0279 H   0  0  0  0  0  0  0  0  0  0  0  0
    4.4235   -5.0866   -1.1519 H   0  0  0  0  0  0  0  0  0  0  0  0
    5.4152   -4.6447   -2.4919 H   0  0  0  0  0  0  0  0  0  0  0  0
    6.3557   -3.8066   -0.2944 H   0  0  0  0  0  0  0  0  0  0  0  0
    6.8514   -2.6661   -2.4613 H   0  0  0  0  0  0  0  0  0  0  0  0
    6.7425   -1.5028   -1.1444 H   0  0  0  0  0  0  0  0  0  0  0  0
  1  2  1  0
  1 20  1  0
  1 21  1  0
  1 22  1  0
  2 18  1  0
  2  3  1  0
  2  4  1  0
  3 23  1  0
  3 24  1  0
  3 25  1  0
  4  5  1  0
  4 26  1  0
  4 27  1  0
  5  6  2  0
  5  7  1  0
  7  8  1  0
  7 18  1  0
  8 16  1  0
  8  9  1  0
  8 28  1  1
  9 14  1  0
  9 10  1  0
  9 29  1  1
 10 11  1  0
 10 30  1  0
 10 31  1  0
 11 17  1  0
 11 12  1  0
 11 32  1  6
 12 13  1  0
 12 33  1  0
 12 34  1  0
 13 14  1  0
 13 15  1  0
 13 35  1  6
 14 36  1  0
 14 37  1  0
 15 16  1  0
 15 38  1  0
 15 39  1  0
 16 17  1  0
 16 40  1  1
 17 41  1  0
 17 42  1  0
 18 19  2  0
M  END
>  <i_m_ct_stereo_status>  (286) 
1

>  <s_m_source_file>  (286) 
/var/tmp/pbs.5076255.sched01/tmpua_2_py4/114lbcpx7pn.sdf

>  <i_m_source_file_index>  (286) 
16

>  <i_lp_mmshare_version>  (286) 
48012

>  <i_f3d_flags>  (286) 
0

>  <s_epik_input>  (286) 
W0NIM11DMShbQ0gzXSlbQ0gyXUMoPU8pTihDMT1PKVtDQEhdKFtDQEBIXTIzKVtDQEhdNFtDSDJdW0NAQEhdKFtDSDJdMylbQ0gyXVtDQEBIXShbQ0gyXTIpW0NIMl00

>  <s_epik_cmdline>  (286) 
J2VwaWtfcHl0aG9uJywgJy1waHQnLCAnMi4wJywgJy1waCcsICc3LjAnLCAnLXRuJywgJzgnLCAnLW1hJywgJzIwMCcsICctaW1hZScsICc8aW5maWxlLm1hZT4nLCAnLW9tYWUnLCAnPG91dGZpbGUubWFlPic=

>  <r_lp_tautomer_probability>  (286) 
1

>  <r_epik_Ionization_Penalty>  (286) 
6.91334e-10

>  <r_epik_Ionization_Penalty_Charging>  (286) 
0

>  <r_epik_Ionization_Penalty_Neutral>  (286) 
6.91334e-10

>  <r_epik_State_Penalty>  (286) 
-0

>  <r_epik_Charging_Adjusted_Penalty>  (286) 
0

>  <i_epik_Tot_Q>  (286) 
0

>  <i_epik_Tot_abs_Q>  (286) 
0

>  <s_lp_Force_Field>  (286) 
OPLS3e

>  <r_lp_Energy>  (286) 
13.3213

>  <b_lp_Chiralities_Consistent>  (286) 
1

>  <s_lp_Variant>  (286) 
97:0-1

>  <s_i_glide_gridfile>  (286) 
pfpi4k_grid

>  <i_i_glide_lignum>  (286) 
16

>  <i_i_glide_rotatable_bonds>  (286) 
1

>  <r_i_docking_score>  (286) 
-2.13575

>  <r_i_glide_ligand_efficiency>  (286) 
-0.112408

>  <r_i_glide_ligand_efficiency_sa>  (286) 
-0.299949

>  <r_i_glide_ligand_efficiency_ln>  (286) 
-0.541458

>  <r_i_glide_gscore>  (286) 
-2.13575

>  <r_i_glide_lipo>  (286) 
-0.232369

>  <r_i_glide_hbond>  (286) 
0

>  <r_i_glide_metal>  (286) 
-0

>  <r_i_glide_rewards>  (286) 
-1.69486

>  <r_i_glide_evdw>  (286) 
-9.11493

>  <r_i_glide_ecoul>  (286) 
-0.0812012

>  <r_i_glide_erotb>  (286) 
0.259411

>  <r_i_glide_esite>  (286) 
0

>  <r_i_glide_emodel>  (286) 
-12.2546

>  <r_i_glide_energy>  (286) 
-9.19613

>  <r_i_glide_einternal>  (286) 
0.000559534

>  <r_i_glide_intrahb_reward>  (286) 
-0

>  <i_i_glide_confnum>  (286) 
2

>  <i_i_glide_posenum>  (286) 
36

>  <r_i_glide_eff_state_penalty>  (286) 
0

>  <ligand_id>  (286) 
97

>  <original_smiles>  (286) 
CC1(C)CC(=O)N(C2C3CC4CC(C3)CC2C4)C1=O

>  <smiles>  (286) 
[H]C([H])([H])C1(C([H])([H])[H])C(=O)N(C2([H])C3([H])C([H])([H])C4([H])C([H])([H])C([H])(C3([H])[H])C([H])([H])C2([H])C4([H])[H])C(=O)C1([H])[H]

$$$$
99:0:0
     RDKit          3D

 89 93  0  0  1  0  0  0  0  0999 V2000
    2.8937    1.0412    3.4265 C   0  0  0  0  0  0  0  0  0  0  0  0
    2.1662   -0.2591    3.1939 C   0  0  0  0  0  0  0  0  0  0  0  0
    0.9775   -0.2836    2.7898 O   0  0  0  0  0  0  0  0  0  0  0  0
    2.9087   -1.3336    3.4642 O   0  0  0  0  0  0  0  0  0  0  0  0
    2.4664   -2.6625    3.2246 C   0  0  2  0  0  0  0  0  0  0  0  0
    1.6203   -3.1219    4.4362 C   0  0  1  0  0  0  0  0  0  0  0  0
    1.0395   -4.5090    4.1615 C   0  0  0  0  0  0  0  0  0  0  0  0
    2.2729   -5.4593    4.1964 C   0  0  2  0  0  0  0  0  0  0  0  0
    2.8922   -4.8698    5.5472 C   0  0  1  0  0  0  0  0  0  0  0  0
    4.2679   -5.0672    5.8152 O   0  0  0  0  0  0  0  0  0  0  0  0
    2.4309   -3.4025    5.7085 C   0  0  1  0  0  0  0  0  0  0  0  0
    3.4780   -2.3576    6.1552 C   0  0  0  0  0  0  0  0  0  0  0  0
    3.1540   -5.1376    2.8873 C   0  0  1  0  0  0  0  0  0  0  0  0
    2.3877   -5.2484    1.5302 C   0  0  0  0  0  0  0  0  0  0  0  0
    3.6624   -3.6418    2.9758 C   0  0  1  0  0  0  0  0  0  0  0  0
    4.4189   -3.2773    1.8170 O   0  0  0  0  0  0  0  0  0  0  0  0
    5.3663   -2.3134    1.8570 C   0  0  0  0  0  0  0  0  0  0  0  0
    6.1435   -2.1747    0.5636 C   0  0  0  0  0  0  0  0  0  0  0  0
    5.6336   -1.5919    2.8321 O   0  0  0  0  0  0  0  0  0  0  0  0
    4.3166   -6.1803    2.6896 C   0  0  1  0  0  0  0  0  0  0  0  0
    5.4543   -5.8866    3.4931 O   0  0  0  0  0  0  0  0  0  0  0  0
    6.7540   -5.9971    3.0948 C   0  0  0  0  0  0  0  0  0  0  0  0
    7.0339   -6.1809    1.5883 C   0  0  0  0  0  0  0  0  0  0  0  0
    7.6703   -5.9869    3.9067 O   0  0  0  0  0  0  0  0  0  0  0  0
    3.8648   -7.6608    2.8990 C   0  0  1  0  0  0  0  0  0  0  0  0
    5.0184   -8.4662    2.6563 O   0  0  0  0  0  0  0  0  0  0  0  0
    5.1940   -9.1196    1.4865 C   0  0  0  0  0  0  0  0  0  0  0  0
    6.4510   -9.9901    1.4945 C   0  0  0  0  0  0  0  0  0  0  0  0
    4.4829   -8.9985    0.4807 O   0  0  0  0  0  0  0  0  0  0  0  0
    3.1914   -7.9137    4.2915 C   0  0  2  0  0  0  0  0  0  0  0  0
    2.9269   -9.4258    4.7550 C   0  0  2  0  0  0  0  0  0  0  0  0
    3.1884   -9.4951    6.2905 C   0  0  0  0  0  0  0  0  0  0  0  0
    3.7381  -10.5757    4.1083 C   0  0  1  0  0  0  0  0  0  0  0  0
    5.0716  -10.6973    4.5756 O   0  0  0  0  0  0  0  0  0  0  0  0
    2.9830  -11.8638    4.3389 C   0  0  0  0  0  0  0  0  0  0  0  0
    1.5440  -11.4252    4.0909 C   0  0  1  0  0  0  0  0  0  0  0  0
    0.6289  -12.1635    4.8732 O   0  0  0  0  0  0  0  0  0  0  0  0
    1.4891   -9.9095    4.4157 C   0  0  2  0  0  0  0  0  0  0  0  0
    0.9101   -9.1469    3.2150 C   0  0  0  0  0  0  0  0  0  0  0  0
    0.7864   -7.6133    3.3843 C   0  0  1  0  0  0  0  0  0  0  0  0
   -0.6964   -7.2690    3.6835 C   0  0  0  0  0  0  0  0  0  0  0  0
    1.8919   -7.0075    4.3442 C   0  0  2  0  0  0  0  0  0  0  0  0
    1.2759   -7.1652    5.6128 O   0  0  0  0  0  0  0  0  0  0  0  0
    3.2994    1.0707    4.4408 H   0  0  0  0  0  0  0  0  0  0  0  0
    2.2430    1.9045    3.2889 H   0  0  0  0  0  0  0  0  0  0  0  0
    3.7355    1.1350    2.7354 H   0  0  0  0  0  0  0  0  0  0  0  0
    1.8262   -2.6521    2.3399 H   0  0  0  0  0  0  0  0  0  0  0  0
    0.8174   -2.4093    4.6343 H   0  0  0  0  0  0  0  0  0  0  0  0
    0.3479   -4.7607    4.9664 H   0  0  0  0  0  0  0  0  0  0  0  0
    0.4515   -4.5227    3.2530 H   0  0  0  0  0  0  0  0  0  0  0  0
    2.4433   -5.3390    6.4168 H   0  0  0  0  0  0  0  0  0  0  0  0
    4.7721   -4.7832    5.0769 H   0  0  0  0  0  0  0  0  0  0  0  0
    1.6909   -3.4078    6.5117 H   0  0  0  0  0  0  0  0  0  0  0  0
    4.3279   -2.2752    5.4796 H   0  0  0  0  0  0  0  0  0  0  0  0
    3.8744   -2.6068    7.1398 H   0  0  0  0  0  0  0  0  0  0  0  0
    3.0254   -1.3698    6.2288 H   0  0  0  0  0  0  0  0  0  0  0  0
    2.9457   -4.7875    0.7185 H   0  0  0  0  0  0  0  0  0  0  0  0
    1.4189   -4.7724    1.5025 H   0  0  0  0  0  0  0  0  0  0  0  0
    2.2528   -6.2642    1.1803 H   0  0  0  0  0  0  0  0  0  0  0  0
    4.3491   -3.5533    3.8143 H   0  0  0  0  0  0  0  0  0  0  0  0
    5.4741   -1.9863   -0.2790 H   0  0  0  0  0  0  0  0  0  0  0  0
    6.7104   -3.0884    0.3743 H   0  0  0  0  0  0  0  0  0  0  0  0
    6.8462   -1.3460    0.6393 H   0  0  0  0  0  0  0  0  0  0  0  0
    4.6156   -6.0829    1.6500 H   0  0  0  0  0  0  0  0  0  0  0  0
    6.5701   -5.4344    0.9399 H   0  0  0  0  0  0  0  0  0  0  0  0
    6.6719   -7.1598    1.3090 H   0  0  0  0  0  0  0  0  0  0  0  0
    8.1057   -6.1836    1.3766 H   0  0  0  0  0  0  0  0  0  0  0  0
    3.1035   -7.8934    2.1550 H   0  0  0  0  0  0  0  0  0  0  0  0
    7.3118   -9.3560    1.7167 H   0  0  0  0  0  0  0  0  0  0  0  0
    6.6205  -10.4756    0.5380 H   0  0  0  0  0  0  0  0  0  0  0  0
    6.4219  -10.7690    2.2578 H   0  0  0  0  0  0  0  0  0  0  0  0
    3.8982   -7.5139    5.0180 H   0  0  0  0  0  0  0  0  0  0  0  0
    3.0417  -10.4966    6.6949 H   0  0  0  0  0  0  0  0  0  0  0  0
    2.5632   -8.8240    6.8720 H   0  0  0  0  0  0  0  0  0  0  0  0
    4.2226   -9.2160    6.5084 H   0  0  0  0  0  0  0  0  0  0  0  0
    3.6786  -10.5214    3.0255 H   0  0  0  0  0  0  0  0  0  0  0  0
    5.4908  -11.3894    4.1065 H   0  0  0  0  0  0  0  0  0  0  0  0
    3.3083  -12.6267    3.6307 H   0  0  0  0  0  0  0  0  0  0  0  0
    3.1528  -12.2498    5.3458 H   0  0  0  0  0  0  0  0  0  0  0  0
    1.3276  -11.5806    3.0310 H   0  0  0  0  0  0  0  0  0  0  0  0
    0.9688  -12.1901    5.7523 H   0  0  0  0  0  0  0  0  0  0  0  0
    0.8347   -9.7642    5.2722 H   0  0  0  0  0  0  0  0  0  0  0  0
    1.5128   -9.3634    2.3285 H   0  0  0  0  0  0  0  0  0  0  0  0
   -0.0649   -9.5833    3.0100 H   0  0  0  0  0  0  0  0  0  0  0  0
    0.9307   -7.2320    2.3838 H   0  0  0  0  0  0  0  0  0  0  0  0
   -1.0644   -7.7002    4.6150 H   0  0  0  0  0  0  0  0  0  0  0  0
   -1.3435   -7.6356    2.8854 H   0  0  0  0  0  0  0  0  0  0  0  0
   -0.8763   -6.2063    3.7327 H   0  0  0  0  0  0  0  0  0  0  0  0
    1.0943   -8.0677    5.7114 H   0  0  0  0  0  0  0  0  0  0  0  0
  1  2  1  0
  1 44  1  0
  1 45  1  0
  1 46  1  0
  2  3  2  0
  2  4  1  0
  4  5  1  0
  5 15  1  0
  5  6  1  0
  5 47  1  6
  6 11  1  0
  6  7  1  0
  6 48  1  1
  8  7  1  6
  7 49  1  0
  7 50  1  0
  8 42  1  0
  8  9  1  0
  8 13  1  0
  9 10  1  0
  9 11  1  0
  9 51  1  1
 10 52  1  0
 11 12  1  0
 11 53  1  1
 12 54  1  0
 12 55  1  0
 12 56  1  0
 13 14  1  6
 13 15  1  0
 13 20  1  0
 14 57  1  0
 14 58  1  0
 14 59  1  0
 15 16  1  0
 15 60  1  1
 16 17  1  0
 17 18  1  0
 17 19  2  0
 18 61  1  0
 18 62  1  0
 18 63  1  0
 20 21  1  0
 20 25  1  0
 20 64  1  6
 21 22  1  0
 22 23  1  0
 22 24  2  0
 23 65  1  0
 23 66  1  0
 23 67  1  0
 25 26  1  0
 25 30  1  0
 25 68  1  6
 26 27  1  0
 27 28  1  0
 27 29  2  0
 28 69  1  0
 28 70  1  0
 28 71  1  0
 30 42  1  0
 30 31  1  0
 30 72  1  1
 31 38  1  0
 31 32  1  1
 31 33  1  0
 32 73  1  0
 32 74  1  0
 32 75  1  0
 33 34  1  0
 33 35  1  0
 33 76  1  6
 34 77  1  0
 35 36  1  0
 35 78  1  0
 35 79  1  0
 36 37  1  0
 36 38  1  0
 36 80  1  6
 37 81  1  0
 38 39  1  0
 38 82  1  1
 39 40  1  0
 39 83  1  0
 39 84  1  0
 40 41  1  0
 40 42  1  0
 40 85  1  6
 41 86  1  0
 41 87  1  0
 41 88  1  0
 42 43  1  1
 43 89  1  0
M  END
>  <i_m_ct_stereo_status>  (287) 
1

>  <s_m_source_file>  (287) 
/var/tmp/pbs.5076255.sched01/tmpua_2_py4/114lbcpx7pn.sdf

>  <i_m_source_file_index>  (287) 
18

>  <i_lp_mmshare_version>  (287) 
48012

>  <i_f3d_flags>  (287) 
0

>  <s_epik_input>  (287) 
W09IXVtDQEhdMVtDQEBIXShbQ0gzXSlbQ0BIXShbQ0gyXTIpW0NAQEhdKE9DKD1PKVtDSDNdKVtDQEhdKE9DKD1PKVtDSDNdKVtDQEBdKFtDQEBdMTIzKShbQ0gzXSlbQ0BASF0oT0MoPU8pW0NIM10pW0NAQEhdKE9DKD1PKVtDSDNdKVtDQEBIXTRbQ0BAXTUoW0NIM10pW0NASF0oW0NASF0oW09IXSlbQ0gyXVtDQEBIXTVbT0hdKVtDSDJdW0NAQEhdKFtDSDNdKVtDQF0zNFtPSF0=

>  <s_epik_cmdline>  (287) 
J2VwaWtfcHl0aG9uJywgJy1waHQnLCAnMi4wJywgJy1waCcsICc3LjAnLCAnLXRuJywgJzgnLCAnLW1hJywgJzIwMCcsICctaW1hZScsICc8aW5maWxlLm1hZT4nLCAnLW9tYWUnLCAnPG91dGZpbGUubWFlPic=

>  <r_lp_tautomer_probability>  (287) 
1

>  <r_epik_Ionization_Penalty>  (287) 
9.8851e-07

>  <r_epik_Ionization_Penalty_Charging>  (287) 
0

>  <r_epik_Ionization_Penalty_Neutral>  (287) 
9.8851e-07

>  <r_epik_State_Penalty>  (287) 
-0

>  <r_epik_Charging_Adjusted_Penalty>  (287) 
0

>  <i_epik_Tot_Q>  (287) 
0

>  <i_epik_Tot_abs_Q>  (287) 
0

>  <s_epik_Chemistry_Notes>  (287) 
This compound has an ester and may undergo hydrolysis at high or low pH.

>  <s_lp_Force_Field>  (287) 
OPLS3e

>  <r_lp_Energy>  (287) 
80.937

>  <b_lp_Chiralities_Consistent>  (287) 
1

>  <s_lp_Variant>  (287) 
99:0-1

>  <s_i_glide_gridfile>  (287) 
pfpi4k_grid

>  <i_i_glide_lignum>  (287) 
18

>  <i_i_glide_rotatable_bonds>  (287) 
12

>  <r_i_docking_score>  (287) 
-3.1258

>  <r_i_glide_ligand_efficiency>  (287) 
-0.0726929

>  <r_i_glide_ligand_efficiency_sa>  (287) 
-0.254672

>  <r_i_glide_ligand_efficiency_ln>  (287) 
-0.656514

>  <r_i_glide_gscore>  (287) 
-3.1258

>  <r_i_glide_lipo>  (287) 
-0.24716

>  <r_i_glide_hbond>  (287) 
-0.16

>  <r_i_glide_metal>  (287) 
-0

>  <r_i_glide_rewards>  (287) 
-0.591355

>  <r_i_glide_evdw>  (287) 
-34.6408

>  <r_i_glide_ecoul>  (287) 
-3.06023

>  <r_i_glide_erotb>  (287) 
0.100832

>  <r_i_glide_esite>  (287) 
-0.037039

>  <r_i_glide_emodel>  (287) 
-44.2531

>  <r_i_glide_energy>  (287) 
-37.701

>  <r_i_glide_einternal>  (287) 
7.43882

>  <r_i_glide_intrahb_reward>  (287) 
-0.5

>  <i_i_glide_confnum>  (287) 
4

>  <i_i_glide_posenum>  (287) 
9

>  <r_i_glide_eff_state_penalty>  (287) 
0

>  <ligand_id>  (287) 
99

>  <original_smiles>  (287) 
CC(=O)OC1C2CC3(C(O)C2C)C(C)(C1OC(C)=O)C(OC(C)=O)C(OC(C)=O)C1C2(C)C(O)CC(O)C2CC(C)C13O

>  <smiles>  (287) 
[H]OC1([H])C([H])([H])C([H])(O[H])C2(C([H])([H])[H])C1([H])C([H])([H])C([H])(C([H])([H])[H])C1(O[H])C2([H])C([H])(OC(=O)C([H])([H])[H])C([H])(OC(=O)C([H])([H])[H])C2(C([H])([H])[H])C([H])(OC(=O)C([H])([H])[H])C([H])(OC(=O)C([H])([H])[H])C3([H])C([H])([H])C12C([H])(O[H])C3([H])C([H])([H])[H]

$$$$
99:0:1
     RDKit          3D

 89 93  0  0  1  0  0  0  0  0999 V2000
    4.2976   -0.2838    0.4764 C   0  0  0  0  0  0  0  0  0  0  0  0
    4.8705   -1.1834    1.5673 C   0  0  0  0  0  0  0  0  0  0  0  0
    5.4424   -0.7137    2.5336 O   0  0  0  0  0  0  0  0  0  0  0  0
    4.6534   -2.4895    1.3143 O   0  0  0  0  0  0  0  0  0  0  0  0
    4.9410   -3.4885    2.3040 C   0  0  2  0  0  0  0  0  0  0  0  0
    6.1378   -4.3758    1.8674 C   0  0  1  0  0  0  0  0  0  0  0  0
    6.4375   -5.3921    2.9779 C   0  0  0  0  0  0  0  0  0  0  0  0
    5.2379   -6.3671    2.9549 C   0  0  2  0  0  0  0  0  0  0  0  0
    5.2570   -6.5686    1.3667 C   0  0  1  0  0  0  0  0  0  0  0  0
    4.0822   -7.0036    0.7262 O   0  0  0  0  0  0  0  0  0  0  0  0
    5.8709   -5.3147    0.6953 C   0  0  1  0  0  0  0  0  0  0  0  0
    5.1571   -4.7203   -0.5421 C   0  0  0  0  0  0  0  0  0  0  0  0
    3.9578   -5.5588    3.5304 C   0  0  1  0  0  0  0  0  0  0  0  0
    4.1093   -4.9809    4.9833 C   0  0  0  0  0  0  0  0  0  0  0  0
    3.6594   -4.3296    2.5954 C   0  0  1  0  0  0  0  0  0  0  0  0
    2.5334   -3.5317    2.9638 O   0  0  0  0  0  0  0  0  0  0  0  0
    2.5505   -2.5141    3.8381 C   0  0  0  0  0  0  0  0  0  0  0  0
    1.2226   -1.8646    4.0697 C   0  0  0  0  0  0  0  0  0  0  0  0
    3.5835   -2.1487    4.4851 O   0  0  0  0  0  0  0  0  0  0  0  0
    2.7160   -6.4940    3.6676 C   0  0  1  0  0  0  0  0  0  0  0  0
    2.0462   -6.7701    2.4367 O   0  0  0  0  0  0  0  0  0  0  0  0
    0.7211   -6.5931    2.2780 C   0  0  0  0  0  0  0  0  0  0  0  0
    0.2523   -6.9078    0.8846 C   0  0  0  0  0  0  0  0  0  0  0  0
   -0.0731   -6.2114    3.1367 O   0  0  0  0  0  0  0  0  0  0  0  0
    3.0230   -7.8363    4.4065 C   0  0  1  0  0  0  0  0  0  0  0  0
    1.7787   -8.5345    4.4475 O   0  0  0  0  0  0  0  0  0  0  0  0
    0.7836   -8.1263    5.2645 C   0  0  0  0  0  0  0  0  0  0  0  0
   -0.5560   -8.7110    4.8552 C   0  0  0  0  0  0  0  0  0  0  0  0
    0.8931   -7.3335    6.2043 O   0  0  0  0  0  0  0  0  0  0  0  0
    4.1926   -8.6356    3.7213 C   0  0  2  0  0  0  0  0  0  0  0  0
    4.4764  -10.1378    4.1819 C   0  0  2  0  0  0  0  0  0  0  0  0
    4.8374  -10.9674    2.9106 C   0  0  0  0  0  0  0  0  0  0  0  0
    3.3479  -10.8925    4.9319 C   0  0  1  0  0  0  0  0  0  0  0  0
    2.2993  -11.3545    4.0932 O   0  0  0  0  0  0  0  0  0  0  0  0
    4.0327  -12.0528    5.6497 C   0  0  0  0  0  0  0  0  0  0  0  0
    5.3207  -11.4361    6.1507 C   0  0  1  0  0  0  0  0  0  0  0  0
    6.3525  -12.3997    6.2086 O   0  0  0  0  0  0  0  0  0  0  0  0
    5.6347  -10.2477    5.2125 C   0  0  2  0  0  0  0  0  0  0  0  0
    5.7887   -8.9562    6.0292 C   0  0  0  0  0  0  0  0  0  0  0  0
    6.0997   -7.6902    5.2018 C   0  0  1  0  0  0  0  0  0  0  0  0
    7.5983   -7.3294    5.3625 C   0  0  0  0  0  0  0  0  0  0  0  0
    5.5059   -7.7467    3.7382 C   0  0  2  0  0  0  0  0  0  0  0  0
    6.5526   -8.4138    3.0401 O   0  0  0  0  0  0  0  0  0  0  0  0
    4.7378   -0.5299   -0.4895 H   0  0  0  0  0  0  0  0  0  0  0  0
    4.5096    0.7683    0.6949 H   0  0  0  0  0  0  0  0  0  0  0  0
    3.2155   -0.4068    0.4117 H   0  0  0  0  0  0  0  0  0  0  0  0
    5.2698   -3.0139    3.2325 H   0  0  0  0  0  0  0  0  0  0  0  0
    7.0008   -3.7389    1.6691 H   0  0  0  0  0  0  0  0  0  0  0  0
    7.3645   -5.9095    2.7393 H   0  0  0  0  0  0  0  0  0  0  0  0
    6.6014   -4.9168    3.9370 H   0  0  0  0  0  0  0  0  0  0  0  0
    5.9625   -7.3420    1.0734 H   0  0  0  0  0  0  0  0  0  0  0  0
    4.2535   -7.0507   -0.2018 H   0  0  0  0  0  0  0  0  0  0  0  0
    6.8582   -5.6043    0.3391 H   0  0  0  0  0  0  0  0  0  0  0  0
    4.1243   -4.4289   -0.3537 H   0  0  0  0  0  0  0  0  0  0  0  0
    5.1340   -5.4442   -1.3584 H   0  0  0  0  0  0  0  0  0  0  0  0
    5.6940   -3.8419   -0.9037 H   0  0  0  0  0  0  0  0  0  0  0  0
    3.2871   -4.3251    5.2136 H   0  0  0  0  0  0  0  0  0  0  0  0
    5.0044   -4.3866    5.1375 H   0  0  0  0  0  0  0  0  0  0  0  0
    4.0916   -5.7359    5.7734 H   0  0  0  0  0  0  0  0  0  0  0  0
    3.3512   -4.7372    1.6442 H   0  0  0  0  0  0  0  0  0  0  0  0
    0.5060   -2.6123    4.4230 H   0  0  0  0  0  0  0  0  0  0  0  0
    0.8293   -1.3950    3.1590 H   0  0  0  0  0  0  0  0  0  0  0  0
    1.3075   -1.0920    4.8357 H   0  0  0  0  0  0  0  0  0  0  0  0
    2.0031   -5.9371    4.2774 H   0  0  0  0  0  0  0  0  0  0  0  0
    0.6664   -7.8465    0.5089 H   0  0  0  0  0  0  0  0  0  0  0  0
    0.5737   -6.1228    0.1916 H   0  0  0  0  0  0  0  0  0  0  0  0
   -0.8340   -6.9860    0.8420 H   0  0  0  0  0  0  0  0  0  0  0  0
    3.3187   -7.6424    5.4342 H   0  0  0  0  0  0  0  0  0  0  0  0
   -0.7134   -8.5223    3.7941 H   0  0  0  0  0  0  0  0  0  0  0  0
   -1.3791   -8.2551    5.3975 H   0  0  0  0  0  0  0  0  0  0  0  0
   -0.5771   -9.7885    5.0363 H   0  0  0  0  0  0  0  0  0  0  0  0
    3.8675   -8.7192    2.6787 H   0  0  0  0  0  0  0  0  0  0  0  0
    5.0403  -12.0138    3.1233 H   0  0  0  0  0  0  0  0  0  0  0  0
    5.7082  -10.5998    2.3735 H   0  0  0  0  0  0  0  0  0  0  0  0
    4.0144  -10.9497    2.1969 H   0  0  0  0  0  0  0  0  0  0  0  0
    2.9264  -10.2737    5.7275 H   0  0  0  0  0  0  0  0  0  0  0  0
    1.7957  -10.6056    3.8191 H   0  0  0  0  0  0  0  0  0  0  0  0
    3.4608  -12.4469    6.4808 H   0  0  0  0  0  0  0  0  0  0  0  0
    4.2097  -12.8902    4.9733 H   0  0  0  0  0  0  0  0  0  0  0  0
    5.1432  -11.0746    7.1693 H   0  0  0  0  0  0  0  0  0  0  0  0
    6.0934  -13.0656    6.8216 H   0  0  0  0  0  0  0  0  0  0  0  0
    6.5782  -10.4420    4.7035 H   0  0  0  0  0  0  0  0  0  0  0  0
    4.8644   -8.7961    6.5937 H   0  0  0  0  0  0  0  0  0  0  0  0
    6.5571   -9.1093    6.7800 H   0  0  0  0  0  0  0  0  0  0  0  0
    5.6315   -6.9112    5.7638 H   0  0  0  0  0  0  0  0  0  0  0  0
    8.2547   -8.1047    4.9687 H   0  0  0  0  0  0  0  0  0  0  0  0
    7.8470   -7.2041    6.4152 H   0  0  0  0  0  0  0  0  0  0  0  0
    7.8787   -6.3933    4.8955 H   0  0  0  0  0  0  0  0  0  0  0  0
    6.2494   -8.6295    2.1818 H   0  0  0  0  0  0  0  0  0  0  0  0
  1  2  1  0
  1 44  1  0
  1 45  1  0
  1 46  1  0
  2  3  2  0
  2  4  1  0
  4  5  1  0
  5 15  1  0
  5  6  1  0
  5 47  1  1
  6 11  1  0
  6  7  1  0
  6 48  1  6
  8  7  1  6
  7 49  1  0
  7 50  1  0
  8 42  1  0
  8  9  1  0
  8 13  1  0
  9 10  1  0
  9 11  1  0
  9 51  1  1
 10 52  1  0
 11 12  1  0
 11 53  1  6
 12 54  1  0
 12 55  1  0
 12 56  1  0
 13 14  1  1
 13 15  1  0
 13 20  1  0
 14 57  1  0
 14 58  1  0
 14 59  1  0
 15 16  1  0
 15 60  1  6
 16 17  1  0
 17 18  1  0
 17 19  2  0
 18 61  1  0
 18 62  1  0
 18 63  1  0
 20 21  1  0
 20 25  1  0
 20 64  1  1
 21 22  1  0
 22 23  1  0
 22 24  2  0
 23 65  1  0
 23 66  1  0
 23 67  1  0
 25 26  1  0
 25 30  1  0
 25 68  1  1
 26 27  1  0
 27 28  1  0
 27 29  2  0
 28 69  1  0
 28 70  1  0
 28 71  1  0
 30 42  1  0
 30 31  1  0
 30 72  1  6
 31 38  1  0
 31 32  1  6
 31 33  1  0
 32 73  1  0
 32 74  1  0
 32 75  1  0
 33 34  1  0
 33 35  1  0
 33 76  1  1
 34 77  1  0
 35 36  1  0
 35 78  1  0
 35 79  1  0
 36 37  1  0
 36 38  1  0
 36 80  1  1
 37 81  1  0
 38 39  1  0
 38 82  1  6
 39 40  1  0
 39 83  1  0
 39 84  1  0
 40 41  1  0
 40 42  1  0
 40 85  1  1
 41 86  1  0
 41 87  1  0
 41 88  1  0
 42 43  1  6
 43 89  1  0
M  END
>  <i_m_ct_stereo_status>  (288) 
1

>  <s_m_source_file>  (288) 
/var/tmp/pbs.5076255.sched01/tmpua_2_py4/114lbcpx7pn.sdf

>  <i_m_source_file_index>  (288) 
18

>  <i_lp_mmshare_version>  (288) 
48012

>  <i_f3d_flags>  (288) 
0

>  <s_epik_input>  (288) 
W09IXVtDQEhdMVtDQEBIXShbQ0gzXSlbQ0BIXShbQ0gyXTIpW0NAQEhdKE9DKD1PKVtDSDNdKVtDQEhdKE9DKD1PKVtDSDNdKVtDQEBdKFtDQEBdMTIzKShbQ0gzXSlbQ0BASF0oT0MoPU8pW0NIM10pW0NAQEhdKE9DKD1PKVtDSDNdKVtDQEBIXTRbQ0BAXTUoW0NIM10pW0NASF0oW0NASF0oW09IXSlbQ0gyXVtDQEBIXTVbT0hdKVtDSDJdW0NAQEhdKFtDSDNdKVtDQF0zNFtPSF0=

>  <s_epik_cmdline>  (288) 
J2VwaWtfcHl0aG9uJywgJy1waHQnLCAnMi4wJywgJy1waCcsICc3LjAnLCAnLXRuJywgJzgnLCAnLW1hJywgJzIwMCcsICctaW1hZScsICc8aW5maWxlLm1hZT4nLCAnLW9tYWUnLCAnPG91dGZpbGUubWFlPic=

>  <r_lp_tautomer_probability>  (288) 
1

>  <r_epik_Ionization_Penalty>  (288) 
9.8851e-07

>  <r_epik_Ionization_Penalty_Charging>  (288) 
0

>  <r_epik_Ionization_Penalty_Neutral>  (288) 
9.8851e-07

>  <r_epik_State_Penalty>  (288) 
-0

>  <r_epik_Charging_Adjusted_Penalty>  (288) 
0

>  <i_epik_Tot_Q>  (288) 
0

>  <i_epik_Tot_abs_Q>  (288) 
0

>  <s_epik_Chemistry_Notes>  (288) 
This compound has an ester and may undergo hydrolysis at high or low pH.

>  <s_lp_Force_Field>  (288) 
OPLS3e

>  <r_lp_Energy>  (288) 
80.937

>  <b_lp_Chiralities_Consistent>  (288) 
1

>  <s_lp_Variant>  (288) 
99:0-1

>  <s_i_glide_gridfile>  (288) 
pfpi4k_grid

>  <i_i_glide_lignum>  (288) 
18

>  <i_i_glide_rotatable_bonds>  (288) 
12

>  <r_i_docking_score>  (288) 
-3.00922

>  <r_i_glide_ligand_efficiency>  (288) 
-0.0699818

>  <r_i_glide_ligand_efficiency_sa>  (288) 
-0.245174

>  <r_i_glide_ligand_efficiency_ln>  (288) 
-0.632029

>  <r_i_glide_gscore>  (288) 
-3.00922

>  <r_i_glide_lipo>  (288) 
-0.466431

>  <r_i_glide_hbond>  (288) 
-0.124037

>  <r_i_glide_metal>  (288) 
-0

>  <r_i_glide_rewards>  (288) 
-0.610055

>  <r_i_glide_evdw>  (288) 
-29.4131

>  <r_i_glide_ecoul>  (288) 
-2.3124

>  <r_i_glide_erotb>  (288) 
0.100832

>  <r_i_glide_esite>  (288) 
-0.0920142

>  <r_i_glide_emodel>  (288) 
-36.1913

>  <r_i_glide_energy>  (288) 
-31.7255

>  <r_i_glide_einternal>  (288) 
10.8147

>  <r_i_glide_intrahb_reward>  (288) 
-0.5

>  <i_i_glide_confnum>  (288) 
3

>  <i_i_glide_posenum>  (288) 
14

>  <r_i_glide_eff_state_penalty>  (288) 
0

>  <ligand_id>  (288) 
99

>  <original_smiles>  (288) 
CC(=O)OC1C2CC3(C(O)C2C)C(C)(C1OC(C)=O)C(OC(C)=O)C(OC(C)=O)C1C2(C)C(O)CC(O)C2CC(C)C13O

>  <smiles>  (288) 
[H]OC1([H])C([H])([H])C([H])(O[H])C2(C([H])([H])[H])C1([H])C([H])([H])C([H])(C([H])([H])[H])C1(O[H])C2([H])C([H])(OC(=O)C([H])([H])[H])C([H])(OC(=O)C([H])([H])[H])C2(C([H])([H])[H])C([H])(OC(=O)C([H])([H])[H])C([H])(OC(=O)C([H])([H])[H])C3([H])C([H])([H])C12C([H])(O[H])C3([H])C([H])([H])[H]

$$$$
99:0:2
     RDKit          3D

 89 93  0  0  1  0  0  0  0  0999 V2000
   -0.2038   -0.1601    6.7508 C   0  0  0  0  0  0  0  0  0  0  0  0
   -0.5342   -1.6233    6.4153 C   0  0  0  0  0  0  0  0  0  0  0  0
   -1.4934   -1.9111    5.7365 O   0  0  0  0  0  0  0  0  0  0  0  0
    0.3577   -2.4768    6.9694 O   0  0  0  0  0  0  0  0  0  0  0  0
    0.3588   -3.8634    6.6154 C   0  0  2  0  0  0  0  0  0  0  0  0
    0.7908   -4.6937    7.8545 C   0  0  1  0  0  0  0  0  0  0  0  0
    0.7403   -6.1835    7.4969 C   0  0  0  0  0  0  0  0  0  0  0  0
    1.9293   -6.3849    6.5089 C   0  0  2  0  0  0  0  0  0  0  0  0
    3.0100   -5.5989    7.3900 C   0  0  1  0  0  0  0  0  0  0  0  0
    4.1688   -5.0734    6.7652 O   0  0  0  0  0  0  0  0  0  0  0  0
    2.2675   -4.5710    8.2715 C   0  0  1  0  0  0  0  0  0  0  0  0
    2.8850   -3.1608    8.4078 C   0  0  0  0  0  0  0  0  0  0  0  0
    1.5085   -5.6493    5.1426 C   0  0  1  0  0  0  0  0  0  0  0  0
    0.1590   -6.1167    4.4966 C   0  0  0  0  0  0  0  0  0  0  0  0
    1.3651   -4.1182    5.4548 C   0  0  1  0  0  0  0  0  0  0  0  0
    1.0226   -3.3469    4.2947 O   0  0  0  0  0  0  0  0  0  0  0  0
    1.5826   -2.1574    3.9578 C   0  0  0  0  0  0  0  0  0  0  0  0
    2.6855   -1.6013    4.8725 C   0  0  0  0  0  0  0  0  0  0  0  0
    1.2117   -1.4956    2.9793 O   0  0  0  0  0  0  0  0  0  0  0  0
    2.5641   -5.8859    4.0215 C   0  0  1  0  0  0  0  0  0  0  0  0
    3.7420   -5.0763    4.1386 O   0  0  0  0  0  0  0  0  0  0  0  0
    4.1146   -4.2272    3.1533 C   0  0  0  0  0  0  0  0  0  0  0  0
    5.3999   -3.4796    3.4792 C   0  0  0  0  0  0  0  0  0  0  0  0
    3.5341   -4.0460    2.0908 O   0  0  0  0  0  0  0  0  0  0  0  0
    2.9695   -7.3836    3.8441 C   0  0  1  0  0  0  0  0  0  0  0  0
    3.8981   -7.4273    2.7654 O   0  0  0  0  0  0  0  0  0  0  0  0
    3.5120   -7.2133    1.4913 C   0  0  0  0  0  0  0  0  0  0  0  0
    4.6158   -7.4050    0.4794 C   0  0  0  0  0  0  0  0  0  0  0  0
    2.3629   -6.8535    1.1474 O   0  0  0  0  0  0  0  0  0  0  0  0
    3.5038   -8.0100    5.1846 C   0  0  2  0  0  0  0  0  0  0  0  0
    4.1919   -9.4521    5.1521 C   0  0  2  0  0  0  0  0  0  0  0  0
    5.4000   -9.4363    6.1432 C   0  0  0  0  0  0  0  0  0  0  0  0
    4.7049   -9.9836    3.7858 C   0  0  1  0  0  0  0  0  0  0  0  0
    5.9418   -9.4113    3.3551 O   0  0  0  0  0  0  0  0  0  0  0  0
    4.8325  -11.4968    3.9494 C   0  0  0  0  0  0  0  0  0  0  0  0
    3.5968  -11.8686    4.7603 C   0  0  1  0  0  0  0  0  0  0  0  0
    3.8968  -12.9436    5.6318 O   0  0  0  0  0  0  0  0  0  0  0  0
    3.2096  -10.5932    5.5438 C   0  0  2  0  0  0  0  0  0  0  0  0
    1.7511  -10.2237    5.2469 C   0  0  0  0  0  0  0  0  0  0  0  0
    1.2213   -8.9712    5.9762 C   0  0  1  0  0  0  0  0  0  0  0  0
    0.3100   -9.4164    7.1533 C   0  0  0  0  0  0  0  0  0  0  0  0
    2.3527   -7.9085    6.2761 C   0  0  2  0  0  0  0  0  0  0  0  0
    2.8550   -8.3853    7.5207 O   0  0  0  0  0  0  0  0  0  0  0  0
   -0.1784    0.0040    7.8274 H   0  0  0  0  0  0  0  0  0  0  0  0
   -0.9532    0.5032    6.3104 H   0  0  0  0  0  0  0  0  0  0  0  0
    0.7628    0.1181    6.3348 H   0  0  0  0  0  0  0  0  0  0  0  0
   -0.6586   -4.1726    6.3483 H   0  0  0  0  0  0  0  0  0  0  0  0
    0.1290   -4.4583    8.6879 H   0  0  0  0  0  0  0  0  0  0  0  0
    0.9199   -6.7600    8.4036 H   0  0  0  0  0  0  0  0  0  0  0  0
   -0.2397   -6.4837    7.1379 H   0  0  0  0  0  0  0  0  0  0  0  0
    3.4650   -6.2507    8.1255 H   0  0  0  0  0  0  0  0  0  0  0  0
    3.9123   -4.5124    6.0642 H   0  0  0  0  0  0  0  0  0  0  0  0
    2.3033   -4.9742    9.2815 H   0  0  0  0  0  0  0  0  0  0  0  0
    3.0039   -2.6549    7.4494 H   0  0  0  0  0  0  0  0  0  0  0  0
    3.8782   -3.2059    8.8672 H   0  0  0  0  0  0  0  0  0  0  0  0
    2.2665   -2.5254    9.0456 H   0  0  0  0  0  0  0  0  0  0  0  0
   -0.1460   -5.4121    3.7312 H   0  0  0  0  0  0  0  0  0  0  0  0
   -0.6860   -6.1762    5.1717 H   0  0  0  0  0  0  0  0  0  0  0  0
    0.2268   -7.0569    3.9566 H   0  0  0  0  0  0  0  0  0  0  0  0
    2.3395   -3.8103    5.7870 H   0  0  0  0  0  0  0  0  0  0  0  0
    3.4752   -2.3480    5.0068 H   0  0  0  0  0  0  0  0  0  0  0  0
    2.3034   -1.3466    5.8691 H   0  0  0  0  0  0  0  0  0  0  0  0
    3.1566   -0.6959    4.4815 H   0  0  0  0  0  0  0  0  0  0  0  0
    2.0445   -5.5564    3.1207 H   0  0  0  0  0  0  0  0  0  0  0  0
    6.2161   -4.1846    3.5075 H   0  0  0  0  0  0  0  0  0  0  0  0
    5.3400   -2.9755    4.4439 H   0  0  0  0  0  0  0  0  0  0  0  0
    5.6028   -2.7210    2.7183 H   0  0  0  0  0  0  0  0  0  0  0  0
    2.1005   -7.9595    3.5350 H   0  0  0  0  0  0  0  0  0  0  0  0
    5.4935   -6.8221    0.7731 H   0  0  0  0  0  0  0  0  0  0  0  0
    4.3014   -7.0846   -0.5054 H   0  0  0  0  0  0  0  0  0  0  0  0
    4.8996   -8.4578    0.4458 H   0  0  0  0  0  0  0  0  0  0  0  0
    4.3020   -7.3329    5.4983 H   0  0  0  0  0  0  0  0  0  0  0  0
    5.9280  -10.3863    6.1954 H   0  0  0  0  0  0  0  0  0  0  0  0
    5.1180   -9.2006    7.1659 H   0  0  0  0  0  0  0  0  0  0  0  0
    6.1316   -8.6804    5.8568 H   0  0  0  0  0  0  0  0  0  0  0  0
    3.9513   -9.8479    3.0195 H   0  0  0  0  0  0  0  0  0  0  0  0
    6.5808   -9.6151    3.9857 H   0  0  0  0  0  0  0  0  0  0  0  0
    4.8710  -12.0177    2.9946 H   0  0  0  0  0  0  0  0  0  0  0  0
    5.7346  -11.7699    4.4915 H   0  0  0  0  0  0  0  0  0  0  0  0
    2.7975  -12.1588    4.0678 H   0  0  0  0  0  0  0  0  0  0  0  0
    3.0961  -13.2662    6.0507 H   0  0  0  0  0  0  0  0  0  0  0  0
    3.2879  -10.8167    6.6047 H   0  0  0  0  0  0  0  0  0  0  0  0
    1.6460  -10.0832    4.1679 H   0  0  0  0  0  0  0  0  0  0  0  0
    1.1414  -11.0848    5.4948 H   0  0  0  0  0  0  0  0  0  0  0  0
    0.5150   -8.5515    5.2748 H   0  0  0  0  0  0  0  0  0  0  0  0
    0.8395   -9.9865    7.9179 H   0  0  0  0  0  0  0  0  0  0  0  0
   -0.4951  -10.0522    6.7875 H   0  0  0  0  0  0  0  0  0  0  0  0
   -0.1842   -8.5938    7.6526 H   0  0  0  0  0  0  0  0  0  0  0  0
    2.9167   -9.3036    7.4583 H   0  0  0  0  0  0  0  0  0  0  0  0
  1  2  1  0
  1 44  1  0
  1 45  1  0
  1 46  1  0
  2  3  2  0
  2  4  1  0
  4  5  1  0
  5 15  1  0
  5  6  1  0
  5 47  1  6
  6 11  1  0
  6  7  1  0
  6 48  1  1
  8  7  1  1
  7 49  1  0
  7 50  1  0
  8 42  1  0
  8  9  1  0
  8 13  1  0
  9 10  1  0
  9 11  1  0
  9 51  1  1
 10 52  1  0
 11 12  1  0
 11 53  1  1
 12 54  1  0
 12 55  1  0
 12 56  1  0
 13 14  1  6
 13 15  1  0
 13 20  1  0
 14 57  1  0
 14 58  1  0
 14 59  1  0
 15 16  1  0
 15 60  1  1
 16 17  1  0
 17 18  1  0
 17 19  2  0
 18 61  1  0
 18 62  1  0
 18 63  1  0
 20 21  1  0
 20 25  1  0
 20 64  1  6
 21 22  1  0
 22 23  1  0
 22 24  2  0
 23 65  1  0
 23 66  1  0
 23 67  1  0
 25 26  1  0
 25 30  1  0
 25 68  1  6
 26 27  1  0
 27 28  1  0
 27 29  2  0
 28 69  1  0
 28 70  1  0
 28 71  1  0
 30 42  1  0
 30 31  1  0
 30 72  1  1
 31 38  1  0
 31 32  1  1
 31 33  1  0
 32 73  1  0
 32 74  1  0
 32 75  1  0
 33 34  1  0
 33 35  1  0
 33 76  1  6
 34 77  1  0
 35 36  1  0
 35 78  1  0
 35 79  1  0
 36 37  1  0
 36 38  1  0
 36 80  1  6
 37 81  1  0
 38 39  1  0
 38 82  1  1
 39 40  1  0
 39 83  1  0
 39 84  1  0
 40 41  1  0
 40 42  1  0
 40 85  1  6
 41 86  1  0
 41 87  1  0
 41 88  1  0
 42 43  1  1
 43 89  1  0
M  END
>  <i_m_ct_stereo_status>  (289) 
1

>  <s_m_source_file>  (289) 
/var/tmp/pbs.5076255.sched01/tmpua_2_py4/114lbcpx7pn.sdf

>  <i_m_source_file_index>  (289) 
18

>  <i_lp_mmshare_version>  (289) 
48012

>  <i_f3d_flags>  (289) 
0

>  <s_epik_input>  (289) 
W09IXVtDQEhdMVtDQEBIXShbQ0gzXSlbQ0BIXShbQ0gyXTIpW0NAQEhdKE9DKD1PKVtDSDNdKVtDQEhdKE9DKD1PKVtDSDNdKVtDQEBdKFtDQEBdMTIzKShbQ0gzXSlbQ0BASF0oT0MoPU8pW0NIM10pW0NAQEhdKE9DKD1PKVtDSDNdKVtDQEBIXTRbQ0BAXTUoW0NIM10pW0NASF0oW0NASF0oW09IXSlbQ0gyXVtDQEBIXTVbT0hdKVtDSDJdW0NAQEhdKFtDSDNdKVtDQF0zNFtPSF0=

>  <s_epik_cmdline>  (289) 
J2VwaWtfcHl0aG9uJywgJy1waHQnLCAnMi4wJywgJy1waCcsICc3LjAnLCAnLXRuJywgJzgnLCAnLW1hJywgJzIwMCcsICctaW1hZScsICc8aW5maWxlLm1hZT4nLCAnLW9tYWUnLCAnPG91dGZpbGUubWFlPic=

>  <r_lp_tautomer_probability>  (289) 
1

>  <r_epik_Ionization_Penalty>  (289) 
9.8851e-07

>  <r_epik_Ionization_Penalty_Charging>  (289) 
0

>  <r_epik_Ionization_Penalty_Neutral>  (289) 
9.8851e-07

>  <r_epik_State_Penalty>  (289) 
-0

>  <r_epik_Charging_Adjusted_Penalty>  (289) 
0

>  <i_epik_Tot_Q>  (289) 
0

>  <i_epik_Tot_abs_Q>  (289) 
0

>  <s_epik_Chemistry_Notes>  (289) 
This compound has an ester and may undergo hydrolysis at high or low pH.

>  <s_lp_Force_Field>  (289) 
OPLS3e

>  <r_lp_Energy>  (289) 
80.937

>  <b_lp_Chiralities_Consistent>  (289) 
1

>  <s_lp_Variant>  (289) 
99:0-1

>  <s_i_glide_gridfile>  (289) 
pfpi4k_grid

>  <i_i_glide_lignum>  (289) 
18

>  <i_i_glide_rotatable_bonds>  (289) 
12

>  <r_i_docking_score>  (289) 
-2.4938

>  <r_i_glide_ligand_efficiency>  (289) 
-0.0579953

>  <r_i_glide_ligand_efficiency_sa>  (289) 
-0.203181

>  <r_i_glide_ligand_efficiency_ln>  (289) 
-0.523775

>  <r_i_glide_gscore>  (289) 
-2.4938

>  <r_i_glide_lipo>  (289) 
-0.124098

>  <r_i_glide_hbond>  (289) 
-0.16

>  <r_i_glide_metal>  (289) 
-0

>  <r_i_glide_rewards>  (289) 
-0.608429

>  <r_i_glide_evdw>  (289) 
-26.3037

>  <r_i_glide_ecoul>  (289) 
-2.21939

>  <r_i_glide_erotb>  (289) 
0.100832

>  <r_i_glide_esite>  (289) 
-0.054009

>  <r_i_glide_emodel>  (289) 
-33.9878

>  <r_i_glide_energy>  (289) 
-28.5231

>  <r_i_glide_einternal>  (289) 
7.57145

>  <r_i_glide_intrahb_reward>  (289) 
-0.5

>  <i_i_glide_confnum>  (289) 
4

>  <i_i_glide_posenum>  (289) 
6

>  <r_i_glide_eff_state_penalty>  (289) 
0

>  <ligand_id>  (289) 
99

>  <original_smiles>  (289) 
CC(=O)OC1C2CC3(C(O)C2C)C(C)(C1OC(C)=O)C(OC(C)=O)C(OC(C)=O)C1C2(C)C(O)CC(O)C2CC(C)C13O

>  <smiles>  (289) 
[H]OC1([H])C([H])([H])C([H])(O[H])C2(C([H])([H])[H])C1([H])C([H])([H])C([H])(C([H])([H])[H])C1(O[H])C2([H])C([H])(OC(=O)C([H])([H])[H])C([H])(OC(=O)C([H])([H])[H])C2(C([H])([H])[H])C([H])(OC(=O)C([H])([H])[H])C([H])(OC(=O)C([H])([H])[H])C3([H])C([H])([H])C12C([H])(O[H])C3([H])C([H])([H])[H]

$$$$
100:0:0
     RDKit          3D

 41 45  0  0  1  0  0  0  0  0999 V2000
    4.8584   -1.4015   -2.4904 C   0  0  0  0  0  0  0  0  0  0  0  0
    4.3517   -2.1989   -1.2733 C   0  0  1  0  0  0  0  0  0  0  0  0
    2.9992   -2.7893   -1.7596 C   0  0  0  0  0  0  0  0  0  0  0  0
    2.3284   -3.8560   -0.8730 C   0  0  0  0  0  0  0  0  0  0  0  0
    3.2517   -4.6529    0.0409 C   0  0  1  0  0  0  0  0  0  0  0  0
    4.7399   -4.4263   -0.0545 C   0  0  2  0  0  0  0  0  0  0  0  0
    4.0324   -4.1257    1.2416 C   0  0  1  0  0  0  0  0  0  0  0  0
    3.8626   -2.7514    1.9083 C   0  0  1  0  0  0  0  0  0  0  0  0
    2.9555   -2.9701    2.9726 O   0  0  0  0  0  0  0  0  0  0  0  0
    5.1698   -2.2324    2.5383 C   0  0  0  0  0  0  0  0  0  0  0  0
    6.1760   -1.6580    1.5086 C   0  0  1  0  0  0  0  0  0  0  0  0
    7.0459   -2.7290    0.8270 C   0  0  0  0  0  0  0  0  0  0  0  0
    6.7676   -3.0351   -0.6481 C   0  0  0  0  0  0  0  0  0  0  0  0
    5.3098   -3.3932   -1.0031 C   0  0  2  0  0  0  0  0  0  0  0  0
    5.5043   -0.6648    0.5400 C   0  0  0  0  0  0  0  0  0  0  0  0
    4.1911   -1.1920   -0.0835 C   0  0  2  0  0  0  0  0  0  0  0  0
    3.2633   -1.6252    1.0608 C   0  0  0  0  0  0  0  0  0  0  0  0
    4.1265   -0.6556   -2.8102 H   0  0  0  0  0  0  0  0  0  0  0  0
    5.0478   -2.0636   -3.3345 H   0  0  0  0  0  0  0  0  0  0  0  0
    5.7856   -0.8658   -2.2926 H   0  0  0  0  0  0  0  0  0  0  0  0
    2.2870   -1.9816   -1.9389 H   0  0  0  0  0  0  0  0  0  0  0  0
    3.1520   -3.2564   -2.7373 H   0  0  0  0  0  0  0  0  0  0  0  0
    1.5173   -3.4251   -0.3029 H   0  0  0  0  0  0  0  0  0  0  0  0
    1.8128   -4.5625   -1.5237 H   0  0  0  0  0  0  0  0  0  0  0  0
    2.9492   -5.6947    0.1249 H   0  0  0  0  0  0  0  0  0  0  0  0
    5.3433   -5.3281   -0.0409 H   0  0  0  0  0  0  0  0  0  0  0  0
    4.2495   -4.8800    1.9940 H   0  0  0  0  0  0  0  0  0  0  0  0
    2.1372   -3.2527    2.6004 H   0  0  0  0  0  0  0  0  0  0  0  0
    4.9045   -1.4202    3.2211 H   0  0  0  0  0  0  0  0  0  0  0  0
    5.6320   -2.9974    3.1667 H   0  0  0  0  0  0  0  0  0  0  0  0
    6.8763   -1.0598    2.0914 H   0  0  0  0  0  0  0  0  0  0  0  0
    8.0847   -2.4027    0.8800 H   0  0  0  0  0  0  0  0  0  0  0  0
    7.0150   -3.6550    1.4055 H   0  0  0  0  0  0  0  0  0  0  0  0
    7.1446   -2.2332   -1.2833 H   0  0  0  0  0  0  0  0  0  0  0  0
    7.3960   -3.8791   -0.9104 H   0  0  0  0  0  0  0  0  0  0  0  0
    5.3807   -3.9215   -1.9561 H   0  0  0  0  0  0  0  0  0  0  0  0
    5.2518    0.2290    1.1118 H   0  0  0  0  0  0  0  0  0  0  0  0
    6.2119   -0.3154   -0.2116 H   0  0  0  0  0  0  0  0  0  0  0  0
    3.7146   -0.3105   -0.5028 H   0  0  0  0  0  0  0  0  0  0  0  0
    2.2564   -1.8379    0.7251 H   0  0  0  0  0  0  0  0  0  0  0  0
    3.1201   -0.7610    1.7143 H   0  0  0  0  0  0  0  0  0  0  0  0
  2  1  1  6
  1 18  1  0
  1 19  1  0
  1 20  1  0
  2 14  1  0
  2 16  1  0
  2  3  1  0
  3  4  1  0
  3 21  1  0
  3 22  1  0
  4  5  1  0
  4 23  1  0
  4 24  1  0
  5  7  1  0
  5  6  1  0
  5 25  1  1
  6 14  1  0
  6  7  1  0
  6 26  1  1
  7  8  1  0
  7 27  1  1
  8 17  1  0
  8  9  1  1
  8 10  1  0
  9 28  1  0
 10 11  1  0
 10 29  1  0
 10 30  1  0
 11 12  1  0
 11 15  1  0
 11 31  1  1
 12 13  1  0
 12 32  1  0
 12 33  1  0
 13 14  1  0
 13 34  1  0
 13 35  1  0
 14 36  1  6
 15 16  1  0
 15 37  1  0
 15 38  1  0
 16 17  1  0
 16 39  1  6
 17 40  1  0
 17 41  1  0
M  END
>  <i_m_ct_stereo_status>  (290) 
1

>  <s_m_source_file>  (290) 
/var/tmp/pbs.5076255.sched01/tmpua_2_py4/114lbcpx7pn.sdf

>  <i_m_source_file_index>  (290) 
19

>  <i_lp_mmshare_version>  (290) 
48012

>  <i_f3d_flags>  (290) 
0

>  <s_epik_input>  (290) 
W0NIM11bQ0BdMTJbQ0BASF0zW0NAQEhdNFtDQEhdKFtDSDJdW0NIMl0xKVtDQEBIXTRbQ0BAXTUoW09IXSlbQ0gyXVtDQEBIXShbQ0gyXVtDSDJdMylbQ0gyXVtDQEBIXTJbQ0gyXTU=

>  <s_epik_cmdline>  (290) 
J2VwaWtfcHl0aG9uJywgJy1waHQnLCAnMi4wJywgJy1waCcsICc3LjAnLCAnLXRuJywgJzgnLCAnLW1hJywgJzIwMCcsICctaW1hZScsICc8aW5maWxlLm1hZT4nLCAnLW9tYWUnLCAnPG91dGZpbGUubWFlPic=

>  <r_lp_tautomer_probability>  (290) 
1

>  <r_epik_Ionization_Penalty>  (290) 
7.50447e-06

>  <r_epik_Ionization_Penalty_Charging>  (290) 
0

>  <r_epik_Ionization_Penalty_Neutral>  (290) 
7.50447e-06

>  <r_epik_State_Penalty>  (290) 
-0

>  <r_epik_Charging_Adjusted_Penalty>  (290) 
0

>  <i_epik_Tot_Q>  (290) 
0

>  <i_epik_Tot_abs_Q>  (290) 
0

>  <s_lp_Force_Field>  (290) 
OPLS3e

>  <r_lp_Energy>  (290) 
63.1699

>  <b_lp_Chiralities_Consistent>  (290) 
1

>  <s_lp_Variant>  (290) 
100:0-1

>  <s_i_glide_gridfile>  (290) 
pfpi4k_grid

>  <i_i_glide_lignum>  (290) 
19

>  <i_i_glide_rotatable_bonds>  (290) 
1

>  <r_i_docking_score>  (290) 
-3.40604

>  <r_i_glide_ligand_efficiency>  (290) 
-0.200355

>  <r_i_glide_ligand_efficiency_sa>  (290) 
-0.51517

>  <r_i_glide_ligand_efficiency_ln>  (290) 
-0.88856

>  <r_i_glide_gscore>  (290) 
-3.40604

>  <r_i_glide_lipo>  (290) 
-0.617492

>  <r_i_glide_hbond>  (290) 
0

>  <r_i_glide_metal>  (290) 
-0

>  <r_i_glide_rewards>  (290) 
-1.82481

>  <r_i_glide_evdw>  (290) 
-18.36

>  <r_i_glide_ecoul>  (290) 
-0.304926

>  <r_i_glide_erotb>  (290) 
0

>  <r_i_glide_esite>  (290) 
0

>  <r_i_glide_emodel>  (290) 
-22.6981

>  <r_i_glide_energy>  (290) 
-18.6649

>  <r_i_glide_einternal>  (290) 
0.0322172

>  <r_i_glide_intrahb_reward>  (290) 
-0

>  <i_i_glide_confnum>  (290) 
1

>  <i_i_glide_posenum>  (290) 
6

>  <r_i_glide_eff_state_penalty>  (290) 
0

>  <ligand_id>  (290) 
100

>  <original_smiles>  (290) 
CC12CCC3C4C3C3(O)CC(CCC41)CC2C3

>  <smiles>  (290) 
[H]OC12C([H])([H])C3([H])C([H])([H])C([H])([H])C4([H])C5([H])C([H])(C([H])([H])C([H])([H])C4(C([H])([H])[H])C([H])(C3([H])[H])C1([H])[H])C52[H]

$$$$
100:0:1
     RDKit          3D

 41 45  0  0  1  0  0  0  0  0999 V2000
    3.3733   -2.1038   -2.6590 C   0  0  0  0  0  0  0  0  0  0  0  0
    3.6672   -2.7977   -1.3000 C   0  0  1  0  0  0  0  0  0  0  0  0
    2.4184   -3.6861   -1.0198 C   0  0  0  0  0  0  0  0  0  0  0  0
    2.5106   -4.7691    0.0864 C   0  0  0  0  0  0  0  0  0  0  0  0
    3.9028   -5.2350    0.4519 C   0  0  1  0  0  0  0  0  0  0  0  0
    5.0779   -4.7288   -0.3424 C   0  0  2  0  0  0  0  0  0  0  0  0
    4.9871   -4.3950    1.1226 C   0  0  1  0  0  0  0  0  0  0  0  0
    4.8215   -2.9977    1.7393 C   0  0  1  0  0  0  0  0  0  0  0  0
    4.5972   -3.2310    3.1150 O   0  0  0  0  0  0  0  0  0  0  0  0
    6.1127   -2.1662    1.6513 C   0  0  0  0  0  0  0  0  0  0  0  0
    6.3859   -1.5558    0.2588 C   0  0  1  0  0  0  0  0  0  0  0  0
    7.0827   -2.5278   -0.7172 C   0  0  0  0  0  0  0  0  0  0  0  0
    6.2255   -3.0686   -1.8713 C   0  0  0  0  0  0  0  0  0  0  0  0
    4.8938   -3.7371   -1.4740 C   0  0  2  0  0  0  0  0  0  0  0  0
    5.1321   -0.8486   -0.3066 C   0  0  0  0  0  0  0  0  0  0  0  0
    3.8373   -1.6870   -0.2119 C   0  0  2  0  0  0  0  0  0  0  0  0
    3.6551   -2.1311    1.2469 C   0  0  0  0  0  0  0  0  0  0  0  0
    2.4248   -1.5606   -2.6195 H   0  0  0  0  0  0  0  0  0  0  0  0
    3.2935   -2.8400   -3.4636 H   0  0  0  0  0  0  0  0  0  0  0  0
    4.1350   -1.3816   -2.9524 H   0  0  0  0  0  0  0  0  0  0  0  0
    1.5454   -3.0621   -0.8356 H   0  0  0  0  0  0  0  0  0  0  0  0
    2.1769   -4.2190   -1.9421 H   0  0  0  0  0  0  0  0  0  0  0  0
    1.9986   -4.4820    1.0007 H   0  0  0  0  0  0  0  0  0  0  0  0
    1.9521   -5.6390   -0.2577 H   0  0  0  0  0  0  0  0  0  0  0  0
    3.9295   -6.2916    0.7059 H   0  0  0  0  0  0  0  0  0  0  0  0
    5.8174   -5.4834   -0.5879 H   0  0  0  0  0  0  0  0  0  0  0  0
    5.6960   -4.9797    1.7040 H   0  0  0  0  0  0  0  0  0  0  0  0
    3.8460   -3.7974    3.1944 H   0  0  0  0  0  0  0  0  0  0  0  0
    6.0261   -1.3382    2.3589 H   0  0  0  0  0  0  0  0  0  0  0  0
    6.9653   -2.7603    1.9818 H   0  0  0  0  0  0  0  0  0  0  0  0
    7.1191   -0.7707    0.4431 H   0  0  0  0  0  0  0  0  0  0  0  0
    7.9451   -2.0301   -1.1588 H   0  0  0  0  0  0  0  0  0  0  0  0
    7.5157   -3.3599   -0.1627 H   0  0  0  0  0  0  0  0  0  0  0  0
    6.0759   -2.2991   -2.6271 H   0  0  0  0  0  0  0  0  0  0  0  0
    6.8281   -3.8186   -2.3842 H   0  0  0  0  0  0  0  0  0  0  0  0
    4.6429   -4.3656   -2.3306 H   0  0  0  0  0  0  0  0  0  0  0  0
    4.9727    0.0543    0.2847 H   0  0  0  0  0  0  0  0  0  0  0  0
    5.3053   -0.4844   -1.3197 H   0  0  0  0  0  0  0  0  0  0  0  0
    3.0120   -0.9885   -0.3832 H   0  0  0  0  0  0  0  0  0  0  0  0
    2.6815   -2.5762    1.4333 H   0  0  0  0  0  0  0  0  0  0  0  0
    3.6423   -1.2302    1.8664 H   0  0  0  0  0  0  0  0  0  0  0  0
  2  1  1  6
  1 18  1  0
  1 19  1  0
  1 20  1  0
  2 14  1  0
  2 16  1  0
  2  3  1  0
  3  4  1  0
  3 21  1  0
  3 22  1  0
  4  5  1  0
  4 23  1  0
  4 24  1  0
  5  7  1  0
  5  6  1  0
  5 25  1  1
  6 14  1  0
  6  7  1  0
  6 26  1  1
  7  8  1  0
  7 27  1  1
  8 17  1  0
  8  9  1  1
  8 10  1  0
  9 28  1  0
 10 11  1  0
 10 29  1  0
 10 30  1  0
 11 12  1  0
 11 15  1  0
 11 31  1  1
 12 13  1  0
 12 32  1  0
 12 33  1  0
 13 14  1  0
 13 34  1  0
 13 35  1  0
 14 36  1  6
 15 16  1  0
 15 37  1  0
 15 38  1  0
 16 17  1  0
 16 39  1  6
 17 40  1  0
 17 41  1  0
M  END
>  <i_m_ct_stereo_status>  (291) 
1

>  <s_m_source_file>  (291) 
/var/tmp/pbs.5076255.sched01/tmpua_2_py4/114lbcpx7pn.sdf

>  <i_m_source_file_index>  (291) 
19

>  <i_lp_mmshare_version>  (291) 
48012

>  <i_f3d_flags>  (291) 
0

>  <s_epik_input>  (291) 
W0NIM11bQ0BdMTJbQ0BASF0zW0NAQEhdNFtDQEhdKFtDSDJdW0NIMl0xKVtDQEBIXTRbQ0BAXTUoW09IXSlbQ0gyXVtDQEBIXShbQ0gyXVtDSDJdMylbQ0gyXVtDQEBIXTJbQ0gyXTU=

>  <s_epik_cmdline>  (291) 
J2VwaWtfcHl0aG9uJywgJy1waHQnLCAnMi4wJywgJy1waCcsICc3LjAnLCAnLXRuJywgJzgnLCAnLW1hJywgJzIwMCcsICctaW1hZScsICc8aW5maWxlLm1hZT4nLCAnLW9tYWUnLCAnPG91dGZpbGUubWFlPic=

>  <r_lp_tautomer_probability>  (291) 
1

>  <r_epik_Ionization_Penalty>  (291) 
7.50447e-06

>  <r_epik_Ionization_Penalty_Charging>  (291) 
0

>  <r_epik_Ionization_Penalty_Neutral>  (291) 
7.50447e-06

>  <r_epik_State_Penalty>  (291) 
-0

>  <r_epik_Charging_Adjusted_Penalty>  (291) 
0

>  <i_epik_Tot_Q>  (291) 
0

>  <i_epik_Tot_abs_Q>  (291) 
0

>  <s_lp_Force_Field>  (291) 
OPLS3e

>  <r_lp_Energy>  (291) 
63.1699

>  <b_lp_Chiralities_Consistent>  (291) 
1

>  <s_lp_Variant>  (291) 
100:0-1

>  <s_i_glide_gridfile>  (291) 
pfpi4k_grid

>  <i_i_glide_lignum>  (291) 
19

>  <i_i_glide_rotatable_bonds>  (291) 
1

>  <r_i_docking_score>  (291) 
-3.19657

>  <r_i_glide_ligand_efficiency>  (291) 
-0.188033

>  <r_i_glide_ligand_efficiency_sa>  (291) 
-0.483486

>  <r_i_glide_ligand_efficiency_ln>  (291) 
-0.833913

>  <r_i_glide_gscore>  (291) 
-3.19657

>  <r_i_glide_lipo>  (291) 
-0.322386

>  <r_i_glide_hbond>  (291) 
0

>  <r_i_glide_metal>  (291) 
-0

>  <r_i_glide_rewards>  (291) 
-1.82481

>  <r_i_glide_evdw>  (291) 
-20.0482

>  <r_i_glide_ecoul>  (291) 
-0.313044

>  <r_i_glide_erotb>  (291) 
0

>  <r_i_glide_esite>  (291) 
0

>  <r_i_glide_emodel>  (291) 
-24.1745

>  <r_i_glide_energy>  (291) 
-20.3613

>  <r_i_glide_einternal>  (291) 
0.000229738

>  <r_i_glide_intrahb_reward>  (291) 
-0

>  <i_i_glide_confnum>  (291) 
2

>  <i_i_glide_posenum>  (291) 
37

>  <r_i_glide_eff_state_penalty>  (291) 
0

>  <ligand_id>  (291) 
100

>  <original_smiles>  (291) 
CC12CCC3C4C3C3(O)CC(CCC41)CC2C3

>  <smiles>  (291) 
[H]OC12C([H])([H])C3([H])C([H])([H])C([H])([H])C4([H])C5([H])C([H])(C([H])([H])C([H])([H])C4(C([H])([H])[H])C([H])(C3([H])[H])C1([H])[H])C52[H]

$$$$
100:0:2
     RDKit          3D

 41 45  0  0  1  0  0  0  0  0999 V2000
    3.3663   -2.1018   -2.6523 C   0  0  0  0  0  0  0  0  0  0  0  0
    3.6628   -2.7996   -1.2955 C   0  0  1  0  0  0  0  0  0  0  0  0
    2.4139   -3.6830   -1.0163 C   0  0  0  0  0  0  0  0  0  0  0  0
    2.5077   -4.7694    0.0853 C   0  0  0  0  0  0  0  0  0  0  0  0
    3.9016   -5.2362    0.4462 C   0  0  1  0  0  0  0  0  0  0  0  0
    5.0734   -4.7305   -0.3483 C   0  0  2  0  0  0  0  0  0  0  0  0
    4.9862   -4.4001    1.1172 C   0  0  1  0  0  0  0  0  0  0  0  0
    4.8230   -3.0103    1.7449 C   0  0  1  0  0  0  0  0  0  0  0  0
    4.5986   -3.2696    3.1209 O   0  0  0  0  0  0  0  0  0  0  0  0
    6.1170   -2.1752    1.6526 C   0  0  0  0  0  0  0  0  0  0  0  0
    6.3854   -1.5620    0.2584 C   0  0  1  0  0  0  0  0  0  0  0  0
    7.0791   -2.5316   -0.7182 C   0  0  0  0  0  0  0  0  0  0  0  0
    6.2232   -3.0677   -1.8728 C   0  0  0  0  0  0  0  0  0  0  0  0
    4.8903   -3.7398   -1.4747 C   0  0  2  0  0  0  0  0  0  0  0  0
    5.1305   -0.8536   -0.3026 C   0  0  0  0  0  0  0  0  0  0  0  0
    3.8342   -1.6934   -0.2057 C   0  0  2  0  0  0  0  0  0  0  0  0
    3.6568   -2.1368    1.2554 C   0  0  0  0  0  0  0  0  0  0  0  0
    2.4192   -1.5574   -2.6090 H   0  0  0  0  0  0  0  0  0  0  0  0
    3.2853   -2.8353   -3.4589 H   0  0  0  0  0  0  0  0  0  0  0  0
    4.1289   -1.3786   -2.9453 H   0  0  0  0  0  0  0  0  0  0  0  0
    1.5479   -3.0597   -0.8319 H   0  0  0  0  0  0  0  0  0  0  0  0
    2.1713   -4.2172   -1.9363 H   0  0  0  0  0  0  0  0  0  0  0  0
    1.9985   -4.4880    1.0051 H   0  0  0  0  0  0  0  0  0  0  0  0
    1.9491   -5.6439   -0.2554 H   0  0  0  0  0  0  0  0  0  0  0  0
    3.9285   -6.2934    0.7083 H   0  0  0  0  0  0  0  0  0  0  0  0
    5.8133   -5.4841   -0.5932 H   0  0  0  0  0  0  0  0  0  0  0  0
    5.6935   -4.9874    1.7011 H   0  0  0  0  0  0  0  0  0  0  0  0
    4.5089   -2.4432    3.5648 H   0  0  0  0  0  0  0  0  0  0  0  0
    6.0389   -1.3450    2.3599 H   0  0  0  0  0  0  0  0  0  0  0  0
    6.9688   -2.7715    1.9747 H   0  0  0  0  0  0  0  0  0  0  0  0
    7.1213   -0.7766    0.4420 H   0  0  0  0  0  0  0  0  0  0  0  0
    7.9442   -2.0362   -1.1604 H   0  0  0  0  0  0  0  0  0  0  0  0
    7.5121   -3.3674   -0.1675 H   0  0  0  0  0  0  0  0  0  0  0  0
    6.0705   -2.2961   -2.6268 H   0  0  0  0  0  0  0  0  0  0  0  0
    6.8210   -3.8166   -2.3895 H   0  0  0  0  0  0  0  0  0  0  0  0
    4.6357   -4.3646   -2.3345 H   0  0  0  0  0  0  0  0  0  0  0  0
    4.9740    0.0505    0.2906 H   0  0  0  0  0  0  0  0  0  0  0  0
    5.3032   -0.4864   -1.3151 H   0  0  0  0  0  0  0  0  0  0  0  0
    3.0155   -0.9910   -0.3761 H   0  0  0  0  0  0  0  0  0  0  0  0
    2.6855   -2.5845    1.4411 H   0  0  0  0  0  0  0  0  0  0  0  0
    3.6408   -1.2327    1.8718 H   0  0  0  0  0  0  0  0  0  0  0  0
  2  1  1  6
  1 18  1  0
  1 19  1  0
  1 20  1  0
  2 14  1  0
  2 16  1  0
  2  3  1  0
  3  4  1  0
  3 21  1  0
  3 22  1  0
  4  5  1  0
  4 23  1  0
  4 24  1  0
  5  7  1  0
  5  6  1  0
  5 25  1  1
  6 14  1  0
  6  7  1  0
  6 26  1  1
  7  8  1  0
  7 27  1  1
  8 17  1  0
  8  9  1  1
  8 10  1  0
  9 28  1  0
 10 11  1  0
 10 29  1  0
 10 30  1  0
 11 12  1  0
 11 15  1  0
 11 31  1  1
 12 13  1  0
 12 32  1  0
 12 33  1  0
 13 14  1  0
 13 34  1  0
 13 35  1  0
 14 36  1  6
 15 16  1  0
 15 37  1  0
 15 38  1  0
 16 17  1  0
 16 39  1  6
 17 40  1  0
 17 41  1  0
M  END
>  <i_m_ct_stereo_status>  (292) 
1

>  <s_m_source_file>  (292) 
/var/tmp/pbs.5076255.sched01/tmpua_2_py4/114lbcpx7pn.sdf

>  <i_m_source_file_index>  (292) 
19

>  <i_lp_mmshare_version>  (292) 
48012

>  <i_f3d_flags>  (292) 
0

>  <s_epik_input>  (292) 
W0NIM11bQ0BdMTJbQ0BASF0zW0NAQEhdNFtDQEhdKFtDSDJdW0NIMl0xKVtDQEBIXTRbQ0BAXTUoW09IXSlbQ0gyXVtDQEBIXShbQ0gyXVtDSDJdMylbQ0gyXVtDQEBIXTJbQ0gyXTU=

>  <s_epik_cmdline>  (292) 
J2VwaWtfcHl0aG9uJywgJy1waHQnLCAnMi4wJywgJy1waCcsICc3LjAnLCAnLXRuJywgJzgnLCAnLW1hJywgJzIwMCcsICctaW1hZScsICc8aW5maWxlLm1hZT4nLCAnLW9tYWUnLCAnPG91dGZpbGUubWFlPic=

>  <r_lp_tautomer_probability>  (292) 
1

>  <r_epik_Ionization_Penalty>  (292) 
7.50447e-06

>  <r_epik_Ionization_Penalty_Charging>  (292) 
0

>  <r_epik_Ionization_Penalty_Neutral>  (292) 
7.50447e-06

>  <r_epik_State_Penalty>  (292) 
-0

>  <r_epik_Charging_Adjusted_Penalty>  (292) 
0

>  <i_epik_Tot_Q>  (292) 
0

>  <i_epik_Tot_abs_Q>  (292) 
0

>  <s_lp_Force_Field>  (292) 
OPLS3e

>  <r_lp_Energy>  (292) 
63.1699

>  <b_lp_Chiralities_Consistent>  (292) 
1

>  <s_lp_Variant>  (292) 
100:0-1

>  <s_i_glide_gridfile>  (292) 
pfpi4k_grid

>  <i_i_glide_lignum>  (292) 
19

>  <i_i_glide_rotatable_bonds>  (292) 
1

>  <r_i_docking_score>  (292) 
-3.15938

>  <r_i_glide_ligand_efficiency>  (292) 
-0.185846

>  <r_i_glide_ligand_efficiency_sa>  (292) 
-0.477863

>  <r_i_glide_ligand_efficiency_ln>  (292) 
-0.824213

>  <r_i_glide_gscore>  (292) 
-3.15938

>  <r_i_glide_lipo>  (292) 
-0.320599

>  <r_i_glide_hbond>  (292) 
0

>  <r_i_glide_metal>  (292) 
-0

>  <r_i_glide_rewards>  (292) 
-1.82481

>  <r_i_glide_evdw>  (292) 
-20.0918

>  <r_i_glide_ecoul>  (292) 
-0.0625452

>  <r_i_glide_erotb>  (292) 
0

>  <r_i_glide_esite>  (292) 
0

>  <r_i_glide_emodel>  (292) 
-23.924

>  <r_i_glide_energy>  (292) 
-20.1544

>  <r_i_glide_einternal>  (292) 
0.0142816

>  <r_i_glide_intrahb_reward>  (292) 
-0

>  <i_i_glide_confnum>  (292) 
2

>  <i_i_glide_posenum>  (292) 
33

>  <r_i_glide_eff_state_penalty>  (292) 
0

>  <ligand_id>  (292) 
100

>  <original_smiles>  (292) 
CC12CCC3C4C3C3(O)CC(CCC41)CC2C3

>  <smiles>  (292) 
[H]OC12C([H])([H])C3([H])C([H])([H])C([H])([H])C4([H])C5([H])C([H])(C([H])([H])C([H])([H])C4(C([H])([H])[H])C([H])(C3([H])[H])C1([H])[H])C52[H]

$$$$
101:0:0
     RDKit          3D

 66 70  0  0  1  0  0  0  0  0999 V2000
    3.0912   -2.8228   -2.5182 C   0  0  0  0  0  0  0  0  0  0  0  0
    4.2995   -2.7625   -1.5566 C   0  0  0  0  0  0  0  0  0  0  0  0
    5.4549   -3.5016   -2.2726 C   0  0  0  0  0  0  0  0  0  0  0  0
    4.6866   -1.2960   -1.3530 C   0  0  0  0  0  0  0  0  0  0  0  0
    5.3386   -1.2701    0.0145 C   0  0  0  0  0  0  0  0  0  0  0  0
    6.1780   -0.4276    0.3456 O   0  0  0  0  0  0  0  0  0  0  0  0
    4.8418   -2.3989    0.9231 C   0  0  2  0  0  0  0  0  0  0  0  0
    6.0942   -3.1446    1.4945 C   0  0  0  0  0  0  0  0  0  0  0  0
    6.9151   -3.8090    0.5514 O   0  0  0  0  0  0  0  0  0  0  0  0
    4.0755   -3.3305   -0.0979 C   0  0  1  0  0  0  0  0  0  0  0  0
    2.6156   -3.6103    0.3404 C   0  0  1  0  0  0  0  0  0  0  0  0
    2.0644   -4.7086   -0.3555 O   0  0  0  0  0  0  0  0  0  0  0  0
    2.4904   -3.9628    1.8424 C   0  0  1  0  0  0  0  0  0  0  0  0
    3.0913   -5.2229    2.1118 O   0  0  0  0  0  0  0  0  0  0  0  0
    3.0830   -2.9137    2.7765 C   0  0  0  0  0  0  0  0  0  0  0  0
    2.8274   -2.9540    4.1157 C   0  0  0  0  0  0  0  0  0  0  0  0
    1.9391   -3.9676    4.8527 C   0  0  0  0  0  0  0  0  0  0  0  0
    2.5874   -4.5788    6.1283 C   0  0  0  0  0  0  0  0  0  0  0  0
    3.3667   -3.5494    6.9651 C   0  0  0  0  0  0  0  0  0  0  0  0
    3.2584   -3.4769    8.1895 O   0  0  0  0  0  0  0  0  0  0  0  0
    4.2912   -2.6349    6.1509 C   0  0  2  0  0  0  0  0  0  0  0  0
    5.4395   -3.5210    5.6020 C   0  0  0  0  0  0  0  0  0  0  0  0
    4.8749   -1.4029    6.8484 C   0  0  0  0  0  0  0  0  0  0  0  0
    5.1816   -0.4384    5.6794 C   0  0  0  0  0  0  0  0  0  0  0  0
    4.1291   -0.7145    4.5625 C   0  0  1  0  0  0  0  0  0  0  0  0
    3.1942    0.5186    4.4835 C   0  0  0  0  0  0  0  0  0  0  0  0
    4.7908   -1.0630    3.2009 C   0  0  0  0  0  0  0  0  0  0  0  0
    3.9206   -1.7998    2.1075 C   0  0  1  0  0  0  0  0  0  0  0  0
    2.9063   -0.7287    1.5796 C   0  0  0  0  0  0  0  0  0  0  0  0
    3.3930   -1.9494    5.1013 C   0  0  1  0  0  0  0  0  0  0  0  0
    3.3277   -2.3172   -3.4570 H   0  0  0  0  0  0  0  0  0  0  0  0
    2.2124   -2.3169   -2.1196 H   0  0  0  0  0  0  0  0  0  0  0  0
    2.8169   -3.8465   -2.7763 H   0  0  0  0  0  0  0  0  0  0  0  0
    6.4189   -3.3877   -1.7775 H   0  0  0  0  0  0  0  0  0  0  0  0
    5.5776   -3.1470   -3.2999 H   0  0  0  0  0  0  0  0  0  0  0  0
    5.2354   -4.5694   -2.3484 H   0  0  0  0  0  0  0  0  0  0  0  0
    5.3610   -0.9218   -2.1195 H   0  0  0  0  0  0  0  0  0  0  0  0
    3.8072   -0.6509   -1.3498 H   0  0  0  0  0  0  0  0  0  0  0  0
    6.7832   -2.4368    1.9537 H   0  0  0  0  0  0  0  0  0  0  0  0
    5.7969   -3.8528    2.2691 H   0  0  0  0  0  0  0  0  0  0  0  0
    6.3855   -4.3682    0.0052 H   0  0  0  0  0  0  0  0  0  0  0  0
    4.5302   -4.3177   -0.0621 H   0  0  0  0  0  0  0  0  0  0  0  0
    1.9732   -2.7579    0.1181 H   0  0  0  0  0  0  0  0  0  0  0  0
    2.4780   -4.7693   -1.2064 H   0  0  0  0  0  0  0  0  0  0  0  0
    1.4281   -4.0521    2.0832 H   0  0  0  0  0  0  0  0  0  0  0  0
    3.9612   -5.2304    1.7597 H   0  0  0  0  0  0  0  0  0  0  0  0
    1.0337   -3.4395    5.1544 H   0  0  0  0  0  0  0  0  0  0  0  0
    1.6060   -4.7768    4.2055 H   0  0  0  0  0  0  0  0  0  0  0  0
    1.8338   -5.0631    6.7477 H   0  0  0  0  0  0  0  0  0  0  0  0
    3.2888   -5.3600    5.8340 H   0  0  0  0  0  0  0  0  0  0  0  0
    6.2117   -2.9563    5.0919 H   0  0  0  0  0  0  0  0  0  0  0  0
    5.0891   -4.2904    4.9122 H   0  0  0  0  0  0  0  0  0  0  0  0
    5.9449   -4.0312    6.4245 H   0  0  0  0  0  0  0  0  0  0  0  0
    4.1427   -0.9565    7.5244 H   0  0  0  0  0  0  0  0  0  0  0  0
    5.7623   -1.6330    7.4388 H   0  0  0  0  0  0  0  0  0  0  0  0
    5.1866    0.5978    6.0181 H   0  0  0  0  0  0  0  0  0  0  0  0
    6.1911   -0.6261    5.3141 H   0  0  0  0  0  0  0  0  0  0  0  0
    2.2461    0.2980    3.9973 H   0  0  0  0  0  0  0  0  0  0  0  0
    3.6684    1.3415    3.9469 H   0  0  0  0  0  0  0  0  0  0  0  0
    2.9397    0.8866    5.4778 H   0  0  0  0  0  0  0  0  0  0  0  0
    5.2570   -0.1702    2.7887 H   0  0  0  0  0  0  0  0  0  0  0  0
    5.6126   -1.7073    3.4717 H   0  0  0  0  0  0  0  0  0  0  0  0
    3.2989    0.2842    1.6578 H   0  0  0  0  0  0  0  0  0  0  0  0
    1.9636   -0.7528    2.1304 H   0  0  0  0  0  0  0  0  0  0  0  0
    2.6316   -0.8434    0.5384 H   0  0  0  0  0  0  0  0  0  0  0  0
    2.5160   -1.5579    5.6271 H   0  0  0  0  0  0  0  0  0  0  0  0
  1  2  1  0
  1 31  1  0
  1 32  1  0
  1 33  1  0
  2 10  1  0
  2  3  1  0
  2  4  1  0
  3 34  1  0
  3 35  1  0
  3 36  1  0
  4  5  1  0
  4 37  1  0
  4 38  1  0
  5  6  2  0
  5  7  1  0
  7 28  1  0
  7  8  1  1
  7 10  1  0
  8  9  1  0
  8 39  1  0
  8 40  1  0
  9 41  1  0
 10 11  1  0
 10 42  1  6
 11 12  1  0
 11 13  1  0
 11 43  1  1
 12 44  1  0
 13 14  1  0
 13 15  1  0
 13 45  1  1
 14 46  1  0
 15 28  1  0
 15 16  2  0
 16 30  1  0
 16 17  1  0
 17 18  1  0
 17 47  1  0
 17 48  1  0
 18 19  1  0
 18 49  1  0
 18 50  1  0
 19 20  2  0
 19 21  1  0
 21 30  1  0
 21 22  1  6
 21 23  1  0
 22 51  1  0
 22 52  1  0
 22 53  1  0
 23 24  1  0
 23 54  1  0
 23 55  1  0
 24 25  1  0
 24 56  1  0
 24 57  1  0
 25 26  1  6
 25 27  1  0
 25 30  1  0
 26 58  1  0
 26 59  1  0
 26 60  1  0
 27 28  1  0
 27 61  1  0
 27 62  1  0
 28 29  1  6
 29 63  1  0
 29 64  1  0
 29 65  1  0
 30 66  1  1
M  END
>  <i_m_ct_stereo_status>  (293) 
1

>  <s_m_source_file>  (293) 
/var/tmp/pbs.5076255.sched01/tmpua_2_py4/114lbcpx7pn.sdf

>  <i_m_source_file_index>  (293) 
20

>  <i_lp_mmshare_version>  (293) 
48012

>  <i_f3d_flags>  (293) 
0

>  <s_epik_input>  (293) 
Tz1DMVtDSDJdQyhbQ0gzXSkoW0NIM10pW0NAQEhdKFtDQEBdMTJbQ0gyXVtPSF0pW0NAQEhdKFtPSF0pW0NAQEhdKFtPSF0pQzM9QzRbQ0BIXTVbQ0BdKFtDSDNdKShDKD1PKVtDSDJdW0NIMl00KVtDSDJdW0NIMl1bQ0BAXTUoW0NIM10pW0NIMl1bQ0BAXTIzW0NIM10=

>  <s_epik_cmdline>  (293) 
J2VwaWtfcHl0aG9uJywgJy1waHQnLCAnMi4wJywgJy1waCcsICc3LjAnLCAnLXRuJywgJzgnLCAnLW1hJywgJzIwMCcsICctaW1hZScsICc8aW5maWxlLm1hZT4nLCAnLW9tYWUnLCAnPG91dGZpbGUubWFlPic=

>  <r_lp_tautomer_probability>  (293) 
1

>  <r_epik_Ionization_Penalty>  (293) 
2.96228e-07

>  <r_epik_Ionization_Penalty_Charging>  (293) 
0

>  <r_epik_Ionization_Penalty_Neutral>  (293) 
2.96228e-07

>  <r_epik_State_Penalty>  (293) 
-0

>  <r_epik_Charging_Adjusted_Penalty>  (293) 
0

>  <i_epik_Tot_Q>  (293) 
0

>  <i_epik_Tot_abs_Q>  (293) 
0

>  <s_lp_Force_Field>  (293) 
OPLS3e

>  <r_lp_Energy>  (293) 
64.2251

>  <b_lp_Chiralities_Consistent>  (293) 
1

>  <s_lp_Variant>  (293) 
101:0-1

>  <s_i_glide_gridfile>  (293) 
pfpi4k_grid

>  <i_i_glide_lignum>  (293) 
20

>  <i_i_glide_rotatable_bonds>  (293) 
4

>  <r_i_docking_score>  (293) 
-2.67921

>  <r_i_glide_ligand_efficiency>  (293) 
-0.089307

>  <r_i_glide_ligand_efficiency_sa>  (293) 
-0.277498

>  <r_i_glide_ligand_efficiency_ln>  (293) 
-0.608746

>  <r_i_glide_gscore>  (293) 
-2.67921

>  <r_i_glide_lipo>  (293) 
-0.423444

>  <r_i_glide_hbond>  (293) 
0

>  <r_i_glide_metal>  (293) 
-0

>  <r_i_glide_rewards>  (293) 
-0.571855

>  <r_i_glide_evdw>  (293) 
-19.5364

>  <r_i_glide_ecoul>  (293) 
-5.47303

>  <r_i_glide_erotb>  (293) 
0.113864

>  <r_i_glide_esite>  (293) 
0

>  <r_i_glide_emodel>  (293) 
-28.0897

>  <r_i_glide_energy>  (293) 
-25.0094

>  <r_i_glide_einternal>  (293) 
1.22602

>  <r_i_glide_intrahb_reward>  (293) 
-0

>  <i_i_glide_confnum>  (293) 
1

>  <i_i_glide_posenum>  (293) 
25

>  <r_i_glide_eff_state_penalty>  (293) 
0

>  <ligand_id>  (293) 
101

>  <original_smiles>  (293) 
CC1(C)CC(=O)C2(CO)C1C(O)C(O)C1=C3CCC(=O)C4(C)CCC(C)(CC12C)C34

>  <smiles>  (293) 
[H]OC([H])([H])C12C(=O)C([H])([H])C(C([H])([H])[H])(C([H])([H])[H])C1([H])C([H])(O[H])C([H])(O[H])C1=C3C([H])([H])C([H])([H])C(=O)C4(C([H])([H])[H])C([H])([H])C([H])([H])C(C([H])([H])[H])(C([H])([H])C12C([H])([H])[H])C34[H]

$$$$
102:0:0
     RDKit          3D

 40 43  0  0  1  0  0  0  0  0999 V2000
    1.5582   -3.1801   -2.3229 C   0  0  0  0  0  0  0  0  0  0  0  0
    2.7674   -3.5234   -1.4697 C   0  0  2  0  0  0  0  0  0  0  0  0
    2.4280   -3.3591    0.0275 C   0  0  0  0  0  0  0  0  0  0  0  0
    3.6835   -3.4433    0.7990 C   0  0  1  0  0  0  0  0  0  0  0  0
    4.3130   -2.0750    0.6712 C   0  0  2  0  0  0  0  0  0  0  0  0
    5.2372   -2.0610   -0.5197 C   0  0  1  0  0  0  0  0  0  0  0  0
    6.5998   -1.5026   -0.2332 C   0  0  0  0  0  0  0  0  0  0  0  0
    5.2551   -3.3355   -1.2890 O   0  0  0  0  0  0  0  0  0  0  0  0
    4.0907   -2.9128   -2.0597 C   0  0  1  0  0  0  0  0  0  0  0  0
    4.2287   -3.0447   -3.6063 C   0  0  0  0  0  0  0  0  0  0  0  0
    3.5596   -1.8633   -4.3521 C   0  0  0  0  0  0  0  0  0  0  0  0
    3.9722   -0.4972   -3.8643 C   0  0  0  0  0  0  0  0  0  0  0  0
    3.8786    0.4669   -4.5943 O   0  0  0  0  0  0  0  0  0  0  0  0
    4.5583   -0.4230   -2.5016 C   0  0  0  0  0  0  0  0  0  0  0  0
    4.4682   -1.5017   -1.7160 C   0  0  0  0  0  0  0  0  0  0  0  0
    4.2368   -2.7641    2.0073 C   0  0  0  0  0  0  0  0  0  0  0  0
    3.2388   -2.3264    3.0588 C   0  0  0  0  0  0  0  0  0  0  0  0
    5.4863   -3.2897    2.6492 C   0  0  0  0  0  0  0  0  0  0  0  0
    1.4973   -2.1041   -2.4028 H   0  0  0  0  0  0  0  0  0  0  0  0
    0.6156   -3.5273   -1.8991 H   0  0  0  0  0  0  0  0  0  0  0  0
    1.6225   -3.5568   -3.3377 H   0  0  0  0  0  0  0  0  0  0  0  0
    2.8912   -4.5855   -1.4699 H   0  0  0  0  0  0  0  0  0  0  0  0
    1.8710   -2.4519    0.2989 H   0  0  0  0  0  0  0  0  0  0  0  0
    1.8164   -4.2137    0.3212 H   0  0  0  0  0  0  0  0  0  0  0  0
    4.2515   -4.3433    0.5700 H   0  0  0  0  0  0  0  0  0  0  0  0
    3.6940   -1.1835    0.6876 H   0  0  0  0  0  0  0  0  0  0  0  0
    6.5274   -0.4923    0.1694 H   0  0  0  0  0  0  0  0  0  0  0  0
    7.2197   -1.5325   -1.1180 H   0  0  0  0  0  0  0  0  0  0  0  0
    7.0959   -2.1149    0.5157 H   0  0  0  0  0  0  0  0  0  0  0  0
    5.2868   -3.0983   -3.8749 H   0  0  0  0  0  0  0  0  0  0  0  0
    3.7988   -3.9681   -3.9561 H   0  0  0  0  0  0  0  0  0  0  0  0
    3.8338   -1.8769   -5.3977 H   0  0  0  0  0  0  0  0  0  0  0  0
    2.4734   -1.8775   -4.3497 H   0  0  0  0  0  0  0  0  0  0  0  0
    5.1409    0.4718   -2.3473 H   0  0  0  0  0  0  0  0  0  0  0  0
    3.6500   -1.5081    3.6597 H   0  0  0  0  0  0  0  0  0  0  0  0
    2.9855   -3.1669    3.7186 H   0  0  0  0  0  0  0  0  0  0  0  0
    2.3160   -1.9794    2.5849 H   0  0  0  0  0  0  0  0  0  0  0  0
    5.9911   -2.4645    3.1582 H   0  0  0  0  0  0  0  0  0  0  0  0
    6.1531   -3.7003    1.8835 H   0  0  0  0  0  0  0  0  0  0  0  0
    5.2549   -4.0854    3.3687 H   0  0  0  0  0  0  0  0  0  0  0  0
  1  2  1  0
  1 19  1  0
  1 20  1  0
  1 21  1  0
  2  9  1  0
  2  3  1  0
  2 22  1  1
  3  4  1  0
  3 23  1  0
  3 24  1  0
  4 16  1  0
  4  5  1  0
  4 25  1  6
  5  6  1  0
  5 16  1  0
  5 26  1  1
  6 15  1  0
  6  7  1  1
  6  8  1  0
  7 27  1  0
  7 28  1  0
  7 29  1  0
  8  9  1  0
  9 15  1  0
  9 10  1  6
 10 11  1  0
 10 30  1  0
 10 31  1  0
 11 12  1  0
 11 32  1  0
 11 33  1  0
 12 13  2  0
 12 14  1  0
 14 15  2  0
 14 34  1  0
 16 17  1  0
 16 18  1  0
 17 35  1  0
 17 36  1  0
 17 37  1  0
 18 38  1  0
 18 39  1  0
 18 40  1  0
M  END
>  <i_m_ct_stereo_status>  (294) 
1

>  <s_m_source_file>  (294) 
/var/tmp/pbs.5076255.sched01/tmpua_2_py4/114lbcpx7pn.sdf

>  <i_m_source_file_index>  (294) 
21

>  <i_lp_mmshare_version>  (294) 
48012

>  <i_f3d_flags>  (294) 
0

>  <s_epik_input>  (294) 
W0NIM11bQ0BASF0xW0NIMl1bQ0BIXShDMihbQ0gzXSlbQ0gzXSlbQ0BASF0yW0NAXShPMykoW0NIM10pQyhbQ0BdMTM0KT1bQ0hdQyg9TylbQ0gyXVtDSDJdNA==

>  <s_epik_cmdline>  (294) 
J2VwaWtfcHl0aG9uJywgJy1waHQnLCAnMi4wJywgJy1waCcsICc3LjAnLCAnLXRuJywgJzgnLCAnLW1hJywgJzIwMCcsICctaW1hZScsICc8aW5maWxlLm1hZT4nLCAnLW9tYWUnLCAnPG91dGZpbGUubWFlPic=

>  <r_lp_tautomer_probability>  (294) 
1

>  <r_epik_Ionization_Penalty>  (294) 
2.92059e-14

>  <r_epik_Ionization_Penalty_Charging>  (294) 
0

>  <r_epik_Ionization_Penalty_Neutral>  (294) 
2.92059e-14

>  <r_epik_State_Penalty>  (294) 
-0

>  <r_epik_Charging_Adjusted_Penalty>  (294) 
0

>  <i_epik_Tot_Q>  (294) 
0

>  <i_epik_Tot_abs_Q>  (294) 
0

>  <s_lp_Force_Field>  (294) 
OPLS3e

>  <r_lp_Energy>  (294) 
54.7884

>  <b_lp_Chiralities_Consistent>  (294) 
1

>  <s_lp_Variant>  (294) 
102:0-1

>  <s_i_glide_gridfile>  (294) 
pfpi4k_grid

>  <i_i_glide_lignum>  (294) 
21

>  <i_i_glide_rotatable_bonds>  (294) 
0

>  <r_i_docking_score>  (294) 
-2.6938

>  <r_i_glide_ligand_efficiency>  (294) 
-0.149655

>  <r_i_glide_ligand_efficiency_sa>  (294) 
-0.392208

>  <r_i_glide_ligand_efficiency_ln>  (294) 
-0.692427

>  <r_i_glide_gscore>  (294) 
-2.6938

>  <r_i_glide_lipo>  (294) 
-0.356024

>  <r_i_glide_hbond>  (294) 
0

>  <r_i_glide_metal>  (294) 
-0

>  <r_i_glide_rewards>  (294) 
-2.08026

>  <r_i_glide_evdw>  (294) 
-7.7599

>  <r_i_glide_ecoul>  (294) 
0.869875

>  <r_i_glide_erotb>  (294) 
0

>  <r_i_glide_esite>  (294) 
0

>  <r_i_glide_emodel>  (294) 
-8.67429

>  <r_i_glide_energy>  (294) 
-6.89002

>  <r_i_glide_einternal>  (294) 
0

>  <r_i_glide_intrahb_reward>  (294) 
-0

>  <i_i_glide_confnum>  (294) 
1

>  <i_i_glide_posenum>  (294) 
11

>  <r_i_glide_eff_state_penalty>  (294) 
0

>  <ligand_id>  (294) 
102

>  <original_smiles>  (294) 
CC1CC2C(C3(C)OC14CCC(=O)C=C34)C2(C)C

>  <smiles>  (294) 
[H]C1=C2C3(OC2(C([H])([H])[H])C2([H])C([H])(C([H])([H])C3([H])C([H])([H])[H])C2(C([H])([H])[H])C([H])([H])[H])C([H])([H])C([H])([H])C1=O

$$$$
103:0:0
     RDKit          3D

 88 96  0  0  1  0  0  0  0  0999 V2000
    7.2565  -12.0238    2.2729 C   0  0  0  0  0  0  0  0  0  0  0  0
    7.4982  -11.2540    3.4328 O   0  0  0  0  0  0  0  0  0  0  0  0
    6.7667  -11.6442    4.5820 C   0  0  2  0  0  0  0  0  0  0  0  0
    5.4904  -10.7588    4.6060 C   0  0  1  0  0  0  0  0  0  0  0  0
    5.0109   -9.8929    3.4623 C   0  0  2  0  0  0  0  0  0  0  0  0
    4.7670   -8.4833    3.7636 O   0  0  0  0  0  0  0  0  0  0  0  0
    3.6858   -9.3900    3.9770 C   0  0  1  0  0  0  0  0  0  0  0  0
    2.3381   -9.3261    3.3519 C   0  0  2  0  0  0  0  0  0  0  0  0
    2.3129  -10.0285    2.1167 O   0  0  0  0  0  0  0  0  0  0  0  0
    1.9034   -7.8642    3.0904 C   0  0  1  0  0  0  0  0  0  0  0  0
    1.8862   -7.5167    1.7106 O   0  0  0  0  0  0  0  0  0  0  0  0
    0.5849   -7.4549    3.6864 C   0  0  2  0  0  0  0  0  0  0  0  0
   -0.0216   -8.2521    4.8043 C   0  0  2  0  0  0  0  0  0  0  0  0
    0.5833   -9.5447    5.3239 C   0  0  0  0  0  0  0  0  0  0  0  0
    1.8175  -10.1299    4.5895 C   0  0  1  0  0  0  0  0  0  0  0  0
    1.3499  -11.5918    4.3033 C   0  0  0  0  0  0  0  0  0  0  0  0
    3.2829  -10.0481    5.2678 C   0  0  1  0  0  0  0  0  0  0  0  0
    4.2031  -11.2955    5.2133 C   0  0  2  0  0  0  0  0  0  0  0  0
    4.1445  -12.3401    6.3369 C   0  0  0  0  0  0  0  0  0  0  0  0
    4.6140  -12.0531    7.7689 C   0  0  0  0  0  0  0  0  0  0  0  0
    6.0231  -11.5023    7.8768 C   0  0  1  0  0  0  0  0  0  0  0  0
    7.0389  -12.3700    7.0901 C   0  0  0  0  0  0  0  0  0  0  0  0
    7.6209  -11.5206    5.9320 C   0  0  1  0  0  0  0  0  0  0  0  0
    9.1192  -11.9054    5.7344 C   0  0  0  0  0  0  0  0  0  0  0  0
    9.9593  -10.8365    4.9912 C   0  0  0  0  0  0  0  0  0  0  0  0
    9.7526   -9.3548    5.4353 C   0  0  0  0  0  0  0  0  0  0  0  0
   10.6231   -9.0776    6.6827 C   0  0  0  0  0  0  0  0  0  0  0  0
   10.2399   -8.4343    4.3034 C   0  0  0  0  0  0  0  0  0  0  0  0
    8.2709   -9.0883    5.7693 C   0  0  0  0  0  0  0  0  0  0  0  0
    7.6692   -8.0910    5.3239 O   0  0  0  0  0  0  0  0  0  0  0  0
    7.5972  -10.1500    6.6370 C   0  0  1  0  0  0  0  0  0  0  0  0
    6.2713  -10.0225    7.4857 C   0  0  1  0  0  0  0  0  0  0  0  0
    5.0560   -8.9906    7.2629 C   0  0  1  0  0  0  0  0  0  0  0  0
    5.6461   -7.7331    6.9866 O   0  0  0  0  0  0  0  0  0  0  0  0
    3.5959   -9.1288    6.5479 C   0  0  1  0  0  0  0  0  0  0  0  0
    3.0545   -7.6829    6.3864 C   0  0  0  0  0  0  0  0  0  0  0  0
    2.7411   -9.6229    7.5605 O   0  0  0  0  0  0  0  0  0  0  0  0
   -0.7753   -8.0916    3.4993 C   0  0  0  0  0  0  0  0  0  0  0  0
   -1.9682   -7.1667    3.4651 C   0  0  0  0  0  0  0  0  0  0  0  0
   -1.0409   -9.2453    2.5576 C   0  0  0  0  0  0  0  0  0  0  0  0
    7.7753  -11.5442    1.4485 H   0  0  0  0  0  0  0  0  0  0  0  0
    6.2300  -12.0492    1.9500 H   0  0  0  0  0  0  0  0  0  0  0  0
    7.6206  -13.0375    2.3745 H   0  0  0  0  0  0  0  0  0  0  0  0
    6.5166  -12.6973    4.4620 H   0  0  0  0  0  0  0  0  0  0  0  0
    5.7965   -9.9250    5.1739 H   0  0  0  0  0  0  0  0  0  0  0  0
    4.8806  -10.2608    2.4650 H   0  0  0  0  0  0  0  0  0  0  0  0
    2.8628  -10.7888    2.1963 H   0  0  0  0  0  0  0  0  0  0  0  0
    2.6402   -7.2022    3.5407 H   0  0  0  0  0  0  0  0  0  0  0  0
    1.4514   -8.2235    1.2589 H   0  0  0  0  0  0  0  0  0  0  0  0
    0.5524   -6.3841    3.8020 H   0  0  0  0  0  0  0  0  0  0  0  0
   -0.4223   -7.6695    5.6149 H   0  0  0  0  0  0  0  0  0  0  0  0
    0.7306   -9.4449    6.3893 H   0  0  0  0  0  0  0  0  0  0  0  0
   -0.2095  -10.2751    5.3327 H   0  0  0  0  0  0  0  0  0  0  0  0
    1.2633  -12.1690    5.2302 H   0  0  0  0  0  0  0  0  0  0  0  0
    2.0063  -12.1421    3.6266 H   0  0  0  0  0  0  0  0  0  0  0  0
    0.3689  -11.6419    3.8217 H   0  0  0  0  0  0  0  0  0  0  0  0
    3.8806  -11.9236    4.3992 H   0  0  0  0  0  0  0  0  0  0  0  0
    3.1036  -12.6025    6.4113 H   0  0  0  0  0  0  0  0  0  0  0  0
    4.6174  -13.2556    5.9929 H   0  0  0  0  0  0  0  0  0  0  0  0
    3.9267  -11.4670    8.3700 H   0  0  0  0  0  0  0  0  0  0  0  0
    4.6046  -13.0155    8.2864 H   0  0  0  0  0  0  0  0  0  0  0  0
    6.2843  -11.5956    8.9362 H   0  0  0  0  0  0  0  0  0  0  0  0
    7.8294  -12.6361    7.8010 H   0  0  0  0  0  0  0  0  0  0  0  0
    6.6439  -13.3314    6.7544 H   0  0  0  0  0  0  0  0  0  0  0  0
    9.6091  -12.0683    6.7030 H   0  0  0  0  0  0  0  0  0  0  0  0
    9.1957  -12.8571    5.2049 H   0  0  0  0  0  0  0  0  0  0  0  0
   11.0128  -11.1027    5.0927 H   0  0  0  0  0  0  0  0  0  0  0  0
    9.7690  -10.9335    3.9277 H   0  0  0  0  0  0  0  0  0  0  0  0
   11.6905   -9.1010    6.4411 H   0  0  0  0  0  0  0  0  0  0  0  0
   10.4595   -9.8158    7.4658 H   0  0  0  0  0  0  0  0  0  0  0  0
   10.4062   -8.0931    7.1024 H   0  0  0  0  0  0  0  0  0  0  0  0
   11.2831   -8.6357    4.0643 H   0  0  0  0  0  0  0  0  0  0  0  0
   10.1683   -7.3792    4.5734 H   0  0  0  0  0  0  0  0  0  0  0  0
    9.6530   -8.5820    3.3976 H   0  0  0  0  0  0  0  0  0  0  0  0
    8.3332  -10.2586    7.4369 H   0  0  0  0  0  0  0  0  0  0  0  0
    6.6810   -9.5978    8.4052 H   0  0  0  0  0  0  0  0  0  0  0  0
    4.7531   -8.8211    8.2972 H   0  0  0  0  0  0  0  0  0  0  0  0
    6.0728   -7.7728    6.1428 H   0  0  0  0  0  0  0  0  0  0  0  0
    3.5818   -7.1157    5.6107 H   0  0  0  0  0  0  0  0  0  0  0  0
    3.1719   -7.1255    7.3185 H   0  0  0  0  0  0  0  0  0  0  0  0
    2.0017   -7.6321    6.1611 H   0  0  0  0  0  0  0  0  0  0  0  0
    2.5631  -10.5313    7.3716 H   0  0  0  0  0  0  0  0  0  0  0  0
   -2.8855   -7.7039    3.6977 H   0  0  0  0  0  0  0  0  0  0  0  0
   -2.0916   -6.7653    2.4628 H   0  0  0  0  0  0  0  0  0  0  0  0
   -1.8244   -6.3417    4.1652 H   0  0  0  0  0  0  0  0  0  0  0  0
   -1.9549   -9.7664    2.8568 H   0  0  0  0  0  0  0  0  0  0  0  0
   -0.2144   -9.9442    2.5717 H   0  0  0  0  0  0  0  0  0  0  0  0
   -1.1697   -8.8516    1.5466 H   0  0  0  0  0  0  0  0  0  0  0  0
  1  2  1  0
  1 41  1  0
  1 42  1  0
  1 43  1  0
  2  3  1  0
  3 23  1  0
  3  4  1  0
  3 44  1  6
  4 18  1  0
  4  5  1  0
  4 45  1  1
  5  7  1  0
  5  6  1  0
  5 46  1  6
  7  6  1  1
  7 17  1  0
  7  8  1  0
  8 15  1  0
  8  9  1  6
  8 10  1  0
  9 47  1  0
 10 11  1  0
 10 12  1  0
 10 48  1  1
 11 49  1  0
 12 38  1  0
 12 13  1  0
 12 50  1  1
 13 14  1  0
 13 38  1  0
 13 51  1  1
 14 15  1  0
 14 52  1  0
 14 53  1  0
 15 16  1  6
 15 17  1  0
 16 54  1  0
 16 55  1  0
 16 56  1  0
 17 35  1  1
 17 18  1  0
 18 19  1  0
 18 57  1  6
 19 20  1  0
 19 58  1  0
 19 59  1  0
 20 21  1  0
 20 60  1  0
 20 61  1  0
 21 32  1  0
 21 22  1  0
 21 62  1  1
 22 23  1  0
 22 63  1  0
 22 64  1  0
 23 31  1  0
 23 24  1  6
 24 25  1  0
 24 65  1  0
 24 66  1  0
 25 26  1  0
 25 67  1  0
 25 68  1  0
 26 27  1  0
 26 28  1  0
 26 29  1  0
 27 69  1  0
 27 70  1  0
 27 71  1  0
 28 72  1  0
 28 73  1  0
 28 74  1  0
 29 30  2  0
 29 31  1  0
 31 32  1  0
 31 75  1  1
 32 33  1  0
 32 76  1  1
 33 34  1  0
 33 35  1  0
 33 77  1  1
 34 78  1  0
 35 36  1  0
 35 37  1  1
 36 79  1  0
 36 80  1  0
 36 81  1  0
 37 82  1  0
 38 39  1  0
 38 40  1  0
 39 83  1  0
 39 84  1  0
 39 85  1  0
 40 86  1  0
 40 87  1  0
 40 88  1  0
M  END
>  <i_m_ct_stereo_status>  (295) 
1

>  <s_m_source_file>  (295) 
/var/tmp/pbs.5076255.sched01/tmpua_2_py4/114lbcpx7pn.sdf

>  <i_m_source_file_index>  (295) 
22

>  <i_lp_mmshare_version>  (295) 
48012

>  <i_f3d_flags>  (295) 
0

>  <s_epik_input>  (295) 
W0NIMl0xW0NIMl1bQ0BASF0oW0NIMl0yKVtDQEhdKFtDQEBIXShbT0hdKVtDQF0zKFtDSDNdKVtPSF0pW0NASF0oQyg9TylDKFtDSDNdKShbQ0gzXSlbQ0gyXVtDSDJdNClbQ0BdMjRbQ0BIXShPW0NIM10pW0NAQEhdKFtDQEBIXTVPNilbQ0BASF0xW0NAQF0zKFtDQF01NjcpW0NAXTgoW0NIM10pW0NAQF03KFtPSF0pW0NAQEhdKFtPSF0pW0NAQEhdOVtDQEhdKFtDSDJdOClDOShbQ0gzXSlbQ0gzXQ==

>  <s_epik_cmdline>  (295) 
J2VwaWtfcHl0aG9uJywgJy1waHQnLCAnMi4wJywgJy1waCcsICc3LjAnLCAnLXRuJywgJzgnLCAnLW1hJywgJzIwMCcsICctaW1hZScsICc8aW5maWxlLm1hZT4nLCAnLW9tYWUnLCAnPG91dGZpbGUubWFlPic=

>  <r_lp_tautomer_probability>  (295) 
1

>  <r_epik_Ionization_Penalty>  (295) 
7.06165e-07

>  <r_epik_Ionization_Penalty_Charging>  (295) 
0

>  <r_epik_Ionization_Penalty_Neutral>  (295) 
7.06165e-07

>  <r_epik_State_Penalty>  (295) 
-0

>  <r_epik_Charging_Adjusted_Penalty>  (295) 
0

>  <i_epik_Tot_Q>  (295) 
0

>  <i_epik_Tot_abs_Q>  (295) 
0

>  <s_lp_Force_Field>  (295) 
OPLS3e

>  <r_lp_Energy>  (295) 
174.053

>  <b_lp_Chiralities_Consistent>  (295) 
1

>  <s_lp_Variant>  (295) 
103:0-1

>  <s_i_glide_gridfile>  (295) 
pfpi4k_grid

>  <i_i_glide_lignum>  (295) 
22

>  <i_i_glide_rotatable_bonds>  (295) 
5

>  <r_i_docking_score>  (295) 
-2.39035

>  <r_i_glide_ligand_efficiency>  (295) 
-0.0597586

>  <r_i_glide_ligand_efficiency_sa>  (295) 
-0.204372

>  <r_i_glide_ligand_efficiency_ln>  (295) 
-0.50979

>  <r_i_glide_gscore>  (295) 
-2.39035

>  <r_i_glide_lipo>  (295) 
-0.203036

>  <r_i_glide_hbond>  (295) 
-0.0879668

>  <r_i_glide_metal>  (295) 
-0

>  <r_i_glide_rewards>  (295) 
-0.5

>  <r_i_glide_evdw>  (295) 
-20.327

>  <r_i_glide_ecoul>  (295) 
-3.88663

>  <r_i_glide_erotb>  (295) 
0

>  <r_i_glide_esite>  (295) 
0

>  <r_i_glide_emodel>  (295) 
-32.6492

>  <r_i_glide_energy>  (295) 
-24.2136

>  <r_i_glide_einternal>  (295) 
1.70274

>  <r_i_glide_intrahb_reward>  (295) 
-0.5

>  <i_i_glide_confnum>  (295) 
2

>  <i_i_glide_posenum>  (295) 
2

>  <r_i_glide_eff_state_penalty>  (295) 
0

>  <ligand_id>  (295) 
103

>  <original_smiles>  (295) 
COC1C2C3OC34C3(O)C(O)C5C(CC3(C)C43C2CCC2CC14CCC(C)(C)C(=O)C4C2C(O)C3(C)O)C5(C)C

>  <smiles>  (295) 
[H]OC1([H])C2([H])C([H])(C([H])([H])C3(C([H])([H])[H])C1(O[H])C14OC1([H])C1([H])C([H])(OC([H])([H])[H])C56C([H])([H])C([H])([H])C(C([H])([H])[H])(C([H])([H])[H])C(=O)C5([H])C5([H])C([H])(O[H])C(O[H])(C([H])([H])[H])C43C1([H])C([H])([H])C([H])([H])C5([H])C6([H])[H])C2(C([H])([H])[H])C([H])([H])[H]

$$$$
103:0:1
     RDKit          3D

 88 96  0  0  1  0  0  0  0  0999 V2000
    5.7621   -2.5156    5.4321 C   0  0  0  0  0  0  0  0  0  0  0  0
    4.6856   -2.1756    6.2866 O   0  0  0  0  0  0  0  0  0  0  0  0
    4.3603   -3.1423    7.2697 C   0  0  2  0  0  0  0  0  0  0  0  0
    3.2430   -4.0355    6.6475 C   0  0  1  0  0  0  0  0  0  0  0  0
    2.8728   -4.0492    5.1745 C   0  0  2  0  0  0  0  0  0  0  0  0
    1.4567   -3.8270    4.8643 O   0  0  0  0  0  0  0  0  0  0  0  0
    1.8518   -5.1657    5.1359 C   0  0  1  0  0  0  0  0  0  0  0  0
    1.7332   -6.3338    4.2075 C   0  0  2  0  0  0  0  0  0  0  0  0
    2.8803   -6.4465    3.3818 O   0  0  0  0  0  0  0  0  0  0  0  0
    0.4701   -6.1848    3.3201 C   0  0  1  0  0  0  0  0  0  0  0  0
    0.7270   -5.9283    1.9437 O   0  0  0  0  0  0  0  0  0  0  0  0
   -0.5182   -7.3191    3.3775 C   0  0  2  0  0  0  0  0  0  0  0  0
   -0.4805   -8.3172    4.5064 C   0  0  2  0  0  0  0  0  0  0  0  0
    0.5952   -8.3099    5.5911 C   0  0  0  0  0  0  0  0  0  0  0  0
    1.7329   -7.2498    5.4898 C   0  0  1  0  0  0  0  0  0  0  0  0
    2.9928   -8.1343    5.6507 C   0  0  0  0  0  0  0  0  0  0  0  0
    1.7452   -5.9215    6.4335 C   0  0  1  0  0  0  0  0  0  0  0  0
    3.0923   -5.4995    7.0673 C   0  0  2  0  0  0  0  0  0  0  0  0
    3.4932   -6.0665    8.4506 C   0  0  0  0  0  0  0  0  0  0  0  0
    2.7713   -5.6571    9.7415 C   0  0  0  0  0  0  0  0  0  0  0  0
    2.6349   -4.1610    9.9673 C   0  0  1  0  0  0  0  0  0  0  0  0
    3.9921   -3.4251    9.8469 C   0  0  0  0  0  0  0  0  0  0  0  0
    3.9154   -2.4537    8.6473 C   0  0  1  0  0  0  0  0  0  0  0  0
    4.7366   -1.1668    8.9758 C   0  0  0  0  0  0  0  0  0  0  0  0
    4.3665    0.0744    8.1249 C   0  0  0  0  0  0  0  0  0  0  0  0
    2.8421    0.3530    7.9330 C   0  0  0  0  0  0  0  0  0  0  0  0
    2.2976    1.1057    9.1661 C   0  0  0  0  0  0  0  0  0  0  0  0
    2.6702    1.2557    6.6948 C   0  0  0  0  0  0  0  0  0  0  0  0
    2.0621   -0.9729    7.7626 C   0  0  0  0  0  0  0  0  0  0  0  0
    1.2184   -1.1312    6.8582 O   0  0  0  0  0  0  0  0  0  0  0  0
    2.4255   -2.0767    8.7635 C   0  0  1  0  0  0  0  0  0  0  0  0
    1.5906   -3.3656    9.1430 C   0  0  1  0  0  0  0  0  0  0  0  0
    0.4621   -4.1009    8.2618 C   0  0  1  0  0  0  0  0  0  0  0  0
   -0.3451   -3.0821    7.7008 O   0  0  0  0  0  0  0  0  0  0  0  0
    0.4954   -5.4250    7.3015 C   0  0  1  0  0  0  0  0  0  0  0  0
   -0.8134   -5.4008    6.4803 C   0  0  0  0  0  0  0  0  0  0  0  0
    0.2529   -6.5001    8.1782 O   0  0  0  0  0  0  0  0  0  0  0  0
   -0.2557   -8.7646    3.0783 C   0  0  0  0  0  0  0  0  0  0  0  0
   -1.3659   -9.5296    2.3976 C   0  0  0  0  0  0  0  0  0  0  0  0
    1.0741   -9.3082    2.6139 C   0  0  0  0  0  0  0  0  0  0  0  0
    5.8413   -1.7087    4.7021 H   0  0  0  0  0  0  0  0  0  0  0  0
    5.6154   -3.4541    4.8880 H   0  0  0  0  0  0  0  0  0  0  0  0
    6.6951   -2.5760    5.9993 H   0  0  0  0  0  0  0  0  0  0  0  0
    5.2640   -3.7168    7.4808 H   0  0  0  0  0  0  0  0  0  0  0  0
    2.3696   -3.5108    6.9168 H   0  0  0  0  0  0  0  0  0  0  0  0
    3.6131   -4.1526    4.4002 H   0  0  0  0  0  0  0  0  0  0  0  0
    2.8303   -7.2790    2.9643 H   0  0  0  0  0  0  0  0  0  0  0  0
   -0.0969   -5.3238    3.6733 H   0  0  0  0  0  0  0  0  0  0  0  0
    1.3428   -6.5694    1.6357 H   0  0  0  0  0  0  0  0  0  0  0  0
   -1.5087   -6.9940    3.0733 H   0  0  0  0  0  0  0  0  0  0  0  0
   -1.4467   -8.5769    4.9215 H   0  0  0  0  0  0  0  0  0  0  0  0
    0.0889   -8.2404    6.5464 H   0  0  0  0  0  0  0  0  0  0  0  0
    0.9745   -9.3371    5.6138 H   0  0  0  0  0  0  0  0  0  0  0  0
    3.0746   -8.5172    6.6674 H   0  0  0  0  0  0  0  0  0  0  0  0
    3.9167   -7.6213    5.4081 H   0  0  0  0  0  0  0  0  0  0  0  0
    2.9911   -9.0036    4.9876 H   0  0  0  0  0  0  0  0  0  0  0  0
    3.9115   -5.9017    6.4851 H   0  0  0  0  0  0  0  0  0  0  0  0
    3.4286   -7.1497    8.3965 H   0  0  0  0  0  0  0  0  0  0  0  0
    4.5613   -5.8809    8.5846 H   0  0  0  0  0  0  0  0  0  0  0  0
    1.8224   -6.1506    9.9054 H   0  0  0  0  0  0  0  0  0  0  0  0
    3.3823   -6.0413   10.5567 H   0  0  0  0  0  0  0  0  0  0  0  0
    2.3288   -4.0724   11.0133 H   0  0  0  0  0  0  0  0  0  0  0  0
    4.1229   -2.8659   10.7755 H   0  0  0  0  0  0  0  0  0  0  0  0
    4.8581   -4.0860    9.7994 H   0  0  0  0  0  0  0  0  0  0  0  0
    4.5903   -0.8818   10.0214 H   0  0  0  0  0  0  0  0  0  0  0  0
    5.8016   -1.3700    8.8762 H   0  0  0  0  0  0  0  0  0  0  0  0
    4.8271    0.9501    8.5838 H   0  0  0  0  0  0  0  0  0  0  0  0
    4.8532    0.0133    7.1540 H   0  0  0  0  0  0  0  0  0  0  0  0
    2.7057    2.1165    9.2311 H   0  0  0  0  0  0  0  0  0  0  0  0
    2.5544    0.6005   10.0953 H   0  0  0  0  0  0  0  0  0  0  0  0
    1.2114    1.1931    9.1271 H   0  0  0  0  0  0  0  0  0  0  0  0
    3.2463    2.1778    6.7923 H   0  0  0  0  0  0  0  0  0  0  0  0
    1.6267    1.5324    6.5338 H   0  0  0  0  0  0  0  0  0  0  0  0
    3.0194    0.7505    5.7940 H   0  0  0  0  0  0  0  0  0  0  0  0
    2.3689   -1.5207    9.7001 H   0  0  0  0  0  0  0  0  0  0  0  0
    0.9445   -2.9434    9.9154 H   0  0  0  0  0  0  0  0  0  0  0  0
   -0.2103   -4.4386    9.0480 H   0  0  0  0  0  0  0  0  0  0  0  0
    0.1674   -2.6409    7.0299 H   0  0  0  0  0  0  0  0  0  0  0  0
   -0.8064   -4.6140    5.7268 H   0  0  0  0  0  0  0  0  0  0  0  0
   -1.6752   -5.2337    7.1282 H   0  0  0  0  0  0  0  0  0  0  0  0
   -0.9868   -6.3291    5.9664 H   0  0  0  0  0  0  0  0  0  0  0  0
    1.0718   -6.6761    8.6119 H   0  0  0  0  0  0  0  0  0  0  0  0
   -1.1907  -10.5799    2.5933 H   0  0  0  0  0  0  0  0  0  0  0  0
   -1.3588   -9.3817    1.3194 H   0  0  0  0  0  0  0  0  0  0  0  0
   -2.3500   -9.2399    2.7762 H   0  0  0  0  0  0  0  0  0  0  0  0
    1.1410  -10.3802    2.8214 H   0  0  0  0  0  0  0  0  0  0  0  0
    1.8927   -8.8129    3.1223 H   0  0  0  0  0  0  0  0  0  0  0  0
    1.1854   -9.1471    1.5429 H   0  0  0  0  0  0  0  0  0  0  0  0
  1  2  1  0
  1 41  1  0
  1 42  1  0
  1 43  1  0
  2  3  1  0
  3 23  1  0
  3  4  1  0
  3 44  1  1
  4 18  1  0
  4  5  1  0
  4 45  1  1
  5  7  1  0
  5  6  1  0
  5 46  1  6
  7  6  1  6
  7 17  1  0
  7  8  1  0
  8 15  1  0
  8  9  1  6
  8 10  1  0
  9 47  1  0
 10 11  1  0
 10 12  1  0
 10 48  1  1
 11 49  1  0
 12 38  1  0
 12 13  1  0
 12 50  1  6
 13 14  1  0
 13 38  1  0
 13 51  1  1
 14 15  1  0
 14 52  1  0
 14 53  1  0
 15 16  1  6
 15 17  1  0
 16 54  1  0
 16 55  1  0
 16 56  1  0
 17 35  1  1
 17 18  1  0
 18 19  1  0
 18 57  1  6
 19 20  1  0
 19 58  1  0
 19 59  1  0
 20 21  1  0
 20 60  1  0
 20 61  1  0
 21 32  1  0
 21 22  1  0
 21 62  1  1
 22 23  1  0
 22 63  1  0
 22 64  1  0
 23 31  1  0
 23 24  1  1
 24 25  1  0
 24 65  1  0
 24 66  1  0
 25 26  1  0
 25 67  1  0
 25 68  1  0
 26 27  1  0
 26 28  1  0
 26 29  1  0
 27 69  1  0
 27 70  1  0
 27 71  1  0
 28 72  1  0
 28 73  1  0
 28 74  1  0
 29 30  2  0
 29 31  1  0
 31 32  1  0
 31 75  1  1
 32 33  1  0
 32 76  1  1
 33 34  1  0
 33 35  1  0
 33 77  1  1
 34 78  1  0
 35 36  1  0
 35 37  1  1
 36 79  1  0
 36 80  1  0
 36 81  1  0
 37 82  1  0
 38 39  1  0
 38 40  1  0
 39 83  1  0
 39 84  1  0
 39 85  1  0
 40 86  1  0
 40 87  1  0
 40 88  1  0
M  END
>  <i_m_ct_stereo_status>  (296) 
1

>  <s_m_source_file>  (296) 
/var/tmp/pbs.5076255.sched01/tmpua_2_py4/114lbcpx7pn.sdf

>  <i_m_source_file_index>  (296) 
22

>  <i_lp_mmshare_version>  (296) 
48012

>  <i_f3d_flags>  (296) 
0

>  <s_epik_input>  (296) 
W0NIMl0xW0NIMl1bQ0BASF0oW0NIMl0yKVtDQEhdKFtDQEBIXShbT0hdKVtDQF0zKFtDSDNdKVtPSF0pW0NASF0oQyg9TylDKFtDSDNdKShbQ0gzXSlbQ0gyXVtDSDJdNClbQ0BdMjRbQ0BIXShPW0NIM10pW0NAQEhdKFtDQEBIXTVPNilbQ0BASF0xW0NAQF0zKFtDQF01NjcpW0NAXTgoW0NIM10pW0NAQF03KFtPSF0pW0NAQEhdKFtPSF0pW0NAQEhdOVtDQEhdKFtDSDJdOClDOShbQ0gzXSlbQ0gzXQ==

>  <s_epik_cmdline>  (296) 
J2VwaWtfcHl0aG9uJywgJy1waHQnLCAnMi4wJywgJy1waCcsICc3LjAnLCAnLXRuJywgJzgnLCAnLW1hJywgJzIwMCcsICctaW1hZScsICc8aW5maWxlLm1hZT4nLCAnLW9tYWUnLCAnPG91dGZpbGUubWFlPic=

>  <r_lp_tautomer_probability>  (296) 
1

>  <r_epik_Ionization_Penalty>  (296) 
7.06165e-07

>  <r_epik_Ionization_Penalty_Charging>  (296) 
0

>  <r_epik_Ionization_Penalty_Neutral>  (296) 
7.06165e-07

>  <r_epik_State_Penalty>  (296) 
-0

>  <r_epik_Charging_Adjusted_Penalty>  (296) 
0

>  <i_epik_Tot_Q>  (296) 
0

>  <i_epik_Tot_abs_Q>  (296) 
0

>  <s_lp_Force_Field>  (296) 
OPLS3e

>  <r_lp_Energy>  (296) 
174.053

>  <b_lp_Chiralities_Consistent>  (296) 
1

>  <s_lp_Variant>  (296) 
103:0-1

>  <s_i_glide_gridfile>  (296) 
pfpi4k_grid

>  <i_i_glide_lignum>  (296) 
22

>  <i_i_glide_rotatable_bonds>  (296) 
5

>  <r_i_docking_score>  (296) 
-2.30227

>  <r_i_glide_ligand_efficiency>  (296) 
-0.0575567

>  <r_i_glide_ligand_efficiency_sa>  (296) 
-0.196841

>  <r_i_glide_ligand_efficiency_ln>  (296) 
-0.491006

>  <r_i_glide_gscore>  (296) 
-2.30227

>  <r_i_glide_lipo>  (296) 
-0.405069

>  <r_i_glide_hbond>  (296) 
0

>  <r_i_glide_metal>  (296) 
-0

>  <r_i_glide_rewards>  (296) 
-0.5

>  <r_i_glide_evdw>  (296) 
-12.8874

>  <r_i_glide_ecoul>  (296) 
-5.01619

>  <r_i_glide_erotb>  (296) 
0

>  <r_i_glide_esite>  (296) 
-0.000399464

>  <r_i_glide_emodel>  (296) 
-26.9129

>  <r_i_glide_energy>  (296) 
-17.9036

>  <r_i_glide_einternal>  (296) 
0.487323

>  <r_i_glide_intrahb_reward>  (296) 
-0.5

>  <i_i_glide_confnum>  (296) 
1

>  <i_i_glide_posenum>  (296) 
1

>  <r_i_glide_eff_state_penalty>  (296) 
0

>  <ligand_id>  (296) 
103

>  <original_smiles>  (296) 
COC1C2C3OC34C3(O)C(O)C5C(CC3(C)C43C2CCC2CC14CCC(C)(C)C(=O)C4C2C(O)C3(C)O)C5(C)C

>  <smiles>  (296) 
[H]OC1([H])C2([H])C([H])(C([H])([H])C3(C([H])([H])[H])C1(O[H])C14OC1([H])C1([H])C([H])(OC([H])([H])[H])C56C([H])([H])C([H])([H])C(C([H])([H])[H])(C([H])([H])[H])C(=O)C5([H])C5([H])C([H])(O[H])C(O[H])(C([H])([H])[H])C43C1([H])C([H])([H])C([H])([H])C5([H])C6([H])[H])C2(C([H])([H])[H])C([H])([H])[H]

$$$$
103:0:2
     RDKit          3D

 88 96  0  0  1  0  0  0  0  0999 V2000
    0.8616    0.5748    1.9276 C   0  0  0  0  0  0  0  0  0  0  0  0
    0.7116   -0.0071    3.2179 O   0  0  0  0  0  0  0  0  0  0  0  0
    1.9288   -0.2786    3.9051 C   0  0  2  0  0  0  0  0  0  0  0  0
    1.7686   -1.7099    4.4721 C   0  0  1  0  0  0  0  0  0  0  0  0
    0.7103   -2.6676    3.9955 C   0  0  2  0  0  0  0  0  0  0  0  0
   -0.1591   -3.2420    5.0023 O   0  0  0  0  0  0  0  0  0  0  0  0
    1.0539   -3.9370    4.7403 C   0  0  1  0  0  0  0  0  0  0  0  0
    1.1862   -5.3782    4.3013 C   0  0  2  0  0  0  0  0  0  0  0  0
    1.0920   -5.4714    2.8885 O   0  0  0  0  0  0  0  0  0  0  0  0
    0.1027   -6.2555    4.9913 C   0  0  1  0  0  0  0  0  0  0  0  0
   -0.9419   -6.6625    4.1226 O   0  0  0  0  0  0  0  0  0  0  0  0
    0.5918   -7.4712    5.7584 C   0  0  2  0  0  0  0  0  0  0  0  0
    2.0272   -7.5570    6.2014 C   0  0  2  0  0  0  0  0  0  0  0  0
    3.0812   -6.5266    5.8016 C   0  0  0  0  0  0  0  0  0  0  0  0
    2.6537   -5.3373    4.8667 C   0  0  1  0  0  0  0  0  0  0  0  0
    3.7617   -5.4012    3.7763 C   0  0  0  0  0  0  0  0  0  0  0  0
    2.3998   -3.8406    5.4426 C   0  0  1  0  0  0  0  0  0  0  0  0
    2.9759   -2.6364    4.6578 C   0  0  2  0  0  0  0  0  0  0  0  0
    4.4180   -2.1494    4.9369 C   0  0  0  0  0  0  0  0  0  0  0  0
    4.7801   -1.4302    6.2388 C   0  0  0  0  0  0  0  0  0  0  0  0
    3.8819   -0.2616    6.6223 C   0  0  1  0  0  0  0  0  0  0  0  0
    3.7262    0.7594    5.4678 C   0  0  0  0  0  0  0  0  0  0  0  0
    2.2430    0.7960    5.0441 C   0  0  1  0  0  0  0  0  0  0  0  0
    1.8565    2.2504    4.6355 C   0  0  0  0  0  0  0  0  0  0  0  0
    0.3294    2.5410    4.6470 C   0  0  0  0  0  0  0  0  0  0  0  0
   -0.4596    2.0244    5.8868 C   0  0  0  0  0  0  0  0  0  0  0  0
   -0.3008    3.0280    7.0496 C   0  0  0  0  0  0  0  0  0  0  0  0
   -1.9555    1.9303    5.5067 C   0  0  0  0  0  0  0  0  0  0  0  0
    0.0593    0.6361    6.3425 C   0  0  0  0  0  0  0  0  0  0  0  0
   -0.7192   -0.2804    6.6010 O   0  0  0  0  0  0  0  0  0  0  0  0
    1.5982    0.5232    6.4185 C   0  0  1  0  0  0  0  0  0  0  0  0
    2.4667   -0.5495    7.1959 C   0  0  1  0  0  0  0  0  0  0  0  0
    2.0262   -2.0282    7.6609 C   0  0  1  0  0  0  0  0  0  0  0  0
    0.7271   -1.9126    8.2112 O   0  0  0  0  0  0  0  0  0  0  0  0
    2.2686   -3.5098    7.0154 C   0  0  1  0  0  0  0  0  0  0  0  0
    1.3130   -4.4886    7.7565 C   0  0  0  0  0  0  0  0  0  0  0  0
    3.5195   -3.8995    7.5421 O   0  0  0  0  0  0  0  0  0  0  0  0
    1.4608   -8.6064    5.2557 C   0  0  0  0  0  0  0  0  0  0  0  0
    1.1993  -10.0010    5.8055 C   0  0  0  0  0  0  0  0  0  0  0  0
    1.9131   -8.7152    3.8143 C   0  0  0  0  0  0  0  0  0  0  0  0
   -0.1216    0.7318    1.4822 H   0  0  0  0  0  0  0  0  0  0  0  0
    1.4405   -0.0760    1.2765 H   0  0  0  0  0  0  0  0  0  0  0  0
    1.3548    1.5444    1.9592 H   0  0  0  0  0  0  0  0  0  0  0  0
    2.7428   -0.2841    3.1774 H   0  0  0  0  0  0  0  0  0  0  0  0
    1.2951   -1.5625    5.4131 H   0  0  0  0  0  0  0  0  0  0  0  0
    0.4648   -2.7546    2.9404 H   0  0  0  0  0  0  0  0  0  0  0  0
    1.3475   -6.3535    2.6724 H   0  0  0  0  0  0  0  0  0  0  0  0
   -0.4043   -5.6475    5.7419 H   0  0  0  0  0  0  0  0  0  0  0  0
   -0.7027   -7.4896    3.7338 H   0  0  0  0  0  0  0  0  0  0  0  0
   -0.1468   -7.7882    6.4907 H   0  0  0  0  0  0  0  0  0  0  0  0
    2.1776   -7.9004    7.2205 H   0  0  0  0  0  0  0  0  0  0  0  0
    3.5341   -6.1662    6.7181 H   0  0  0  0  0  0  0  0  0  0  0  0
    3.8999   -7.1156    5.3831 H   0  0  0  0  0  0  0  0  0  0  0  0
    4.7311   -5.0908    4.1708 H   0  0  0  0  0  0  0  0  0  0  0  0
    3.5469   -4.7865    2.9042 H   0  0  0  0  0  0  0  0  0  0  0  0
    3.8993   -6.4019    3.3615 H   0  0  0  0  0  0  0  0  0  0  0  0
    3.1149   -2.9293    3.6214 H   0  0  0  0  0  0  0  0  0  0  0  0
    5.0822   -3.0069    4.8659 H   0  0  0  0  0  0  0  0  0  0  0  0
    4.7146   -1.5165    4.1017 H   0  0  0  0  0  0  0  0  0  0  0  0
    4.9191   -2.0952    7.0823 H   0  0  0  0  0  0  0  0  0  0  0  0
    5.7831   -1.0289    6.0891 H   0  0  0  0  0  0  0  0  0  0  0  0
    4.4378    0.2493    7.4131 H   0  0  0  0  0  0  0  0  0  0  0  0
    4.0257    1.7293    5.8673 H   0  0  0  0  0  0  0  0  0  0  0  0
    4.4005    0.5950    4.6283 H   0  0  0  0  0  0  0  0  0  0  0  0
    2.3108    2.9638    5.3255 H   0  0  0  0  0  0  0  0  0  0  0  0
    2.2910    2.5011    3.6680 H   0  0  0  0  0  0  0  0  0  0  0  0
    0.1915    3.6205    4.5557 H   0  0  0  0  0  0  0  0  0  0  0  0
   -0.1413    2.1545    3.7470 H   0  0  0  0  0  0  0  0  0  0  0  0
   -0.8072    3.9697    6.8325 H   0  0  0  0  0  0  0  0  0  0  0  0
    0.7471    3.2700    7.2351 H   0  0  0  0  0  0  0  0  0  0  0  0
   -0.7186    2.6346    7.9777 H   0  0  0  0  0  0  0  0  0  0  0  0
   -2.3378    2.8859    5.1448 H   0  0  0  0  0  0  0  0  0  0  0  0
   -2.5715    1.6270    6.3540 H   0  0  0  0  0  0  0  0  0  0  0  0
   -2.1106    1.2000    4.7085 H   0  0  0  0  0  0  0  0  0  0  0  0
    1.8317    1.4182    6.9936 H   0  0  0  0  0  0  0  0  0  0  0  0
    2.5141   -0.0748    8.1767 H   0  0  0  0  0  0  0  0  0  0  0  0
    2.5869   -2.1151    8.5930 H   0  0  0  0  0  0  0  0  0  0  0  0
    0.7652   -1.2828    8.9119 H   0  0  0  0  0  0  0  0  0  0  0  0
    0.2738   -4.3399    7.4573 H   0  0  0  0  0  0  0  0  0  0  0  0
    1.3578   -4.3319    8.8357 H   0  0  0  0  0  0  0  0  0  0  0  0
    1.5460   -5.5343    7.6171 H   0  0  0  0  0  0  0  0  0  0  0  0
    3.6724   -4.7933    7.2954 H   0  0  0  0  0  0  0  0  0  0  0  0
    2.0980  -10.6218    5.7577 H   0  0  0  0  0  0  0  0  0  0  0  0
    0.4094  -10.4958    5.2375 H   0  0  0  0  0  0  0  0  0  0  0  0
    0.8821   -9.9595    6.8507 H   0  0  0  0  0  0  0  0  0  0  0  0
    2.8036   -9.3460    3.7439 H   0  0  0  0  0  0  0  0  0  0  0  0
    2.1601   -7.7430    3.4025 H   0  0  0  0  0  0  0  0  0  0  0  0
    1.1206   -9.1597    3.2095 H   0  0  0  0  0  0  0  0  0  0  0  0
  1  2  1  0
  1 41  1  0
  1 42  1  0
  1 43  1  0
  2  3  1  0
  3 23  1  0
  3  4  1  0
  3 44  1  6
  4 18  1  0
  4  5  1  0
  4 45  1  1
  5  7  1  0
  5  6  1  0
  5 46  1  6
  7  6  1  1
  7 17  1  0
  7  8  1  0
  8 15  1  0
  8  9  1  6
  8 10  1  0
  9 47  1  0
 10 11  1  0
 10 12  1  0
 10 48  1  1
 11 49  1  0
 12 38  1  0
 12 13  1  0
 12 50  1  1
 13 14  1  0
 13 38  1  0
 13 51  1  1
 14 15  1  0
 14 52  1  0
 14 53  1  0
 15 16  1  6
 15 17  1  0
 16 54  1  0
 16 55  1  0
 16 56  1  0
 17 35  1  1
 17 18  1  0
 18 19  1  0
 18 57  1  6
 19 20  1  0
 19 58  1  0
 19 59  1  0
 20 21  1  0
 20 60  1  0
 20 61  1  0
 21 32  1  0
 21 22  1  0
 21 62  1  1
 22 23  1  0
 22 63  1  0
 22 64  1  0
 23 31  1  0
 23 24  1  6
 24 25  1  0
 24 65  1  0
 24 66  1  0
 25 26  1  0
 25 67  1  0
 25 68  1  0
 26 27  1  0
 26 28  1  0
 26 29  1  0
 27 69  1  0
 27 70  1  0
 27 71  1  0
 28 72  1  0
 28 73  1  0
 28 74  1  0
 29 30  2  0
 29 31  1  0
 31 32  1  0
 31 75  1  1
 32 33  1  0
 32 76  1  1
 33 34  1  0
 33 35  1  0
 33 77  1  1
 34 78  1  0
 35 36  1  0
 35 37  1  1
 36 79  1  0
 36 80  1  0
 36 81  1  0
 37 82  1  0
 38 39  1  0
 38 40  1  0
 39 83  1  0
 39 84  1  0
 39 85  1  0
 40 86  1  0
 40 87  1  0
 40 88  1  0
M  END
>  <i_m_ct_stereo_status>  (297) 
1

>  <s_m_source_file>  (297) 
/var/tmp/pbs.5076255.sched01/tmpua_2_py4/114lbcpx7pn.sdf

>  <i_m_source_file_index>  (297) 
22

>  <i_lp_mmshare_version>  (297) 
48012

>  <i_f3d_flags>  (297) 
0

>  <s_epik_input>  (297) 
W0NIMl0xW0NIMl1bQ0BASF0oW0NIMl0yKVtDQEhdKFtDQEBIXShbT0hdKVtDQF0zKFtDSDNdKVtPSF0pW0NASF0oQyg9TylDKFtDSDNdKShbQ0gzXSlbQ0gyXVtDSDJdNClbQ0BdMjRbQ0BIXShPW0NIM10pW0NAQEhdKFtDQEBIXTVPNilbQ0BASF0xW0NAQF0zKFtDQF01NjcpW0NAXTgoW0NIM10pW0NAQF03KFtPSF0pW0NAQEhdKFtPSF0pW0NAQEhdOVtDQEhdKFtDSDJdOClDOShbQ0gzXSlbQ0gzXQ==

>  <s_epik_cmdline>  (297) 
J2VwaWtfcHl0aG9uJywgJy1waHQnLCAnMi4wJywgJy1waCcsICc3LjAnLCAnLXRuJywgJzgnLCAnLW1hJywgJzIwMCcsICctaW1hZScsICc8aW5maWxlLm1hZT4nLCAnLW9tYWUnLCAnPG91dGZpbGUubWFlPic=

>  <r_lp_tautomer_probability>  (297) 
1

>  <r_epik_Ionization_Penalty>  (297) 
7.06165e-07

>  <r_epik_Ionization_Penalty_Charging>  (297) 
0

>  <r_epik_Ionization_Penalty_Neutral>  (297) 
7.06165e-07

>  <r_epik_State_Penalty>  (297) 
-0

>  <r_epik_Charging_Adjusted_Penalty>  (297) 
0

>  <i_epik_Tot_Q>  (297) 
0

>  <i_epik_Tot_abs_Q>  (297) 
0

>  <s_lp_Force_Field>  (297) 
OPLS3e

>  <r_lp_Energy>  (297) 
174.053

>  <b_lp_Chiralities_Consistent>  (297) 
1

>  <s_lp_Variant>  (297) 
103:0-1

>  <s_i_glide_gridfile>  (297) 
pfpi4k_grid

>  <i_i_glide_lignum>  (297) 
22

>  <i_i_glide_rotatable_bonds>  (297) 
5

>  <r_i_docking_score>  (297) 
-1.7688

>  <r_i_glide_ligand_efficiency>  (297) 
-0.0442199

>  <r_i_glide_ligand_efficiency_sa>  (297) 
-0.15123

>  <r_i_glide_ligand_efficiency_ln>  (297) 
-0.377232

>  <r_i_glide_gscore>  (297) 
-1.7688

>  <r_i_glide_lipo>  (297) 
-0.058419

>  <r_i_glide_hbond>  (297) 
-0.0451645

>  <r_i_glide_metal>  (297) 
-0

>  <r_i_glide_rewards>  (297) 
0

>  <r_i_glide_evdw>  (297) 
-19.3488

>  <r_i_glide_ecoul>  (297) 
-4.56413

>  <r_i_glide_erotb>  (297) 
0

>  <r_i_glide_esite>  (297) 
-0.0131561

>  <r_i_glide_emodel>  (297) 
-26.4853

>  <r_i_glide_energy>  (297) 
-23.9129

>  <r_i_glide_einternal>  (297) 
1.25664

>  <r_i_glide_intrahb_reward>  (297) 
-0

>  <i_i_glide_confnum>  (297) 
1

>  <i_i_glide_posenum>  (297) 
6

>  <r_i_glide_eff_state_penalty>  (297) 
0

>  <ligand_id>  (297) 
103

>  <original_smiles>  (297) 
COC1C2C3OC34C3(O)C(O)C5C(CC3(C)C43C2CCC2CC14CCC(C)(C)C(=O)C4C2C(O)C3(C)O)C5(C)C

>  <smiles>  (297) 
[H]OC1([H])C2([H])C([H])(C([H])([H])C3(C([H])([H])[H])C1(O[H])C14OC1([H])C1([H])C([H])(OC([H])([H])[H])C56C([H])([H])C([H])([H])C(C([H])([H])[H])(C([H])([H])[H])C(=O)C5([H])C5([H])C([H])(O[H])C(O[H])(C([H])([H])[H])C43C1([H])C([H])([H])C([H])([H])C5([H])C6([H])[H])C2(C([H])([H])[H])C([H])([H])[H]

$$$$
104:0:0
     RDKit          3D

 33 36  0  0  1  0  0  0  0  0999 V2000
    4.3013   -5.6946    1.2124 C   0  0  0  0  0  0  0  0  0  0  0  0
    4.6361   -5.1033   -0.1062 N   0  0  2  0  0  0  0  0  0  0  0  0
    5.9768   -4.4377   -0.1111 C   0  0  0  0  0  0  0  0  0  0  0  0
    6.0922   -3.3233   -1.1664 C   0  0  0  0  0  0  0  0  0  0  0  0
    4.6926   -2.8137   -1.4892 C   0  0  2  0  0  0  0  0  0  0  0  0
    4.6271   -1.3670   -1.7924 C   0  0  0  0  0  0  0  0  0  0  0  0
    4.5425   -0.7270   -0.6026 C   0  0  0  0  0  0  0  0  0  0  0  0
    4.2928   -1.7077    0.5508 C   0  0  0  0  0  0  0  0  0  0  0  0
    3.6539   -2.7511   -0.3692 C   0  0  2  0  0  0  0  0  0  0  0  0
    3.5386   -4.2585   -0.6490 C   0  0  1  0  0  0  0  0  0  0  0  0
    3.7924   -3.8282   -2.1415 C   0  0  1  0  0  0  0  0  0  0  0  0
    2.7845   -3.1367   -3.0658 C   0  0  0  0  0  0  0  0  0  0  0  0
    3.0149   -1.9128   -3.5972 C   0  0  0  0  0  0  0  0  0  0  0  0
    4.1942   -1.0154   -3.2161 C   0  0  1  0  0  0  0  0  0  0  0  0
    3.8607    0.3223   -3.4205 O   0  0  0  0  0  0  0  0  0  0  0  0
    4.1450   -4.9196    1.9555 H   0  0  0  0  0  0  0  0  0  0  0  0
    5.1012   -6.3399    1.5597 H   0  0  0  0  0  0  0  0  0  0  0  0
    3.3974   -6.2918    1.1511 H   0  0  0  0  0  0  0  0  0  0  0  0
    6.1535   -4.0072    0.8674 H   0  0  0  0  0  0  0  0  0  0  0  0
    6.7506   -5.1768   -0.2567 H   0  0  0  0  0  0  0  0  0  0  0  0
    6.7279   -2.5202   -0.7936 H   0  0  0  0  0  0  0  0  0  0  0  0
    6.5466   -3.6896   -2.0865 H   0  0  0  0  0  0  0  0  0  0  0  0
    4.3162    0.2990   -0.4358 H   0  0  0  0  0  0  0  0  0  0  0  0
    5.2399   -1.9884    1.0118 H   0  0  0  0  0  0  0  0  0  0  0  0
    3.6246   -1.2731    1.2991 H   0  0  0  0  0  0  0  0  0  0  0  0
    2.6626   -2.3918   -0.6560 H   0  0  0  0  0  0  0  0  0  0  0  0
    2.5373   -4.6681   -0.5324 H   0  0  0  0  0  0  0  0  0  0  0  0
    4.4138   -4.5052   -2.7096 H   0  0  0  0  0  0  0  0  0  0  0  0
    1.9433   -3.7358   -3.4072 H   0  0  0  0  0  0  0  0  0  0  0  0
    2.3220   -1.5174   -4.3336 H   0  0  0  0  0  0  0  0  0  0  0  0
    5.0024   -1.2579   -3.8795 H   0  0  0  0  0  0  0  0  0  0  0  0
    3.0282    0.5322   -3.0129 H   0  0  0  0  0  0  0  0  0  0  0  0
    4.7006   -5.8719   -0.7614 H   0  0  0  0  0  0  0  0  0  0  0  0
  1  2  1  0
  1 16  1  0
  1 17  1  0
  1 18  1  0
  2 10  1  0
  2  3  1  0
  2 33  1  6
  3  4  1  0
  3 19  1  0
  3 20  1  0
  5  4  1  1
  4 21  1  0
  4 22  1  0
  5  9  1  0
  5 11  1  0
  5  6  1  0
  6 14  1  0
  6  7  2  0
  7  8  1  0
  7 23  1  0
  8  9  1  0
  8 24  1  0
  8 25  1  0
  9 10  1  0
  9 26  1  6
 10 11  1  0
 10 27  1  6
 11 12  1  0
 11 28  1  6
 12 13  2  0
 12 29  1  0
 13 14  1  0
 13 30  1  0
 14 15  1  0
 14 31  1  6
 15 32  1  0
M  CHG  1   2   1
M  END
>  <i_m_ct_stereo_status>  (298) 
1

>  <s_m_source_file>  (298) 
/var/tmp/pbs.5076255.sched01/tmpua_2_py4/114lbcpx7pn.sdf

>  <i_m_source_file_index>  (298) 
23

>  <i_lp_mmshare_version>  (298) 
48012

>  <i_f3d_flags>  (298) 
0

>  <s_epik_input>  (298) 
W09IXVtDQEBIXTFbQ0hdPVtDSF1bQ0BASF0yW0NAQEhdKE4oW0NIM10pW0NIMl1bQ0gyXTMpW0NASF00W0NIMl1bQ0hdPUMxW0NAQF0yMzQ=

>  <s_epik_cmdline>  (298) 
J2VwaWtfcHl0aG9uJywgJy1waHQnLCAnMi4wJywgJy1waCcsICc3LjAnLCAnLXRuJywgJzgnLCAnLW1hJywgJzIwMCcsICctaW1hZScsICc8aW5maWxlLm1hZT4nLCAnLW9tYWUnLCAnPG91dGZpbGUubWFlPic=

>  <r_epik_Ionization_Penalty>  (298) 
0.00449687

>  <r_epik_Ionization_Penalty_Charging>  (298) 
0.0044948

>  <r_epik_Ionization_Penalty_Neutral>  (298) 
2.06985e-06

>  <r_epik_State_Penalty>  (298) 
0.00324393

>  <r_epik_Charging_Adjusted_Penalty>  (298) 
0.00773873

>  <i_epik_Tot_Q>  (298) 
1

>  <i_epik_Tot_abs_Q>  (298) 
1

>  <s_lp_Force_Field>  (298) 
OPLS3e

>  <r_lp_Energy>  (298) 
99.4989

>  <b_lp_Chiralities_Consistent>  (298) 
1

>  <s_lp_Variant>  (298) 
104:0-1

>  <s_i_glide_gridfile>  (298) 
pfpi4k_grid

>  <i_i_glide_lignum>  (298) 
23

>  <i_i_glide_rotatable_bonds>  (298) 
1

>  <r_i_docking_score>  (298) 
-4.18924

>  <r_i_glide_ligand_efficiency>  (298) 
-0.279282

>  <r_i_glide_ligand_efficiency_sa>  (298) 
-0.68877

>  <r_i_glide_ligand_efficiency_ln>  (298) 
-1.12977

>  <r_i_glide_gscore>  (298) 
-4.18924

>  <r_i_glide_lipo>  (298) 
-0.676058

>  <r_i_glide_hbond>  (298) 
-0.162774

>  <r_i_glide_metal>  (298) 
-0

>  <r_i_glide_rewards>  (298) 
-2.01622

>  <r_i_glide_evdw>  (298) 
-12.1278

>  <r_i_glide_ecoul>  (298) 
-4.80319

>  <r_i_glide_erotb>  (298) 
0

>  <r_i_glide_esite>  (298) 
-0.00731999

>  <r_i_glide_emodel>  (298) 
-20.8146

>  <r_i_glide_energy>  (298) 
-16.931

>  <r_i_glide_einternal>  (298) 
0.0304663

>  <r_i_glide_intrahb_reward>  (298) 
-0

>  <i_i_glide_confnum>  (298) 
2

>  <i_i_glide_posenum>  (298) 
33

>  <r_i_glide_eff_state_penalty>  (298) 
0

>  <ligand_id>  (298) 
104

>  <original_smiles>  (298) 
CN1CCC23C4=CCC2C1C3C=CC4O

>  <smiles>  (298) 
[H]OC1([H])C([H])=C([H])C2([H])C34C1=C([H])C([H])([H])C3([H])C2([H])[N+]([H])(C([H])([H])[H])C([H])([H])C4([H])[H]

$$$$
104:0:1
     RDKit          3D

 33 36  0  0  1  0  0  0  0  0999 V2000
    3.0826   -0.4807   -3.6374 C   0  0  0  0  0  0  0  0  0  0  0  0
    3.8707   -1.6817   -3.3109 N   0  0  2  0  0  0  0  0  0  0  0  0
    3.0378   -2.8476   -2.9229 C   0  0  0  0  0  0  0  0  0  0  0  0
    3.8052   -3.8305   -2.0192 C   0  0  0  0  0  0  0  0  0  0  0  0
    4.9312   -3.1119   -1.3095 C   0  0  2  0  0  0  0  0  0  0  0  0
    5.1798   -3.5959    0.0691 C   0  0  0  0  0  0  0  0  0  0  0  0
    4.3308   -2.9631    0.9149 C   0  0  0  0  0  0  0  0  0  0  0  0
    3.6053   -1.8203    0.1654 C   0  0  0  0  0  0  0  0  0  0  0  0
    4.7193   -1.6611   -0.8767 C   0  0  2  0  0  0  0  0  0  0  0  0
    4.9890   -1.3822   -2.3623 C   0  0  1  0  0  0  0  0  0  0  0  0
    6.0140   -2.5996   -2.2363 C   0  0  1  0  0  0  0  0  0  0  0  0
    7.3609   -2.6389   -1.5033 C   0  0  0  0  0  0  0  0  0  0  0  0
    7.5916   -3.3933   -0.3890 C   0  0  0  0  0  0  0  0  0  0  0  0
    6.5224   -4.2299    0.3292 C   0  0  1  0  0  0  0  0  0  0  0  0
    6.8027   -4.3560    1.6811 O   0  0  0  0  0  0  0  0  0  0  0  0
    2.5952   -0.1021   -2.7515 H   0  0  0  0  0  0  0  0  0  0  0  0
    2.3299   -0.7159   -4.3896 H   0  0  0  0  0  0  0  0  0  0  0  0
    3.7233    0.3047   -4.0453 H   0  0  0  0  0  0  0  0  0  0  0  0
    2.1604   -2.4918   -2.3893 H   0  0  0  0  0  0  0  0  0  0  0  0
    2.6799   -3.3729   -3.8073 H   0  0  0  0  0  0  0  0  0  0  0  0
    3.1105   -4.2642   -1.2995 H   0  0  0  0  0  0  0  0  0  0  0  0
    4.2885   -4.6195   -2.6021 H   0  0  0  0  0  0  0  0  0  0  0  0
    4.3785   -3.0012    1.9952 H   0  0  0  0  0  0  0  0  0  0  0  0
    2.6318   -2.1774   -0.2148 H   0  0  0  0  0  0  0  0  0  0  0  0
    3.4470   -0.9482    0.8010 H   0  0  0  0  0  0  0  0  0  0  0  0
    5.5802   -1.1894   -0.3789 H   0  0  0  0  0  0  0  0  0  0  0  0
    5.4556   -0.4089   -2.5020 H   0  0  0  0  0  0  0  0  0  0  0  0
    6.0859   -3.1924   -3.1405 H   0  0  0  0  0  0  0  0  0  0  0  0
    8.1915   -2.1505   -1.9957 H   0  0  0  0  0  0  0  0  0  0  0  0
    8.6030   -3.4503   -0.0031 H   0  0  0  0  0  0  0  0  0  0  0  0
    6.5233   -5.2207   -0.1349 H   0  0  0  0  0  0  0  0  0  0  0  0
    6.8994   -3.4889    2.0679 H   0  0  0  0  0  0  0  0  0  0  0  0
    4.3450   -1.9599   -4.1549 H   0  0  0  0  0  0  0  0  0  0  0  0
  1  2  1  0
  1 16  1  0
  1 17  1  0
  1 18  1  0
  2 10  1  0
  2  3  1  0
  2 33  1  6
  3  4  1  0
  3 19  1  0
  3 20  1  0
  5  4  1  6
  4 21  1  0
  4 22  1  0
  5  9  1  0
  5 11  1  0
  5  6  1  0
  6 14  1  0
  6  7  2  0
  7  8  1  0
  7 23  1  0
  8  9  1  0
  8 24  1  0
  8 25  1  0
  9 10  1  0
  9 26  1  1
 10 11  1  0
 10 27  1  1
 11 12  1  0
 11 28  1  6
 12 13  2  0
 12 29  1  0
 13 14  1  0
 13 30  1  0
 14 15  1  0
 14 31  1  6
 15 32  1  0
M  CHG  1   2   1
M  END
>  <i_m_ct_stereo_status>  (299) 
1

>  <s_m_source_file>  (299) 
/var/tmp/pbs.5076255.sched01/tmpua_2_py4/114lbcpx7pn.sdf

>  <i_m_source_file_index>  (299) 
23

>  <i_lp_mmshare_version>  (299) 
48012

>  <i_f3d_flags>  (299) 
0

>  <s_epik_input>  (299) 
W09IXVtDQEBIXTFbQ0hdPVtDSF1bQ0BASF0yW0NAQEhdKE4oW0NIM10pW0NIMl1bQ0gyXTMpW0NASF00W0NIMl1bQ0hdPUMxW0NAQF0yMzQ=

>  <s_epik_cmdline>  (299) 
J2VwaWtfcHl0aG9uJywgJy1waHQnLCAnMi4wJywgJy1waCcsICc3LjAnLCAnLXRuJywgJzgnLCAnLW1hJywgJzIwMCcsICctaW1hZScsICc8aW5maWxlLm1hZT4nLCAnLW9tYWUnLCAnPG91dGZpbGUubWFlPic=

>  <r_epik_Ionization_Penalty>  (299) 
0.00449687

>  <r_epik_Ionization_Penalty_Charging>  (299) 
0.0044948

>  <r_epik_Ionization_Penalty_Neutral>  (299) 
2.06985e-06

>  <r_epik_State_Penalty>  (299) 
0.00324393

>  <r_epik_Charging_Adjusted_Penalty>  (299) 
0.00773873

>  <i_epik_Tot_Q>  (299) 
1

>  <i_epik_Tot_abs_Q>  (299) 
1

>  <s_lp_Force_Field>  (299) 
OPLS3e

>  <r_lp_Energy>  (299) 
99.4989

>  <b_lp_Chiralities_Consistent>  (299) 
1

>  <s_lp_Variant>  (299) 
104:0-1

>  <s_i_glide_gridfile>  (299) 
pfpi4k_grid

>  <i_i_glide_lignum>  (299) 
23

>  <i_i_glide_rotatable_bonds>  (299) 
1

>  <r_i_docking_score>  (299) 
-3.65097

>  <r_i_glide_ligand_efficiency>  (299) 
-0.243398

>  <r_i_glide_ligand_efficiency_sa>  (299) 
-0.600271

>  <r_i_glide_ligand_efficiency_ln>  (299) 
-0.984606

>  <r_i_glide_gscore>  (299) 
-3.65097

>  <r_i_glide_lipo>  (299) 
-0.629603

>  <r_i_glide_hbond>  (299) 
0

>  <r_i_glide_metal>  (299) 
-0

>  <r_i_glide_rewards>  (299) 
-2.01622

>  <r_i_glide_evdw>  (299) 
-14.5367

>  <r_i_glide_ecoul>  (299) 
-1.85542

>  <r_i_glide_erotb>  (299) 
0

>  <r_i_glide_esite>  (299) 
0

>  <r_i_glide_emodel>  (299) 
-19.8336

>  <r_i_glide_energy>  (299) 
-16.3922

>  <r_i_glide_einternal>  (299) 
0.00209768

>  <r_i_glide_intrahb_reward>  (299) 
-0

>  <i_i_glide_confnum>  (299) 
1

>  <i_i_glide_posenum>  (299) 
40

>  <r_i_glide_eff_state_penalty>  (299) 
0

>  <ligand_id>  (299) 
104

>  <original_smiles>  (299) 
CN1CCC23C4=CCC2C1C3C=CC4O

>  <smiles>  (299) 
[H]OC1([H])C([H])=C([H])C2([H])C34C1=C([H])C([H])([H])C3([H])C2([H])[N+]([H])(C([H])([H])[H])C([H])([H])C4([H])[H]

$$$$
104:0:2
     RDKit          3D

 33 36  0  0  1  0  0  0  0  0999 V2000
    2.9243   -0.4767   -4.2652 C   0  0  0  0  0  0  0  0  0  0  0  0
    3.3817   -1.7583   -3.6538 N   0  0  2  0  0  0  0  0  0  0  0  0
    2.3596   -2.4202   -2.8190 C   0  0  0  0  0  0  0  0  0  0  0  0
    2.9426   -3.2514   -1.6877 C   0  0  0  0  0  0  0  0  0  0  0  0
    4.3557   -2.8267   -1.3822 C   0  0  2  0  0  0  0  0  0  0  0  0
    4.7177   -2.9794    0.0454 C   0  0  0  0  0  0  0  0  0  0  0  0
    4.3127   -1.8918    0.7315 C   0  0  0  0  0  0  0  0  0  0  0  0
    3.8514   -0.7970   -0.2357 C   0  0  0  0  0  0  0  0  0  0  0  0
    4.6638   -1.3282   -1.4260 C   0  0  2  0  0  0  0  0  0  0  0  0
    4.6723   -1.5627   -2.9391 C   0  0  1  0  0  0  0  0  0  0  0  0
    5.3497   -2.9121   -2.5135 C   0  0  1  0  0  0  0  0  0  0  0  0
    6.7697   -3.0617   -1.9578 C   0  0  0  0  0  0  0  0  0  0  0  0
    6.9950   -3.5311   -0.6962 C   0  0  0  0  0  0  0  0  0  0  0  0
    5.9045   -3.8716    0.3169 C   0  0  1  0  0  0  0  0  0  0  0  0
    6.3489   -3.7357    1.6397 O   0  0  0  0  0  0  0  0  0  0  0  0
    2.7793    0.2771   -3.5092 H   0  0  0  0  0  0  0  0  0  0  0  0
    1.9967   -0.6122   -4.7897 H   0  0  0  0  0  0  0  0  0  0  0  0
    3.6488   -0.0917   -4.9693 H   0  0  0  0  0  0  0  0  0  0  0  0
    1.8643   -1.6089   -2.3336 H   0  0  0  0  0  0  0  0  0  0  0  0
    1.6431   -2.9770   -3.4123 H   0  0  0  0  0  0  0  0  0  0  0  0
    2.2983   -3.2116   -0.8107 H   0  0  0  0  0  0  0  0  0  0  0  0
    3.0416   -4.2387   -2.0025 H   0  0  0  0  0  0  0  0  0  0  0  0
    4.6476   -1.6434    1.7245 H   0  0  0  0  0  0  0  0  0  0  0  0
    2.7737   -0.8839   -0.3606 H   0  0  0  0  0  0  0  0  0  0  0  0
    4.1457    0.1907    0.1516 H   0  0  0  0  0  0  0  0  0  0  0  0
    5.7127   -1.0415   -1.2677 H   0  0  0  0  0  0  0  0  0  0  0  0
    5.3233   -0.8718   -3.4196 H   0  0  0  0  0  0  0  0  0  0  0  0
    5.1376   -3.7274   -3.1704 H   0  0  0  0  0  0  0  0  0  0  0  0
    7.5451   -2.9906   -2.7059 H   0  0  0  0  0  0  0  0  0  0  0  0
    7.9867   -3.8539   -0.3956 H   0  0  0  0  0  0  0  0  0  0  0  0
    5.5685   -4.8976    0.1373 H   0  0  0  0  0  0  0  0  0  0  0  0
    6.6727   -4.5832    1.9122 H   0  0  0  0  0  0  0  0  0  0  0  0
    3.5633   -2.3983   -4.4159 H   0  0  0  0  0  0  0  0  0  0  0  0
  1  2  1  0
  1 16  1  0
  1 17  1  0
  1 18  1  0
  2 10  1  0
  2  3  1  0
  2 33  1  6
  3  4  1  0
  3 19  1  0
  3 20  1  0
  5  4  1  6
  4 21  1  0
  4 22  1  0
  5  9  1  0
  5 11  1  0
  5  6  1  0
  6 14  1  0
  6  7  2  0
  7  8  1  0
  7 23  1  0
  8  9  1  0
  8 24  1  0
  8 25  1  0
  9 10  1  0
  9 26  1  1
 10 11  1  0
 10 27  1  6
 11 12  1  0
 11 28  1  6
 12 13  2  0
 12 29  1  0
 13 14  1  0
 13 30  1  0
 14 15  1  0
 14 31  1  6
 15 32  1  0
M  CHG  1   2   1
M  END
>  <i_m_ct_stereo_status>  (300) 
1

>  <s_m_source_file>  (300) 
/var/tmp/pbs.5076255.sched01/tmpua_2_py4/114lbcpx7pn.sdf

>  <i_m_source_file_index>  (300) 
23

>  <i_lp_mmshare_version>  (300) 
48012

>  <i_f3d_flags>  (300) 
0

>  <s_epik_input>  (300) 
W09IXVtDQEBIXTFbQ0hdPVtDSF1bQ0BASF0yW0NAQEhdKE4oW0NIM10pW0NIMl1bQ0gyXTMpW0NASF00W0NIMl1bQ0hdPUMxW0NAQF0yMzQ=

>  <s_epik_cmdline>  (300) 
J2VwaWtfcHl0aG9uJywgJy1waHQnLCAnMi4wJywgJy1waCcsICc3LjAnLCAnLXRuJywgJzgnLCAnLW1hJywgJzIwMCcsICctaW1hZScsICc8aW5maWxlLm1hZT4nLCAnLW9tYWUnLCAnPG91dGZpbGUubWFlPic=

>  <r_epik_Ionization_Penalty>  (300) 
0.00449687

>  <r_epik_Ionization_Penalty_Charging>  (300) 
0.0044948

>  <r_epik_Ionization_Penalty_Neutral>  (300) 
2.06985e-06

>  <r_epik_State_Penalty>  (300) 
0.00324393

>  <r_epik_Charging_Adjusted_Penalty>  (300) 
0.00773873

>  <i_epik_Tot_Q>  (300) 
1

>  <i_epik_Tot_abs_Q>  (300) 
1

>  <s_lp_Force_Field>  (300) 
OPLS3e

>  <r_lp_Energy>  (300) 
99.4989

>  <b_lp_Chiralities_Consistent>  (300) 
1

>  <s_lp_Variant>  (300) 
104:0-1

>  <s_i_glide_gridfile>  (300) 
pfpi4k_grid

>  <i_i_glide_lignum>  (300) 
23

>  <i_i_glide_rotatable_bonds>  (300) 
1

>  <r_i_docking_score>  (300) 
-3.60012

>  <r_i_glide_ligand_efficiency>  (300) 
-0.240008

>  <r_i_glide_ligand_efficiency_sa>  (300) 
-0.591911

>  <r_i_glide_ligand_efficiency_ln>  (300) 
-0.970893

>  <r_i_glide_gscore>  (300) 
-3.60012

>  <r_i_glide_lipo>  (300) 
-0.720029

>  <r_i_glide_hbond>  (300) 
0

>  <r_i_glide_metal>  (300) 
-0

>  <r_i_glide_rewards>  (300) 
-2.01622

>  <r_i_glide_evdw>  (300) 
-7.3452

>  <r_i_glide_ecoul>  (300) 
-3.31076

>  <r_i_glide_erotb>  (300) 
0

>  <r_i_glide_esite>  (300) 
0

>  <r_i_glide_emodel>  (300) 
-12.7333

>  <r_i_glide_energy>  (300) 
-10.656

>  <r_i_glide_einternal>  (300) 
0.419418

>  <r_i_glide_intrahb_reward>  (300) 
-0

>  <i_i_glide_confnum>  (300) 
1

>  <i_i_glide_posenum>  (300) 
1

>  <r_i_glide_eff_state_penalty>  (300) 
0

>  <ligand_id>  (300) 
104

>  <original_smiles>  (300) 
CN1CCC23C4=CCC2C1C3C=CC4O

>  <smiles>  (300) 
[H]OC1([H])C([H])=C([H])C2([H])C34C1=C([H])C([H])([H])C3([H])C2([H])[N+]([H])(C([H])([H])[H])C([H])([H])C4([H])[H]

$$$$
105:0:0
     RDKit          3D

 55 59  0  0  1  0  0  0  0  0999 V2000
    3.1586    0.2877    1.3713 C   0  0  0  0  0  0  0  0  0  0  0  0
    4.5485    0.1268    1.0790 O   0  0  0  0  0  0  0  0  0  0  0  0
    4.9709   -1.0680    0.4088 C   0  0  2  0  0  0  0  0  0  0  0  0
    4.0723   -1.3615   -0.8233 C   0  0  0  0  0  0  0  0  0  0  0  0
    4.4068   -2.6847   -1.5090 C   0  0  0  0  0  0  0  0  0  0  0  0
    4.4924   -2.7865   -2.7350 O   0  0  0  0  0  0  0  0  0  0  0  0
    4.5901   -3.8843   -0.5711 C   0  0  0  0  0  0  0  0  0  0  0  0
    5.5510   -3.5900    0.6198 C   0  0  1  0  0  0  0  0  0  0  0  0
    6.9997   -3.3619    0.0865 C   0  0  0  0  0  0  0  0  0  0  0  0
    5.0575   -2.2996    1.3248 C   0  0  0  0  0  0  0  0  0  0  0  0
    4.6443   -2.2783    2.6101 C   0  0  0  0  0  0  0  0  0  0  0  0
    4.4187   -3.5075    3.4663 C   0  0  0  0  0  0  0  0  0  0  0  0
    4.3933   -4.7838    2.6207 C   0  0  1  0  0  0  0  0  0  0  0  0
    5.5979   -4.7862    1.6362 C   0  0  1  0  0  0  0  0  0  0  0  0
    5.8700   -6.1876    1.0154 C   0  0  0  0  0  0  0  0  0  0  0  0
    4.7178   -7.1952    1.1964 C   0  0  0  0  0  0  0  0  0  0  0  0
    4.3763   -7.3914    2.6766 C   0  0  2  0  0  0  0  0  0  0  0  0
    5.3271   -8.4409    3.2737 C   0  0  0  0  0  0  0  0  0  0  0  0
    2.8566   -7.5895    2.9724 C   0  0  1  0  0  0  0  0  0  0  0  0
    2.3174   -8.9367    3.4115 C   0  0  0  0  0  0  0  0  0  0  0  0
    1.6640   -9.8375    2.5332 C   0  0  0  0  0  0  0  0  0  0  0  0
    1.4069  -10.9492    3.2900 C   0  0  0  0  0  0  0  0  0  0  0  0
    1.8742  -10.7898    4.5680 O   0  0  0  0  0  0  0  0  0  0  0  0
    2.4307   -9.5430    4.6293 C   0  0  0  0  0  0  0  0  0  0  0  0
    2.9924   -6.4901    4.0535 C   0  0  0  0  0  0  0  0  0  0  0  0
    2.3204   -6.1415    5.0248 O   0  0  0  0  0  0  0  0  0  0  0  0
    4.3615   -6.0600    3.4712 C   0  0  2  0  0  0  0  0  0  0  0  0
    3.0289    1.2561    1.8576 H   0  0  0  0  0  0  0  0  0  0  0  0
    2.7934   -0.4855    2.0417 H   0  0  0  0  0  0  0  0  0  0  0  0
    2.5419    0.2776    0.4718 H   0  0  0  0  0  0  0  0  0  0  0  0
    5.9801   -0.8536    0.0489 H   0  0  0  0  0  0  0  0  0  0  0  0
    3.0342   -1.4799   -0.5047 H   0  0  0  0  0  0  0  0  0  0  0  0
    4.1026   -0.5426   -1.5370 H   0  0  0  0  0  0  0  0  0  0  0  0
    3.6081   -4.1425   -0.1773 H   0  0  0  0  0  0  0  0  0  0  0  0
    4.9250   -4.7321   -1.1614 H   0  0  0  0  0  0  0  0  0  0  0  0
    7.4468   -4.2748   -0.3087 H   0  0  0  0  0  0  0  0  0  0  0  0
    7.6618   -2.9946    0.8706 H   0  0  0  0  0  0  0  0  0  0  0  0
    7.0528   -2.6394   -0.7288 H   0  0  0  0  0  0  0  0  0  0  0  0
    4.3646   -1.3455    3.0844 H   0  0  0  0  0  0  0  0  0  0  0  0
    5.1787   -3.5366    4.2476 H   0  0  0  0  0  0  0  0  0  0  0  0
    3.4468   -3.3920    3.9510 H   0  0  0  0  0  0  0  0  0  0  0  0
    3.4836   -4.7541    2.0135 H   0  0  0  0  0  0  0  0  0  0  0  0
    6.4709   -4.5978    2.2700 H   0  0  0  0  0  0  0  0  0  0  0  0
    6.1180   -6.1058   -0.0416 H   0  0  0  0  0  0  0  0  0  0  0  0
    6.7637   -6.6045    1.4757 H   0  0  0  0  0  0  0  0  0  0  0  0
    3.8545   -6.8030    0.6550 H   0  0  0  0  0  0  0  0  0  0  0  0
    4.9596   -8.1397    0.7105 H   0  0  0  0  0  0  0  0  0  0  0  0
    5.1176   -8.5965    4.3332 H   0  0  0  0  0  0  0  0  0  0  0  0
    6.3671   -8.1223    3.2077 H   0  0  0  0  0  0  0  0  0  0  0  0
    5.2277   -9.4029    2.7720 H   0  0  0  0  0  0  0  0  0  0  0  0
    2.2334   -7.2216    2.1567 H   0  0  0  0  0  0  0  0  0  0  0  0
    1.4325   -9.7179    1.4896 H   0  0  0  0  0  0  0  0  0  0  0  0
    0.9507  -11.9000    3.0840 H   0  0  0  0  0  0  0  0  0  0  0  0
    2.8672   -9.2940    5.5772 H   0  0  0  0  0  0  0  0  0  0  0  0
    5.1361   -6.0640    4.2379 H   0  0  0  0  0  0  0  0  0  0  0  0
  1  2  1  0
  1 28  1  0
  1 29  1  0
  1 30  1  0
  2  3  1  0
  3 10  1  0
  3  4  1  0
  3 31  1  6
  4  5  1  0
  4 32  1  0
  4 33  1  0
  5  6  2  0
  5  7  1  0
  7  8  1  0
  7 34  1  0
  7 35  1  0
  8 14  1  0
  8  9  1  6
  8 10  1  0
  9 36  1  0
  9 37  1  0
  9 38  1  0
 10 11  2  0
 11 12  1  0
 11 39  1  0
 12 13  1  0
 12 40  1  0
 12 41  1  0
 13 27  1  0
 13 14  1  0
 13 42  1  6
 14 15  1  0
 14 43  1  1
 15 16  1  0
 15 44  1  0
 15 45  1  0
 16 17  1  0
 16 46  1  0
 16 47  1  0
 17 27  1  0
 17 18  1  1
 17 19  1  0
 18 48  1  0
 18 49  1  0
 18 50  1  0
 19 20  1  0
 19 25  1  0
 19 51  1  6
 20 24  2  0
 20 21  1  0
 21 22  2  0
 21 52  1  0
 22 23  1  0
 22 53  1  0
 23 24  1  0
 24 54  1  0
 25 26  2  0
 25 27  1  0
 27 55  1  1
M  END
>  <i_m_ct_stereo_status>  (301) 
1

>  <s_m_source_file>  (301) 
/var/tmp/pbs.5076255.sched01/tmpua_2_py4/114lbcpx7pn.sdf

>  <i_m_source_file_index>  (301) 
24

>  <i_lp_mmshare_version>  (301) 
48012

>  <i_f3d_flags>  (301) 
0

>  <s_epik_input>  (301) 
Tz1DKFtDSDJdMSlbQ0gyXVtDQEBIXShPW0NIM10pQyhbQ0BdMTJbQ0gzXSk9W0NIXVtDSDJdW0NASF0zW0NASF0yW0NIMl1bQ0gyXVtDQEBdNChbQ0gzXSlbQ0BASF0zQyg9TylbQ0BASF00YzVbY0hdW2NIXW9bY0hdNQ==

>  <s_epik_cmdline>  (301) 
J2VwaWtfcHl0aG9uJywgJy1waHQnLCAnMi4wJywgJy1waCcsICc3LjAnLCAnLXRuJywgJzgnLCAnLW1hJywgJzIwMCcsICctaW1hZScsICc8aW5maWxlLm1hZT4nLCAnLW9tYWUnLCAnPG91dGZpbGUubWFlPic=

>  <r_lp_tautomer_probability>  (301) 
1

>  <r_epik_Ionization_Penalty>  (301) 
4.77385e-12

>  <r_epik_Ionization_Penalty_Charging>  (301) 
0

>  <r_epik_Ionization_Penalty_Neutral>  (301) 
4.77385e-12

>  <r_epik_State_Penalty>  (301) 
-0

>  <r_epik_Charging_Adjusted_Penalty>  (301) 
0

>  <i_epik_Tot_Q>  (301) 
0

>  <i_epik_Tot_abs_Q>  (301) 
0

>  <s_lp_Force_Field>  (301) 
OPLS3e

>  <r_lp_Energy>  (301) 
19.4478

>  <b_lp_Chiralities_Consistent>  (301) 
1

>  <s_lp_Variant>  (301) 
105:0-1

>  <s_i_glide_gridfile>  (301) 
pfpi4k_grid

>  <i_i_glide_lignum>  (301) 
24

>  <i_i_glide_rotatable_bonds>  (301) 
2

>  <r_i_docking_score>  (301) 
-3.152

>  <r_i_glide_ligand_efficiency>  (301) 
-0.116741

>  <r_i_glide_ligand_efficiency_sa>  (301) 
-0.350222

>  <r_i_glide_ligand_efficiency_ln>  (301) 
-0.733734

>  <r_i_glide_gscore>  (301) 
-3.152

>  <r_i_glide_lipo>  (301) 
-0.959247

>  <r_i_glide_hbond>  (301) 
-0.0384204

>  <r_i_glide_metal>  (301) 
-0

>  <r_i_glide_rewards>  (301) 
-0.896823

>  <r_i_glide_evdw>  (301) 
-23.8363

>  <r_i_glide_ecoul>  (301) 
-1.27099

>  <r_i_glide_erotb>  (301) 
0.141935

>  <r_i_glide_esite>  (301) 
-0.0169852

>  <r_i_glide_emodel>  (301) 
-27.2267

>  <r_i_glide_energy>  (301) 
-25.1073

>  <r_i_glide_einternal>  (301) 
5.42927

>  <r_i_glide_intrahb_reward>  (301) 
-0

>  <i_i_glide_confnum>  (301) 
6

>  <i_i_glide_posenum>  (301) 
2

>  <r_i_glide_eff_state_penalty>  (301) 
0

>  <ligand_id>  (301) 
105

>  <original_smiles>  (301) 
COC1CC(=O)CC2(C)C1=CCC1C2CCC2(C)C(c3ccoc3)C(=O)C12

>  <smiles>  (301) 
[H]C1=C2C([H])(OC([H])([H])[H])C([H])([H])C(=O)C([H])([H])C2(C([H])([H])[H])C2([H])C([H])([H])C([H])([H])C3(C([H])([H])[H])C([H])(c4c([H])oc([H])c4[H])C(=O)C3([H])C2([H])C1([H])[H]

$$$$
105:0:1
     RDKit          3D

 55 59  0  0  1  0  0  0  0  0999 V2000
   -2.0357    2.2732    8.6102 C   0  0  0  0  0  0  0  0  0  0  0  0
   -2.4331    2.0559    7.2615 O   0  0  0  0  0  0  0  0  0  0  0  0
   -1.5721    2.6731    6.3060 C   0  0  2  0  0  0  0  0  0  0  0  0
   -2.4179    3.0247    5.0682 C   0  0  0  0  0  0  0  0  0  0  0  0
   -1.5620    3.5645    3.9252 C   0  0  0  0  0  0  0  0  0  0  0  0
   -1.8903    4.5735    3.3042 O   0  0  0  0  0  0  0  0  0  0  0  0
   -0.2862    2.7805    3.5945 C   0  0  0  0  0  0  0  0  0  0  0  0
    0.5589    2.4326    4.8527 C   0  0  1  0  0  0  0  0  0  0  0  0
    1.1705    3.7313    5.4580 C   0  0  0  0  0  0  0  0  0  0  0  0
   -0.3964    1.7843    5.8818 C   0  0  0  0  0  0  0  0  0  0  0  0
   -0.2945    0.4975    6.2718 C   0  0  0  0  0  0  0  0  0  0  0  0
    0.7082   -0.4957    5.7204 C   0  0  0  0  0  0  0  0  0  0  0  0
    1.2900   -0.0178    4.3816 C   0  0  1  0  0  0  0  0  0  0  0  0
    1.7388    1.4628    4.4934 C   0  0  1  0  0  0  0  0  0  0  0  0
    2.6591    1.9153    3.3183 C   0  0  0  0  0  0  0  0  0  0  0  0
    2.6563    0.9618    2.1128 C   0  0  0  0  0  0  0  0  0  0  0  0
    3.0707   -0.4530    2.5173 C   0  0  2  0  0  0  0  0  0  0  0  0
    4.6020   -0.5418    2.5140 C   0  0  0  0  0  0  0  0  0  0  0  0
    2.3199   -1.5900    1.7591 C   0  0  1  0  0  0  0  0  0  0  0  0
    3.0631   -2.4677    0.7642 C   0  0  0  0  0  0  0  0  0  0  0  0
    3.5089   -3.8088    0.9274 C   0  0  0  0  0  0  0  0  0  0  0  0
    4.0952   -4.1180   -0.2698 C   0  0  0  0  0  0  0  0  0  0  0  0
    4.0522   -3.0618   -1.1336 O   0  0  0  0  0  0  0  0  0  0  0  0
    3.4196   -2.0497   -0.4820 C   0  0  0  0  0  0  0  0  0  0  0  0
    2.0135   -2.2127    3.1456 C   0  0  0  0  0  0  0  0  0  0  0  0
    1.6709   -3.3268    3.5386 O   0  0  0  0  0  0  0  0  0  0  0  0
    2.4319   -0.9018    3.8543 C   0  0  2  0  0  0  0  0  0  0  0  0
   -2.7178    1.7515    9.2800 H   0  0  0  0  0  0  0  0  0  0  0  0
   -2.0709    3.3323    8.8730 H   0  0  0  0  0  0  0  0  0  0  0  0
   -1.0272    1.9019    8.7964 H   0  0  0  0  0  0  0  0  0  0  0  0
   -1.1989    3.6057    6.7292 H   0  0  0  0  0  0  0  0  0  0  0  0
   -2.9176    2.1408    4.6823 H   0  0  0  0  0  0  0  0  0  0  0  0
   -3.1964    3.7407    5.3260 H   0  0  0  0  0  0  0  0  0  0  0  0
   -0.5905    1.8607    3.0977 H   0  0  0  0  0  0  0  0  0  0  0  0
    0.3037    3.3423    2.8728 H   0  0  0  0  0  0  0  0  0  0  0  0
    1.9399    4.1629    4.8178 H   0  0  0  0  0  0  0  0  0  0  0  0
    1.6271    3.5401    6.4300 H   0  0  0  0  0  0  0  0  0  0  0  0
    0.4384    4.5257    5.6054 H   0  0  0  0  0  0  0  0  0  0  0  0
   -1.0010    0.0944    6.9815 H   0  0  0  0  0  0  0  0  0  0  0  0
    1.4822   -0.6585    6.4709 H   0  0  0  0  0  0  0  0  0  0  0  0
    0.1904   -1.4435    5.5681 H   0  0  0  0  0  0  0  0  0  0  0  0
    0.4706   -0.0550    3.6597 H   0  0  0  0  0  0  0  0  0  0  0  0
    2.3925    1.4820    5.3637 H   0  0  0  0  0  0  0  0  0  0  0  0
    2.3994    2.9094    2.9649 H   0  0  0  0  0  0  0  0  0  0  0  0
    3.6822    2.0059    3.6914 H   0  0  0  0  0  0  0  0  0  0  0  0
    1.6448    0.9538    1.7032 H   0  0  0  0  0  0  0  0  0  0  0  0
    3.2878    1.3455    1.3139 H   0  0  0  0  0  0  0  0  0  0  0  0
    4.9300   -1.5393    2.8057 H   0  0  0  0  0  0  0  0  0  0  0  0
    5.0458    0.1541    3.2257 H   0  0  0  0  0  0  0  0  0  0  0  0
    5.0184   -0.3348    1.5280 H   0  0  0  0  0  0  0  0  0  0  0  0
    1.3989   -1.2297    1.2908 H   0  0  0  0  0  0  0  0  0  0  0  0
    3.4164   -4.4696    1.7759 H   0  0  0  0  0  0  0  0  0  0  0  0
    4.5696   -4.9914   -0.6706 H   0  0  0  0  0  0  0  0  0  0  0  0
    3.2686   -1.1447   -1.0543 H   0  0  0  0  0  0  0  0  0  0  0  0
    3.2151   -1.0707    4.5939 H   0  0  0  0  0  0  0  0  0  0  0  0
  1  2  1  0
  1 28  1  0
  1 29  1  0
  1 30  1  0
  2  3  1  0
  3 10  1  0
  3  4  1  0
  3 31  1  1
  4  5  1  0
  4 32  1  0
  4 33  1  0
  5  6  2  0
  5  7  1  0
  7  8  1  0
  7 34  1  0
  7 35  1  0
  8 14  1  0
  8  9  1  1
  8 10  1  0
  9 36  1  0
  9 37  1  0
  9 38  1  0
 10 11  2  0
 11 12  1  0
 11 39  1  0
 12 13  1  0
 12 40  1  0
 12 41  1  0
 13 27  1  0
 13 14  1  0
 13 42  1  6
 14 15  1  0
 14 43  1  1
 15 16  1  0
 15 44  1  0
 15 45  1  0
 16 17  1  0
 16 46  1  0
 16 47  1  0
 17 27  1  0
 17 18  1  1
 17 19  1  0
 18 48  1  0
 18 49  1  0
 18 50  1  0
 19 20  1  0
 19 25  1  0
 19 51  1  6
 20 24  2  0
 20 21  1  0
 21 22  2  0
 21 52  1  0
 22 23  1  0
 22 53  1  0
 23 24  1  0
 24 54  1  0
 25 26  2  0
 25 27  1  0
 27 55  1  1
M  END
>  <i_m_ct_stereo_status>  (302) 
1

>  <s_m_source_file>  (302) 
/var/tmp/pbs.5076255.sched01/tmpua_2_py4/114lbcpx7pn.sdf

>  <i_m_source_file_index>  (302) 
24

>  <i_lp_mmshare_version>  (302) 
48012

>  <i_f3d_flags>  (302) 
0

>  <s_epik_input>  (302) 
Tz1DKFtDSDJdMSlbQ0gyXVtDQEBIXShPW0NIM10pQyhbQ0BdMTJbQ0gzXSk9W0NIXVtDSDJdW0NASF0zW0NASF0yW0NIMl1bQ0gyXVtDQEBdNChbQ0gzXSlbQ0BASF0zQyg9TylbQ0BASF00YzVbY0hdW2NIXW9bY0hdNQ==

>  <s_epik_cmdline>  (302) 
J2VwaWtfcHl0aG9uJywgJy1waHQnLCAnMi4wJywgJy1waCcsICc3LjAnLCAnLXRuJywgJzgnLCAnLW1hJywgJzIwMCcsICctaW1hZScsICc8aW5maWxlLm1hZT4nLCAnLW9tYWUnLCAnPG91dGZpbGUubWFlPic=

>  <r_lp_tautomer_probability>  (302) 
1

>  <r_epik_Ionization_Penalty>  (302) 
4.77385e-12

>  <r_epik_Ionization_Penalty_Charging>  (302) 
0

>  <r_epik_Ionization_Penalty_Neutral>  (302) 
4.77385e-12

>  <r_epik_State_Penalty>  (302) 
-0

>  <r_epik_Charging_Adjusted_Penalty>  (302) 
0

>  <i_epik_Tot_Q>  (302) 
0

>  <i_epik_Tot_abs_Q>  (302) 
0

>  <s_lp_Force_Field>  (302) 
OPLS3e

>  <r_lp_Energy>  (302) 
19.4478

>  <b_lp_Chiralities_Consistent>  (302) 
1

>  <s_lp_Variant>  (302) 
105:0-1

>  <s_i_glide_gridfile>  (302) 
pfpi4k_grid

>  <i_i_glide_lignum>  (302) 
24

>  <i_i_glide_rotatable_bonds>  (302) 
2

>  <r_i_docking_score>  (302) 
-2.74813

>  <r_i_glide_ligand_efficiency>  (302) 
-0.101783

>  <r_i_glide_ligand_efficiency_sa>  (302) 
-0.305348

>  <r_i_glide_ligand_efficiency_ln>  (302) 
-0.63972

>  <r_i_glide_gscore>  (302) 
-2.74813

>  <r_i_glide_lipo>  (302) 
-0.157275

>  <r_i_glide_hbond>  (302) 
-0.16

>  <r_i_glide_metal>  (302) 
-0

>  <r_i_glide_rewards>  (302) 
-0.896823

>  <r_i_glide_evdw>  (302) 
-22.5461

>  <r_i_glide_ecoul>  (302) 
-3.25485

>  <r_i_glide_erotb>  (302) 
0.141935

>  <r_i_glide_esite>  (302) 
-0.0604397

>  <r_i_glide_emodel>  (302) 
-30.1154

>  <r_i_glide_energy>  (302) 
-25.8009

>  <r_i_glide_einternal>  (302) 
0.694242

>  <r_i_glide_intrahb_reward>  (302) 
-0

>  <i_i_glide_confnum>  (302) 
5

>  <i_i_glide_posenum>  (302) 
33

>  <r_i_glide_eff_state_penalty>  (302) 
0

>  <ligand_id>  (302) 
105

>  <original_smiles>  (302) 
COC1CC(=O)CC2(C)C1=CCC1C2CCC2(C)C(c3ccoc3)C(=O)C12

>  <smiles>  (302) 
[H]C1=C2C([H])(OC([H])([H])[H])C([H])([H])C(=O)C([H])([H])C2(C([H])([H])[H])C2([H])C([H])([H])C([H])([H])C3(C([H])([H])[H])C([H])(c4c([H])oc([H])c4[H])C(=O)C3([H])C2([H])C1([H])[H]

$$$$
105:0:2
     RDKit          3D

 55 59  0  0  1  0  0  0  0  0999 V2000
   -2.2361    2.2714    8.3280 C   0  0  0  0  0  0  0  0  0  0  0  0
   -2.5893    2.0267    6.9728 O   0  0  0  0  0  0  0  0  0  0  0  0
   -1.7151    2.6401    6.0305 C   0  0  2  0  0  0  0  0  0  0  0  0
   -2.5262    2.9356    4.7578 C   0  0  0  0  0  0  0  0  0  0  0  0
   -1.6493    3.4801    3.6383 C   0  0  0  0  0  0  0  0  0  0  0  0
   -1.9795    4.4932    3.0218 O   0  0  0  0  0  0  0  0  0  0  0  0
   -0.3432    2.7152    3.3619 C   0  0  0  0  0  0  0  0  0  0  0  0
    0.4695    2.4170    4.6591 C   0  0  1  0  0  0  0  0  0  0  0  0
    1.0268    3.7464    5.2515 C   0  0  0  0  0  0  0  0  0  0  0  0
   -0.5051    1.7717    5.6709 C   0  0  0  0  0  0  0  0  0  0  0  0
   -0.3886    0.4982    6.0968 C   0  0  0  0  0  0  0  0  0  0  0  0
    0.6596   -0.4839    5.6155 C   0  0  0  0  0  0  0  0  0  0  0  0
    1.2793   -0.0306    4.2878 C   0  0  1  0  0  0  0  0  0  0  0  0
    1.6850    1.4658    4.3754 C   0  0  1  0  0  0  0  0  0  0  0  0
    2.6346    1.9107    3.2258 C   0  0  0  0  0  0  0  0  0  0  0  0
    2.7048    0.9225    2.0514 C   0  0  0  0  0  0  0  0  0  0  0  0
    3.1404   -0.4725    2.5085 C   0  0  2  0  0  0  0  0  0  0  0  0
    4.6737   -0.5161    2.5598 C   0  0  0  0  0  0  0  0  0  0  0  0
    2.4470   -1.6521    1.7613 C   0  0  1  0  0  0  0  0  0  0  0  0
    3.2370   -2.5161    0.7950 C   0  0  0  0  0  0  0  0  0  0  0  0
    3.4147   -2.1720   -0.5682 C   0  0  0  0  0  0  0  0  0  0  0  0
    4.1906   -3.1728   -1.0827 C   0  0  0  0  0  0  0  0  0  0  0  0
    4.5109   -4.0879   -0.1138 O   0  0  0  0  0  0  0  0  0  0  0  0
    3.9159   -3.6721    1.0365 C   0  0  0  0  0  0  0  0  0  0  0  0
    2.1149   -2.2478    3.1499 C   0  0  0  0  0  0  0  0  0  0  0  0
    1.7859   -3.3615    3.5600 O   0  0  0  0  0  0  0  0  0  0  0  0
    2.4637   -0.9029    3.8334 C   0  0  2  0  0  0  0  0  0  0  0  0
   -2.9355    1.7561    8.9850 H   0  0  0  0  0  0  0  0  0  0  0  0
   -2.2816    3.3368    8.5657 H   0  0  0  0  0  0  0  0  0  0  0  0
   -1.2324    1.9062    8.5484 H   0  0  0  0  0  0  0  0  0  0  0  0
   -1.3835    3.5938    6.4374 H   0  0  0  0  0  0  0  0  0  0  0  0
   -2.9751    2.0227    4.3698 H   0  0  0  0  0  0  0  0  0  0  0  0
   -3.3287    3.6375    4.9713 H   0  0  0  0  0  0  0  0  0  0  0  0
   -0.6035    1.7726    2.8826 H   0  0  0  0  0  0  0  0  0  0  0  0
    0.2645    3.2615    2.6445 H   0  0  0  0  0  0  0  0  0  0  0  0
    1.8086    4.1807    4.6285 H   0  0  0  0  0  0  0  0  0  0  0  0
    1.4504    3.5924    6.2446 H   0  0  0  0  0  0  0  0  0  0  0  0
    0.2704    4.5257    5.3502 H   0  0  0  0  0  0  0  0  0  0  0  0
   -1.1141    0.0964    6.7884 H   0  0  0  0  0  0  0  0  0  0  0  0
    1.4083   -0.6019    6.3994 H   0  0  0  0  0  0  0  0  0  0  0  0
    0.1709   -1.4482    5.4722 H   0  0  0  0  0  0  0  0  0  0  0  0
    0.4895   -0.1084    3.5349 H   0  0  0  0  0  0  0  0  0  0  0  0
    2.3051    1.5275    5.2680 H   0  0  0  0  0  0  0  0  0  0  0  0
    2.3668    2.8868    2.8289 H   0  0  0  0  0  0  0  0  0  0  0  0
    3.6399    2.0398    3.6334 H   0  0  0  0  0  0  0  0  0  0  0  0
    1.7137    0.8783    1.5958 H   0  0  0  0  0  0  0  0  0  0  0  0
    3.3687    1.3047    1.2801 H   0  0  0  0  0  0  0  0  0  0  0  0
    5.0207   -1.4933    2.8919 H   0  0  0  0  0  0  0  0  0  0  0  0
    5.0705    0.2148    3.2657 H   0  0  0  0  0  0  0  0  0  0  0  0
    5.1154   -0.3228    1.5822 H   0  0  0  0  0  0  0  0  0  0  0  0
    1.5330   -1.3263    1.2652 H   0  0  0  0  0  0  0  0  0  0  0  0
    3.0316   -1.3232   -1.1128 H   0  0  0  0  0  0  0  0  0  0  0  0
    4.5830   -3.3717   -2.0682 H   0  0  0  0  0  0  0  0  0  0  0  0
    4.0958   -4.2946    1.8964 H   0  0  0  0  0  0  0  0  0  0  0  0
    3.2247   -1.0186    4.6066 H   0  0  0  0  0  0  0  0  0  0  0  0
  1  2  1  0
  1 28  1  0
  1 29  1  0
  1 30  1  0
  2  3  1  0
  3 10  1  0
  3  4  1  0
  3 31  1  1
  4  5  1  0
  4 32  1  0
  4 33  1  0
  5  6  2  0
  5  7  1  0
  7  8  1  0
  7 34  1  0
  7 35  1  0
  8 14  1  0
  8  9  1  1
  8 10  1  0
  9 36  1  0
  9 37  1  0
  9 38  1  0
 10 11  2  0
 11 12  1  0
 11 39  1  0
 12 13  1  0
 12 40  1  0
 12 41  1  0
 13 27  1  0
 13 14  1  0
 13 42  1  6
 14 15  1  0
 14 43  1  1
 15 16  1  0
 15 44  1  0
 15 45  1  0
 16 17  1  0
 16 46  1  0
 16 47  1  0
 17 27  1  0
 17 18  1  1
 17 19  1  0
 18 48  1  0
 18 49  1  0
 18 50  1  0
 19 20  1  0
 19 25  1  0
 19 51  1  6
 20 24  2  0
 20 21  1  0
 21 22  2  0
 21 52  1  0
 22 23  1  0
 22 53  1  0
 23 24  1  0
 24 54  1  0
 25 26  2  0
 25 27  1  0
 27 55  1  1
M  END
>  <i_m_ct_stereo_status>  (303) 
1

>  <s_m_source_file>  (303) 
/var/tmp/pbs.5076255.sched01/tmpua_2_py4/114lbcpx7pn.sdf

>  <i_m_source_file_index>  (303) 
24

>  <i_lp_mmshare_version>  (303) 
48012

>  <i_f3d_flags>  (303) 
0

>  <s_epik_input>  (303) 
Tz1DKFtDSDJdMSlbQ0gyXVtDQEBIXShPW0NIM10pQyhbQ0BdMTJbQ0gzXSk9W0NIXVtDSDJdW0NASF0zW0NASF0yW0NIMl1bQ0gyXVtDQEBdNChbQ0gzXSlbQ0BASF0zQyg9TylbQ0BASF00YzVbY0hdW2NIXW9bY0hdNQ==

>  <s_epik_cmdline>  (303) 
J2VwaWtfcHl0aG9uJywgJy1waHQnLCAnMi4wJywgJy1waCcsICc3LjAnLCAnLXRuJywgJzgnLCAnLW1hJywgJzIwMCcsICctaW1hZScsICc8aW5maWxlLm1hZT4nLCAnLW9tYWUnLCAnPG91dGZpbGUubWFlPic=

>  <r_lp_tautomer_probability>  (303) 
1

>  <r_epik_Ionization_Penalty>  (303) 
4.77385e-12

>  <r_epik_Ionization_Penalty_Charging>  (303) 
0

>  <r_epik_Ionization_Penalty_Neutral>  (303) 
4.77385e-12

>  <r_epik_State_Penalty>  (303) 
-0

>  <r_epik_Charging_Adjusted_Penalty>  (303) 
0

>  <i_epik_Tot_Q>  (303) 
0

>  <i_epik_Tot_abs_Q>  (303) 
0

>  <s_lp_Force_Field>  (303) 
OPLS3e

>  <r_lp_Energy>  (303) 
19.4478

>  <b_lp_Chiralities_Consistent>  (303) 
1

>  <s_lp_Variant>  (303) 
105:0-1

>  <s_i_glide_gridfile>  (303) 
pfpi4k_grid

>  <i_i_glide_lignum>  (303) 
24

>  <i_i_glide_rotatable_bonds>  (303) 
2

>  <r_i_docking_score>  (303) 
-2.67809

>  <r_i_glide_ligand_efficiency>  (303) 
-0.0991884

>  <r_i_glide_ligand_efficiency_sa>  (303) 
-0.297565

>  <r_i_glide_ligand_efficiency_ln>  (303) 
-0.623414

>  <r_i_glide_gscore>  (303) 
-2.67809

>  <r_i_glide_lipo>  (303) 
-0.188468

>  <r_i_glide_hbond>  (303) 
-0.141685

>  <r_i_glide_metal>  (303) 
-0

>  <r_i_glide_rewards>  (303) 
-0.896823

>  <r_i_glide_evdw>  (303) 
-22.8166

>  <r_i_glide_ecoul>  (303) 
-2.56354

>  <r_i_glide_erotb>  (303) 
0.141935

>  <r_i_glide_esite>  (303) 
-0.067686

>  <r_i_glide_emodel>  (303) 
-29.7101

>  <r_i_glide_energy>  (303) 
-25.3801

>  <r_i_glide_einternal>  (303) 
0.260544

>  <r_i_glide_intrahb_reward>  (303) 
-0

>  <i_i_glide_confnum>  (303) 
4

>  <i_i_glide_posenum>  (303) 
24

>  <r_i_glide_eff_state_penalty>  (303) 
0

>  <ligand_id>  (303) 
105

>  <original_smiles>  (303) 
COC1CC(=O)CC2(C)C1=CCC1C2CCC2(C)C(c3ccoc3)C(=O)C12

>  <smiles>  (303) 
[H]C1=C2C([H])(OC([H])([H])[H])C([H])([H])C(=O)C([H])([H])C2(C([H])([H])[H])C2([H])C([H])([H])C([H])([H])C3(C([H])([H])[H])C([H])(c4c([H])oc([H])c4[H])C(=O)C3([H])C2([H])C1([H])[H]

$$$$
106:0:0
     RDKit          3D

 95102  0  0  1  0  0  0  0  0999 V2000
    3.6755   -6.7041    5.0697 C   0  0  0  0  0  0  0  0  0  0  0  0
    2.7618   -5.4640    5.1899 C   0  0  0  0  0  0  0  0  0  0  0  0
    3.3773   -4.2256    4.6720 N   0  0  2  0  0  0  0  0  0  0  0  0
    4.6843   -3.8592    5.3448 C   0  0  0  0  0  0  0  0  0  0  0  0
    4.5321   -2.3961    5.3957 C   0  0  1  0  0  0  0  0  0  0  0  0
    3.2868   -2.5471    6.6273 C   0  0  0  0  0  0  0  0  0  0  0  0
    1.6508   -2.6136    6.5089 C   0  0  1  0  0  0  0  0  0  0  0  0
    1.1315   -2.5990    7.8463 O   0  0  0  0  0  0  0  0  0  0  0  0
   -0.0592   -3.3241    8.1014 C   0  0  0  0  0  0  0  0  0  0  0  0
    0.9992   -1.6142    5.4239 C   0  0  1  0  0  0  0  0  0  0  0  0
    0.1853   -0.4114    6.0085 C   0  0  1  0  0  0  0  0  0  0  0  0
   -1.1174   -0.8089    6.4390 O   0  0  0  0  0  0  0  0  0  0  0  0
   -1.9844   -1.5081    5.5502 C   0  0  0  0  0  0  0  0  0  0  0  0
    0.9478    0.0162    7.2142 C   0  0  0  0  0  0  0  0  0  0  0  0
    2.2668    0.1131    7.0796 C   0  0  0  0  0  0  0  0  0  0  0  0
    2.9948   -0.0120    5.6936 C   0  0  2  0  0  0  0  0  0  0  0  0
    4.5956   -0.0398    6.1138 C   0  0  1  0  0  0  0  0  0  0  0  0
    4.8766    0.5547    7.3928 O   0  0  0  0  0  0  0  0  0  0  0  0
    6.2060    1.0218    7.6138 C   0  0  0  0  0  0  0  0  0  0  0  0
    5.3876   -1.3962    6.1275 C   0  0  0  0  0  0  0  0  0  0  0  0
    2.6150    1.5776    5.2950 C   0  0  1  0  0  0  0  0  0  0  0  0
    3.1197    2.4402    6.3267 O   0  0  0  0  0  0  0  0  0  0  0  0
    3.1887    2.4668    4.0949 C   0  0  0  0  0  0  0  0  0  0  0  0
    2.0845    3.4233    3.7504 C   0  0  0  0  0  0  0  0  0  0  0  0
    2.3108    4.5272    2.7316 C   0  0  0  0  0  0  0  0  0  0  0  0
    0.9458    3.1111    4.3398 C   0  0  0  0  0  0  0  0  0  0  0  0
    1.0774    1.9516    5.3022 C   0  0  1  0  0  0  0  0  0  0  0  0
    0.0410    0.8178    5.0518 C   0  0  0  0  0  0  0  0  0  0  0  0
    2.2782   -1.3240    4.6157 C   0  0  1  0  0  0  0  0  0  0  0  0
    2.4428   -3.0895    4.0867 C   0  0  1  0  0  0  0  0  0  0  0  0
    2.4576   -3.4478    2.5809 C   0  0  2  0  0  0  0  0  0  0  0  0
    2.9786   -4.7430    1.9831 C   0  0  0  0  0  0  0  0  0  0  0  0
    3.7571   -3.4717    1.8063 C   0  0  2  0  0  0  0  0  0  0  0  0
    5.0239   -3.1347    2.5831 C   0  0  1  0  0  0  0  0  0  0  0  0
    6.0621   -2.7416    1.6935 O   0  0  0  0  0  0  0  0  0  0  0  0
    6.5938   -3.7810    0.8800 C   0  0  0  0  0  0  0  0  0  0  0  0
    4.7801   -1.9888    3.6900 C   0  0  1  0  0  0  0  0  0  0  0  0
    3.9978   -0.7813    2.9068 C   0  0  1  0  0  0  0  0  0  0  0  0
    4.7833    0.2806    3.3471 O   0  0  0  0  0  0  0  0  0  0  0  0
    4.1660   -0.4483    1.3739 C   0  0  0  0  0  0  0  0  0  0  0  0
    5.5089   -0.3357    0.9386 O   0  0  0  0  0  0  0  0  0  0  0  0
    2.4570   -0.6240    3.2705 C   0  0  1  0  0  0  0  0  0  0  0  0
    1.4987   -0.9237    2.2686 O   0  0  0  0  0  0  0  0  0  0  0  0
    3.1363   -7.5771    5.4285 H   0  0  0  0  0  0  0  0  0  0  0  0
    4.5810   -6.6110    5.6745 H   0  0  0  0  0  0  0  0  0  0  0  0
    3.9864   -6.9246    4.0450 H   0  0  0  0  0  0  0  0  0  0  0  0
    1.8291   -5.6894    4.6527 H   0  0  0  0  0  0  0  0  0  0  0  0
    2.4994   -5.3690    6.2502 H   0  0  0  0  0  0  0  0  0  0  0  0
    4.8253   -4.3636    6.2970 H   0  0  0  0  0  0  0  0  0  0  0  0
    5.6004   -4.1711    4.8705 H   0  0  0  0  0  0  0  0  0  0  0  0
    3.4629   -3.3996    7.2794 H   0  0  0  0  0  0  0  0  0  0  0  0
    3.5009   -1.8655    7.4444 H   0  0  0  0  0  0  0  0  0  0  0  0
    1.3478   -3.6110    6.2414 H   0  0  0  0  0  0  0  0  0  0  0  0
   -0.3764   -3.1368    9.1245 H   0  0  0  0  0  0  0  0  0  0  0  0
    0.0922   -4.3951    8.0010 H   0  0  0  0  0  0  0  0  0  0  0  0
   -0.8587   -3.0297    7.4378 H   0  0  0  0  0  0  0  0  0  0  0  0
    0.2940   -2.0881    4.7526 H   0  0  0  0  0  0  0  0  0  0  0  0
   -2.9627   -1.5484    5.9990 H   0  0  0  0  0  0  0  0  0  0  0  0
   -1.6583   -2.5394    5.4366 H   0  0  0  0  0  0  0  0  0  0  0  0
   -2.0578   -1.0271    4.5744 H   0  0  0  0  0  0  0  0  0  0  0  0
    0.4333    0.1541    8.1526 H   0  0  0  0  0  0  0  0  0  0  0  0
    2.7999    0.3571    7.9817 H   0  0  0  0  0  0  0  0  0  0  0  0
    5.1528    0.6696    5.5102 H   0  0  0  0  0  0  0  0  0  0  0  0
    6.2438    1.4595    8.6116 H   0  0  0  0  0  0  0  0  0  0  0  0
    6.4894    1.7976    6.8973 H   0  0  0  0  0  0  0  0  0  0  0  0
    6.9404    0.2142    7.5760 H   0  0  0  0  0  0  0  0  0  0  0  0
    5.5743   -1.7499    7.1449 H   0  0  0  0  0  0  0  0  0  0  0  0
    6.3748   -1.2637    5.6880 H   0  0  0  0  0  0  0  0  0  0  0  0
    4.0446    2.2995    6.3910 H   0  0  0  0  0  0  0  0  0  0  0  0
    4.1075    3.0065    4.3262 H   0  0  0  0  0  0  0  0  0  0  0  0
    3.3075    2.0281    3.1133 H   0  0  0  0  0  0  0  0  0  0  0  0
    2.6185    4.0916    1.7839 H   0  0  0  0  0  0  0  0  0  0  0  0
    3.0857    5.2053    3.0834 H   0  0  0  0  0  0  0  0  0  0  0  0
    1.3955    5.0893    2.5619 H   0  0  0  0  0  0  0  0  0  0  0  0
    0.0130    3.6347    4.2080 H   0  0  0  0  0  0  0  0  0  0  0  0
    0.8155    2.4024    6.2632 H   0  0  0  0  0  0  0  0  0  0  0  0
    0.0226    0.4953    4.0115 H   0  0  0  0  0  0  0  0  0  0  0  0
   -0.9479    1.2515    5.2231 H   0  0  0  0  0  0  0  0  0  0  0  0
    1.4696   -3.5819    4.2152 H   0  0  0  0  0  0  0  0  0  0  0  0
    1.5339   -3.1962    2.0740 H   0  0  0  0  0  0  0  0  0  0  0  0
    3.4786   -5.5321    2.5250 H   0  0  0  0  0  0  0  0  0  0  0  0
    2.4593   -5.0861    1.0977 H   0  0  0  0  0  0  0  0  0  0  0  0
    3.7520   -3.1932    0.7581 H   0  0  0  0  0  0  0  0  0  0  0  0
    5.4026   -4.0724    2.9580 H   0  0  0  0  0  0  0  0  0  0  0  0
    7.3096   -3.3503    0.1818 H   0  0  0  0  0  0  0  0  0  0  0  0
    5.8172   -4.2707    0.2922 H   0  0  0  0  0  0  0  0  0  0  0  0
    7.1105   -4.5368    1.4767 H   0  0  0  0  0  0  0  0  0  0  0  0
    5.8268   -1.6665    3.7061 H   0  0  0  0  0  0  0  0  0  0  0  0
    4.5656    1.0513    2.8473 H   0  0  0  0  0  0  0  0  0  0  0  0
    3.6459   -1.1311    0.7091 H   0  0  0  0  0  0  0  0  0  0  0  0
    3.6895    0.5205    1.1784 H   0  0  0  0  0  0  0  0  0  0  0  0
    5.9700   -1.1351    1.1776 H   0  0  0  0  0  0  0  0  0  0  0  0
    2.1715    0.3953    3.2936 H   0  0  0  0  0  0  0  0  0  0  0  0
    1.6149   -0.3602    1.5227 H   0  0  0  0  0  0  0  0  0  0  0  0
    3.7275   -4.5581    3.7815 H   0  0  0  0  0  0  0  0  0  0  0  0
  1  2  1  0
  1 44  1  0
  1 45  1  0
  1 46  1  0
  2  3  1  0
  2 47  1  0
  2 48  1  0
  3 30  1  0
  3  4  1  0
  3 95  1  6
  4  5  1  0
  4 49  1  0
  4 50  1  0
  5 20  1  1
  5 37  1  0
  5  6  1  0
  6  7  1  0
  6 51  1  0
  6 52  1  0
  7  8  1  0
  7 10  1  0
  7 53  1  6
  8  9  1  0
  9 54  1  0
  9 55  1  0
  9 56  1  0
 10 29  1  0
 10 11  1  0
 10 57  1  6
 11 28  1  0
 11 12  1  1
 11 14  1  0
 12 13  1  0
 13 58  1  0
 13 59  1  0
 13 60  1  0
 14 15  2  0
 14 61  1  0
 16 15  1  1
 15 62  1  0
 16 17  1  0
 16 21  1  0
 29 16  1  1
 17 18  1  0
 17 20  1  0
 17 63  1  6
 18 19  1  0
 19 64  1  0
 19 65  1  0
 19 66  1  0
 20 67  1  0
 20 68  1  0
 21 27  1  0
 21 22  1  1
 21 23  1  0
 22 69  1  0
 23 24  1  0
 23 70  1  0
 23 71  1  0
 24 25  1  0
 24 26  2  0
 25 72  1  0
 25 73  1  0
 25 74  1  0
 26 27  1  0
 26 75  1  0
 27 28  1  0
 27 76  1  1
 28 77  1  0
 28 78  1  0
 29 42  1  0
 29 30  1  0
 30 31  1  0
 30 79  1  1
 31 33  1  0
 31 32  1  0
 31 80  1  6
 32 33  1  0
 32 81  1  0
 32 82  1  0
 33 34  1  0
 33 83  1  6
 34 35  1  0
 34 37  1  0
 34 84  1  1
 35 36  1  0
 36 85  1  0
 36 86  1  0
 36 87  1  0
 37 38  1  0
 37 88  1  1
 38 39  1  1
 38 40  1  0
 38 42  1  0
 39 89  1  0
 40 41  1  0
 40 90  1  0
 40 91  1  0
 41 92  1  0
 42 43  1  0
 42 93  1  1
 43 94  1  0
M  CHG  1   3   1
M  END
>  <i_m_ct_stereo_status>  (304) 
1

>  <s_m_source_file>  (304) 
/var/tmp/pbs.5076255.sched01/tmpua_2_py4/114lbcpx7pn.sdf

>  <i_m_source_file_index>  (304) 
25

>  <i_lp_mmshare_version>  (304) 
48012

>  <i_f3d_flags>  (304) 
0

>  <s_epik_input>  (304) 
QzEyM1tDQEhdNFtDQEhdKE9bQ0gzXSlbQ0BASF01W0NAQEhdKFtDSDJdNSlbQ0BASF0oTihbQ0gyXTEpW0NIMl1bQ0gzXSlDNihbQ0BIXShbT0hdKVtDQF00KFtPSF0pW0NIMl1bT0hdKVtDQEBdNyhbQ0BIXShbQ0gyXTMpT1tDSDNdKVtDQF04KFtPSF0pW0NAQEhdKFtDSF09QyhbQ0gyXTgpW0NIM10pW0NIMl1bQ0BdKE9bQ0gzXSkoW0NIXT1bQ0hdNylbQ0BASF02W0NAQEhdKFtDSDJdMilPW0NIM10=

>  <s_epik_cmdline>  (304) 
J2VwaWtfcHl0aG9uJywgJy1waHQnLCAnMi4wJywgJy1waCcsICc3LjAnLCAnLXRuJywgJzgnLCAnLW1hJywgJzIwMCcsICctaW1hZScsICc8aW5maWxlLm1hZT4nLCAnLW9tYWUnLCAnPG91dGZpbGUubWFlPic=

>  <r_epik_Ionization_Penalty>  (304) 
0.0181886

>  <r_epik_Ionization_Penalty_Charging>  (304) 
0.018188

>  <r_epik_Ionization_Penalty_Neutral>  (304) 
6.70891e-07

>  <r_epik_State_Penalty>  (304) 
0.0144584

>  <r_epik_Charging_Adjusted_Penalty>  (304) 
0.0326464

>  <i_epik_Tot_Q>  (304) 
1

>  <i_epik_Tot_abs_Q>  (304) 
1

>  <s_lp_Force_Field>  (304) 
OPLS3e

>  <r_lp_Energy>  (304) 
498.214

>  <b_lp_Chiralities_Consistent>  (304) 
1

>  <s_lp_Variant>  (304) 
106:0-1

>  <s_i_glide_gridfile>  (304) 
pfpi4k_grid

>  <i_i_glide_lignum>  (304) 
25

>  <i_i_glide_rotatable_bonds>  (304) 
10

>  <r_i_docking_score>  (304) 
-2.58372

>  <r_i_glide_ligand_efficiency>  (304) 
-0.0600866

>  <r_i_glide_ligand_efficiency_sa>  (304) 
-0.210507

>  <r_i_glide_ligand_efficiency_ln>  (304) 
-0.542662

>  <r_i_glide_gscore>  (304) 
-2.58372

>  <r_i_glide_lipo>  (304) 
-0.353418

>  <r_i_glide_hbond>  (304) 
-0.0740403

>  <r_i_glide_metal>  (304) 
-0

>  <r_i_glide_rewards>  (304) 
-0.5

>  <r_i_glide_evdw>  (304) 
-20.9695

>  <r_i_glide_ecoul>  (304) 
-4.43751

>  <r_i_glide_erotb>  (304) 
0.0578349

>  <r_i_glide_esite>  (304) 
0

>  <r_i_glide_emodel>  (304) 
-32.841

>  <r_i_glide_energy>  (304) 
-25.407

>  <r_i_glide_einternal>  (304) 
5.58625

>  <r_i_glide_intrahb_reward>  (304) 
-0.5

>  <i_i_glide_confnum>  (304) 
2

>  <i_i_glide_posenum>  (304) 
12

>  <r_i_glide_eff_state_penalty>  (304) 
0

>  <ligand_id>  (304) 
106

>  <original_smiles>  (304) 
CCN1CC23CC(OC)C4C5(OC)C=CC(C(OC)C2)(C2(O)CC(C)=CC2C5)C42C1C1CC1C(OC)C3C(O)(CO)C2O

>  <smiles>  (304) 
[H]OC([H])([H])C1(O[H])C([H])(O[H])C23C4([H])C([H])(OC([H])([H])[H])C([H])([H])C5(C([H])([H])C([H])(OC([H])([H])[H])C26C([H])=C([H])C4(OC([H])([H])[H])C([H])([H])C2([H])C([H])=C(C([H])([H])[H])C([H])([H])C26O[H])C1([H])C([H])(OC([H])([H])[H])C1([H])C([H])([H])C1([H])C3([H])[N+]([H])(C([H])([H])C([H])([H])[H])C5([H])[H]

$$$$
106:0:1
     RDKit          3D

 95102  0  0  1  0  0  0  0  0999 V2000
    6.1463   -1.2375    6.7032 C   0  0  0  0  0  0  0  0  0  0  0  0
    4.7134   -0.7460    7.0242 C   0  0  0  0  0  0  0  0  0  0  0  0
    4.0462   -0.0542    5.8764 N   0  0  2  0  0  0  0  0  0  0  0  0
    4.7899    1.1474    5.4004 C   0  0  0  0  0  0  0  0  0  0  0  0
    3.6508    2.0514    5.0994 C   0  0  1  0  0  0  0  0  0  0  0  0
    3.3506    2.2514    6.8049 C   0  0  0  0  0  0  0  0  0  0  0  0
    2.3240    1.4497    7.8228 C   0  0  1  0  0  0  0  0  0  0  0  0
    2.3079    2.0094    9.1426 O   0  0  0  0  0  0  0  0  0  0  0  0
    3.4987    1.8748    9.9213 C   0  0  0  0  0  0  0  0  0  0  0  0
    0.8539    1.1123    7.2392 C   0  0  1  0  0  0  0  0  0  0  0  0
   -0.3551    1.9515    7.7997 C   0  0  1  0  0  0  0  0  0  0  0  0
   -0.7781    1.3803    9.0568 O   0  0  0  0  0  0  0  0  0  0  0  0
   -1.7577    2.0857    9.8592 C   0  0  0  0  0  0  0  0  0  0  0  0
    0.2252    3.3199    7.9919 C   0  0  0  0  0  0  0  0  0  0  0  0
    0.9398    3.8084    6.9824 C   0  0  0  0  0  0  0  0  0  0  0  0
    1.0738    3.0939    5.5970 C   0  0  2  0  0  0  0  0  0  0  0  0
    2.2150    4.0119    4.8359 C   0  0  1  0  0  0  0  0  0  0  0  0
    2.3208    5.3400    5.3688 O   0  0  0  0  0  0  0  0  0  0  0  0
    2.8340    6.3637    4.5300 C   0  0  0  0  0  0  0  0  0  0  0  0
    3.6976    3.5159    4.7513 C   0  0  0  0  0  0  0  0  0  0  0  0
   -0.4162    3.6781    5.0928 C   0  0  1  0  0  0  0  0  0  0  0  0
   -0.4534    5.0994    5.2229 O   0  0  0  0  0  0  0  0  0  0  0  0
   -1.0261    3.6864    3.6223 C   0  0  0  0  0  0  0  0  0  0  0  0
   -2.5078    3.5541    3.8109 C   0  0  0  0  0  0  0  0  0  0  0  0
   -3.4643    3.6676    2.6487 C   0  0  0  0  0  0  0  0  0  0  0  0
   -2.8237    3.2930    5.0779 C   0  0  0  0  0  0  0  0  0  0  0  0
   -1.6489    3.2739    5.9942 C   0  0  1  0  0  0  0  0  0  0  0  0
   -1.5610    1.9626    6.7971 C   0  0  0  0  0  0  0  0  0  0  0  0
    1.2455    1.2761    5.7418 C   0  0  1  0  0  0  0  0  0  0  0  0
    2.4755   -0.1213    5.7693 C   0  0  1  0  0  0  0  0  0  0  0  0
    2.3239   -1.3201    4.8012 C   0  0  2  0  0  0  0  0  0  0  0  0
    3.4142   -2.3075    4.4422 C   0  0  0  0  0  0  0  0  0  0  0  0
    2.9426   -1.3174    3.4251 C   0  0  2  0  0  0  0  0  0  0  0  0
    3.6882   -0.0383    3.0403 C   0  0  1  0  0  0  0  0  0  0  0  0
    3.7898    0.0566    1.6159 O   0  0  0  0  0  0  0  0  0  0  0  0
    4.6639   -0.8984    1.0149 C   0  0  0  0  0  0  0  0  0  0  0  0
    3.0200    1.2937    3.6358 C   0  0  1  0  0  0  0  0  0  0  0  0
    1.4418    1.2060    3.2500 C   0  0  1  0  0  0  0  0  0  0  0  0
    1.3266    2.4620    2.6490 O   0  0  0  0  0  0  0  0  0  0  0  0
    0.9519    0.4785    1.9480 C   0  0  0  0  0  0  0  0  0  0  0  0
   -0.3956    0.8307    1.7057 O   0  0  0  0  0  0  0  0  0  0  0  0
    0.4709    0.8979    4.4794 C   0  0  1  0  0  0  0  0  0  0  0  0
   -0.2018   -0.3342    4.5725 O   0  0  0  0  0  0  0  0  0  0  0  0
    6.5395   -1.7737    7.5655 H   0  0  0  0  0  0  0  0  0  0  0  0
    6.8349   -0.4184    6.4936 H   0  0  0  0  0  0  0  0  0  0  0  0
    6.1997   -1.9386    5.8712 H   0  0  0  0  0  0  0  0  0  0  0  0
    4.1344   -1.6170    7.3383 H   0  0  0  0  0  0  0  0  0  0  0  0
    4.7923   -0.1006    7.8955 H   0  0  0  0  0  0  0  0  0  0  0  0
    5.5389    1.5128    6.0887 H   0  0  0  0  0  0  0  0  0  0  0  0
    5.4668    1.0222    4.5653 H   0  0  0  0  0  0  0  0  0  0  0  0
    4.2839    2.2352    7.3564 H   0  0  0  0  0  0  0  0  0  0  0  0
    3.2331    3.2982    7.0330 H   0  0  0  0  0  0  0  0  0  0  0  0
    2.7284    0.4937    8.1158 H   0  0  0  0  0  0  0  0  0  0  0  0
    3.3268    2.2935   10.9093 H   0  0  0  0  0  0  0  0  0  0  0  0
    4.3653    2.4027    9.5203 H   0  0  0  0  0  0  0  0  0  0  0  0
    3.7683    0.8255   10.0650 H   0  0  0  0  0  0  0  0  0  0  0  0
    0.5748    0.0831    7.4758 H   0  0  0  0  0  0  0  0  0  0  0  0
   -1.7843    1.6757   10.8720 H   0  0  0  0  0  0  0  0  0  0  0  0
   -2.7795    2.0068    9.4826 H   0  0  0  0  0  0  0  0  0  0  0  0
   -1.5762    3.1478    9.9836 H   0  0  0  0  0  0  0  0  0  0  0  0
    0.2110    3.8373    8.9316 H   0  0  0  0  0  0  0  0  0  0  0  0
    1.3809    4.7664    7.1908 H   0  0  0  0  0  0  0  0  0  0  0  0
    1.8780    4.2591    3.8416 H   0  0  0  0  0  0  0  0  0  0  0  0
    2.8396    7.3050    5.0833 H   0  0  0  0  0  0  0  0  0  0  0  0
    2.2117    6.5020    3.6501 H   0  0  0  0  0  0  0  0  0  0  0  0
    3.8626    6.1595    4.2287 H   0  0  0  0  0  0  0  0  0  0  0  0
    4.3477    4.0566    5.4399 H   0  0  0  0  0  0  0  0  0  0  0  0
    4.0964    3.7260    3.7698 H   0  0  0  0  0  0  0  0  0  0  0  0
    0.2835    5.4420    4.7372 H   0  0  0  0  0  0  0  0  0  0  0  0
   -0.7916    4.5636    3.0163 H   0  0  0  0  0  0  0  0  0  0  0  0
   -0.9017    2.8205    2.9995 H   0  0  0  0  0  0  0  0  0  0  0  0
   -3.2228    2.9234    1.8946 H   0  0  0  0  0  0  0  0  0  0  0  0
   -3.3859    4.6516    2.1853 H   0  0  0  0  0  0  0  0  0  0  0  0
   -4.5062    3.5174    2.9327 H   0  0  0  0  0  0  0  0  0  0  0  0
   -3.8250    3.1590    5.4341 H   0  0  0  0  0  0  0  0  0  0  0  0
   -1.8778    4.0674    6.7140 H   0  0  0  0  0  0  0  0  0  0  0  0
   -1.5788    1.0655    6.1772 H   0  0  0  0  0  0  0  0  0  0  0  0
   -2.5289    1.8905    7.2838 H   0  0  0  0  0  0  0  0  0  0  0  0
    2.2132   -0.7368    6.6290 H   0  0  0  0  0  0  0  0  0  0  0  0
    1.4259   -1.9129    4.9679 H   0  0  0  0  0  0  0  0  0  0  0  0
    4.4582   -2.2144    4.7071 H   0  0  0  0  0  0  0  0  0  0  0  0
    3.0919   -3.3286    4.2344 H   0  0  0  0  0  0  0  0  0  0  0  0
    2.4860   -1.8667    2.6175 H   0  0  0  0  0  0  0  0  0  0  0  0
    4.7162   -0.1950    3.3057 H   0  0  0  0  0  0  0  0  0  0  0  0
    4.6401   -0.7943   -0.0696 H   0  0  0  0  0  0  0  0  0  0  0  0
    4.3972   -1.9282    1.2458 H   0  0  0  0  0  0  0  0  0  0  0  0
    5.6941   -0.7343    1.3376 H   0  0  0  0  0  0  0  0  0  0  0  0
    3.4218    1.9480    2.8714 H   0  0  0  0  0  0  0  0  0  0  0  0
    0.5592    2.4532    2.0884 H   0  0  0  0  0  0  0  0  0  0  0  0
    1.5328    0.7415    1.0630 H   0  0  0  0  0  0  0  0  0  0  0  0
    0.9430   -0.6009    2.0004 H   0  0  0  0  0  0  0  0  0  0  0  0
   -0.5956    0.5913    0.7755 H   0  0  0  0  0  0  0  0  0  0  0  0
   -0.4327    1.4397    4.3803 H   0  0  0  0  0  0  0  0  0  0  0  0
    0.4010   -1.0235    4.3303 H   0  0  0  0  0  0  0  0  0  0  0  0
    4.2686   -0.6966    5.1529 H   0  0  0  0  0  0  0  0  0  0  0  0
  1  2  1  0
  1 44  1  0
  1 45  1  0
  1 46  1  0
  2  3  1  0
  2 47  1  0
  2 48  1  0
  3 30  1  0
  3  4  1  0
  3 95  1  6
  4  5  1  0
  4 49  1  0
  4 50  1  0
  5 20  1  6
  5 37  1  0
  5  6  1  0
  6  7  1  0
  6 51  1  0
  6 52  1  0
  7  8  1  0
  7 10  1  0
  7 53  1  1
  8  9  1  0
  9 54  1  0
  9 55  1  0
  9 56  1  0
 10 29  1  0
 10 11  1  0
 10 57  1  6
 11 28  1  0
 11 12  1  1
 11 14  1  0
 12 13  1  0
 13 58  1  0
 13 59  1  0
 13 60  1  0
 14 15  2  0
 14 61  1  0
 16 15  1  1
 15 62  1  0
 16 17  1  0
 16 21  1  0
 29 16  1  6
 17 18  1  0
 17 20  1  0
 17 63  1  6
 18 19  1  0
 19 64  1  0
 19 65  1  0
 19 66  1  0
 20 67  1  0
 20 68  1  0
 21 27  1  0
 21 22  1  1
 21 23  1  0
 22 69  1  0
 23 24  1  0
 23 70  1  0
 23 71  1  0
 24 25  1  0
 24 26  2  0
 25 72  1  0
 25 73  1  0
 25 74  1  0
 26 27  1  0
 26 75  1  0
 27 28  1  0
 27 76  1  1
 28 77  1  0
 28 78  1  0
 29 42  1  0
 29 30  1  0
 30 31  1  0
 30 79  1  1
 31 33  1  0
 31 32  1  0
 31 80  1  6
 32 33  1  0
 32 81  1  0
 32 82  1  0
 33 34  1  0
 33 83  1  6
 34 35  1  0
 34 37  1  0
 34 84  1  1
 35 36  1  0
 36 85  1  0
 36 86  1  0
 36 87  1  0
 37 38  1  0
 37 88  1  6
 38 39  1  6
 38 40  1  0
 38 42  1  0
 39 89  1  0
 40 41  1  0
 40 90  1  0
 40 91  1  0
 41 92  1  0
 42 43  1  0
 42 93  1  6
 43 94  1  0
M  CHG  1   3   1
M  END
>  <i_m_ct_stereo_status>  (305) 
1

>  <s_m_source_file>  (305) 
/var/tmp/pbs.5076255.sched01/tmpua_2_py4/114lbcpx7pn.sdf

>  <i_m_source_file_index>  (305) 
25

>  <i_lp_mmshare_version>  (305) 
48012

>  <i_f3d_flags>  (305) 
0

>  <s_epik_input>  (305) 
QzEyM1tDQEhdNFtDQEhdKE9bQ0gzXSlbQ0BASF01W0NAQEhdKFtDSDJdNSlbQ0BASF0oTihbQ0gyXTEpW0NIMl1bQ0gzXSlDNihbQ0BIXShbT0hdKVtDQF00KFtPSF0pW0NIMl1bT0hdKVtDQEBdNyhbQ0BIXShbQ0gyXTMpT1tDSDNdKVtDQF04KFtPSF0pW0NAQEhdKFtDSF09QyhbQ0gyXTgpW0NIM10pW0NIMl1bQ0BdKE9bQ0gzXSkoW0NIXT1bQ0hdNylbQ0BASF02W0NAQEhdKFtDSDJdMilPW0NIM10=

>  <s_epik_cmdline>  (305) 
J2VwaWtfcHl0aG9uJywgJy1waHQnLCAnMi4wJywgJy1waCcsICc3LjAnLCAnLXRuJywgJzgnLCAnLW1hJywgJzIwMCcsICctaW1hZScsICc8aW5maWxlLm1hZT4nLCAnLW9tYWUnLCAnPG91dGZpbGUubWFlPic=

>  <r_epik_Ionization_Penalty>  (305) 
0.0181886

>  <r_epik_Ionization_Penalty_Charging>  (305) 
0.018188

>  <r_epik_Ionization_Penalty_Neutral>  (305) 
6.70891e-07

>  <r_epik_State_Penalty>  (305) 
0.0144584

>  <r_epik_Charging_Adjusted_Penalty>  (305) 
0.0326464

>  <i_epik_Tot_Q>  (305) 
1

>  <i_epik_Tot_abs_Q>  (305) 
1

>  <s_lp_Force_Field>  (305) 
OPLS3e

>  <r_lp_Energy>  (305) 
498.214

>  <b_lp_Chiralities_Consistent>  (305) 
1

>  <s_lp_Variant>  (305) 
106:0-1

>  <s_i_glide_gridfile>  (305) 
pfpi4k_grid

>  <i_i_glide_lignum>  (305) 
25

>  <i_i_glide_rotatable_bonds>  (305) 
10

>  <r_i_docking_score>  (305) 
-2.51663

>  <r_i_glide_ligand_efficiency>  (305) 
-0.0585262

>  <r_i_glide_ligand_efficiency_sa>  (305) 
-0.20504

>  <r_i_glide_ligand_efficiency_ln>  (305) 
-0.528569

>  <r_i_glide_gscore>  (305) 
-2.51663

>  <r_i_glide_lipo>  (305) 
-0.230889

>  <r_i_glide_hbond>  (305) 
0

>  <r_i_glide_metal>  (305) 
-0

>  <r_i_glide_rewards>  (305) 
0

>  <r_i_glide_evdw>  (305) 
-24.2156

>  <r_i_glide_ecoul>  (305) 
-7.55195

>  <r_i_glide_erotb>  (305) 
0.0578349

>  <r_i_glide_esite>  (305) 
0

>  <r_i_glide_emodel>  (305) 
-32.3616

>  <r_i_glide_energy>  (305) 
-31.7675

>  <r_i_glide_einternal>  (305) 
5.33782

>  <r_i_glide_intrahb_reward>  (305) 
-0

>  <i_i_glide_confnum>  (305) 
4

>  <i_i_glide_posenum>  (305) 
40

>  <r_i_glide_eff_state_penalty>  (305) 
0

>  <ligand_id>  (305) 
106

>  <original_smiles>  (305) 
CCN1CC23CC(OC)C4C5(OC)C=CC(C(OC)C2)(C2(O)CC(C)=CC2C5)C42C1C1CC1C(OC)C3C(O)(CO)C2O

>  <smiles>  (305) 
[H]OC([H])([H])C1(O[H])C([H])(O[H])C23C4([H])C([H])(OC([H])([H])[H])C([H])([H])C5(C([H])([H])C([H])(OC([H])([H])[H])C26C([H])=C([H])C4(OC([H])([H])[H])C([H])([H])C2([H])C([H])=C(C([H])([H])[H])C([H])([H])C26O[H])C1([H])C([H])(OC([H])([H])[H])C1([H])C([H])([H])C1([H])C3([H])[N+]([H])(C([H])([H])C([H])([H])[H])C5([H])[H]

$$$$
106:0:2
     RDKit          3D

 95102  0  0  1  0  0  0  0  0999 V2000
    8.8063   -5.9975    6.9260 C   0  0  0  0  0  0  0  0  0  0  0  0
    7.8376   -6.0516    5.7169 C   0  0  0  0  0  0  0  0  0  0  0  0
    6.4670   -6.5136    6.0663 N   0  0  2  0  0  0  0  0  0  0  0  0
    6.4349   -7.8741    6.6916 C   0  0  0  0  0  0  0  0  0  0  0  0
    5.2030   -8.4092    6.0726 C   0  0  1  0  0  0  0  0  0  0  0  0
    6.0141   -8.5357    4.5265 C   0  0  0  0  0  0  0  0  0  0  0  0
    6.0890   -7.4872    3.2652 C   0  0  1  0  0  0  0  0  0  0  0  0
    6.7762   -8.1444    2.1934 O   0  0  0  0  0  0  0  0  0  0  0  0
    7.5948   -7.3233    1.3675 C   0  0  0  0  0  0  0  0  0  0  0  0
    4.7189   -6.7170    2.8964 C   0  0  1  0  0  0  0  0  0  0  0  0
    4.0073   -7.1567    1.5667 C   0  0  1  0  0  0  0  0  0  0  0  0
    4.6318   -6.5869    0.4092 O   0  0  0  0  0  0  0  0  0  0  0  0
    4.5848   -5.1752    0.2125 C   0  0  0  0  0  0  0  0  0  0  0  0
    4.2135   -8.6241    1.4932 C   0  0  0  0  0  0  0  0  0  0  0  0
    3.9979   -9.3132    2.6081 C   0  0  0  0  0  0  0  0  0  0  0  0
    3.3758   -8.6744    3.9067 C   0  0  2  0  0  0  0  0  0  0  0  0
    3.5318   -9.8754    5.0410 C   0  0  1  0  0  0  0  0  0  0  0  0
    3.6669  -11.1842    4.4727 O   0  0  0  0  0  0  0  0  0  0  0  0
    3.2740  -12.2918    5.2772 C   0  0  0  0  0  0  0  0  0  0  0  0
    4.6717   -9.8175    6.1232 C   0  0  0  0  0  0  0  0  0  0  0  0
    1.8183   -8.8027    3.2760 C   0  0  1  0  0  0  0  0  0  0  0  0
    1.5630  -10.1674    2.9249 O   0  0  0  0  0  0  0  0  0  0  0  0
    0.4142   -8.6040    4.0229 C   0  0  0  0  0  0  0  0  0  0  0  0
   -0.5292   -8.0803    2.9793 C   0  0  0  0  0  0  0  0  0  0  0  0
   -2.0029   -7.9019    3.2990 C   0  0  0  0  0  0  0  0  0  0  0  0
    0.0940   -7.7431    1.8596 C   0  0  0  0  0  0  0  0  0  0  0  0
    1.5694   -8.0724    1.8861 C   0  0  1  0  0  0  0  0  0  0  0  0
    2.4716   -6.8620    1.5190 C   0  0  0  0  0  0  0  0  0  0  0  0
    3.9954   -6.9802    4.2433 C   0  0  1  0  0  0  0  0  0  0  0  0
    5.2421   -5.9921    5.2124 C   0  0  1  0  0  0  0  0  0  0  0  0
    4.7728   -4.7697    6.0455 C   0  0  2  0  0  0  0  0  0  0  0  0
    5.5749   -4.1342    7.1769 C   0  0  0  0  0  0  0  0  0  0  0  0
    4.3494   -4.9451    7.4898 C   0  0  2  0  0  0  0  0  0  0  0  0
    4.3893   -6.3644    8.0375 C   0  0  1  0  0  0  0  0  0  0  0  0
    3.5588   -6.4699    9.1921 O   0  0  0  0  0  0  0  0  0  0  0  0
    4.0091   -5.7665   10.3479 C   0  0  0  0  0  0  0  0  0  0  0  0
    3.9710   -7.4880    6.9520 C   0  0  1  0  0  0  0  0  0  0  0  0
    2.5587   -6.9702    6.3025 C   0  0  1  0  0  0  0  0  0  0  0  0
    1.7621   -8.1192    6.4336 O   0  0  0  0  0  0  0  0  0  0  0  0
    1.5233   -6.0620    7.0812 C   0  0  0  0  0  0  0  0  0  0  0  0
    1.1180   -6.5142    8.3663 O   0  0  0  0  0  0  0  0  0  0  0  0
    2.6935   -6.4058    4.8148 C   0  0  1  0  0  0  0  0  0  0  0  0
    2.4648   -5.0281    4.5892 O   0  0  0  0  0  0  0  0  0  0  0  0
    9.7726   -5.6070    6.6131 H   0  0  0  0  0  0  0  0  0  0  0  0
    8.9882   -6.9857    7.3532 H   0  0  0  0  0  0  0  0  0  0  0  0
    8.4584   -5.3527    7.7340 H   0  0  0  0  0  0  0  0  0  0  0  0
    7.8078   -5.0497    5.2784 H   0  0  0  0  0  0  0  0  0  0  0  0
    8.3063   -6.7017    4.9733 H   0  0  0  0  0  0  0  0  0  0  0  0
    7.3459   -8.4506    6.5301 H   0  0  0  0  0  0  0  0  0  0  0  0
    6.4250   -7.9327    7.7757 H   0  0  0  0  0  0  0  0  0  0  0  0
    7.0731   -8.7679    4.6344 H   0  0  0  0  0  0  0  0  0  0  0  0
    5.8389   -9.5178    4.0922 H   0  0  0  0  0  0  0  0  0  0  0  0
    6.8288   -6.7343    3.4856 H   0  0  0  0  0  0  0  0  0  0  0  0
    7.9468   -7.9069    0.5180 H   0  0  0  0  0  0  0  0  0  0  0  0
    8.4757   -6.9654    1.9014 H   0  0  0  0  0  0  0  0  0  0  0  0
    7.0550   -6.4590    0.9837 H   0  0  0  0  0  0  0  0  0  0  0  0
    4.8821   -5.6540    2.7565 H   0  0  0  0  0  0  0  0  0  0  0  0
    4.9084   -4.9579   -0.8058 H   0  0  0  0  0  0  0  0  0  0  0  0
    5.2692   -4.6508    0.8782 H   0  0  0  0  0  0  0  0  0  0  0  0
    3.5866   -4.7550    0.3301 H   0  0  0  0  0  0  0  0  0  0  0  0
    4.6004   -9.0727    0.5885 H   0  0  0  0  0  0  0  0  0  0  0  0
    4.2084  -10.3691    2.5297 H   0  0  0  0  0  0  0  0  0  0  0  0
    2.5884  -10.0096    5.5528 H   0  0  0  0  0  0  0  0  0  0  0  0
    3.4127  -13.2123    4.7095 H   0  0  0  0  0  0  0  0  0  0  0  0
    2.2187  -12.2272    5.5385 H   0  0  0  0  0  0  0  0  0  0  0  0
    3.8666  -12.3827    6.1888 H   0  0  0  0  0  0  0  0  0  0  0  0
    5.4688  -10.5338    5.9116 H   0  0  0  0  0  0  0  0  0  0  0  0
    4.3011  -10.1177    7.1038 H   0  0  0  0  0  0  0  0  0  0  0  0
    1.6297  -10.7038    3.6951 H   0  0  0  0  0  0  0  0  0  0  0  0
    0.0160   -9.5018    4.4964 H   0  0  0  0  0  0  0  0  0  0  0  0
    0.2986   -7.7964    4.7309 H   0  0  0  0  0  0  0  0  0  0  0  0
   -2.1208   -7.2522    4.1659 H   0  0  0  0  0  0  0  0  0  0  0  0
   -2.4479   -8.8695    3.5342 H   0  0  0  0  0  0  0  0  0  0  0  0
   -2.5503   -7.4635    2.4697 H   0  0  0  0  0  0  0  0  0  0  0  0
   -0.3822   -7.3474    0.9771 H   0  0  0  0  0  0  0  0  0  0  0  0
    1.6844   -8.7897    1.0729 H   0  0  0  0  0  0  0  0  0  0  0  0
    2.2257   -5.9744    2.0974 H   0  0  0  0  0  0  0  0  0  0  0  0
    2.2083   -6.6032    0.4925 H   0  0  0  0  0  0  0  0  0  0  0  0
    5.7631   -5.3433    4.5043 H   0  0  0  0  0  0  0  0  0  0  0  0
    4.3469   -3.9564    5.4594 H   0  0  0  0  0  0  0  0  0  0  0  0
    6.5024   -4.5216    7.5724 H   0  0  0  0  0  0  0  0  0  0  0  0
    5.4676   -3.0616    7.3043 H   0  0  0  0  0  0  0  0  0  0  0  0
    3.5974   -4.2902    7.9196 H   0  0  0  0  0  0  0  0  0  0  0  0
    5.3657   -6.4851    8.4798 H   0  0  0  0  0  0  0  0  0  0  0  0
    3.2558   -5.8409   11.1321 H   0  0  0  0  0  0  0  0  0  0  0  0
    4.1754   -4.7058   10.1602 H   0  0  0  0  0  0  0  0  0  0  0  0
    4.9347   -6.1996   10.7310 H   0  0  0  0  0  0  0  0  0  0  0  0
    3.6593   -8.2254    7.6951 H   0  0  0  0  0  0  0  0  0  0  0  0
    2.1892   -8.8548    6.0435 H   0  0  0  0  0  0  0  0  0  0  0  0
    1.8295   -5.0318    7.1755 H   0  0  0  0  0  0  0  0  0  0  0  0
    0.6107   -5.9835    6.4763 H   0  0  0  0  0  0  0  0  0  0  0  0
    1.9043   -6.6993    8.8670 H   0  0  0  0  0  0  0  0  0  0  0  0
    1.8545   -6.6635    4.2225 H   0  0  0  0  0  0  0  0  0  0  0  0
    3.1195   -4.5248    5.0258 H   0  0  0  0  0  0  0  0  0  0  0  0
    6.3064   -5.9416    6.8834 H   0  0  0  0  0  0  0  0  0  0  0  0
  1  2  1  0
  1 44  1  0
  1 45  1  0
  1 46  1  0
  2  3  1  0
  2 47  1  0
  2 48  1  0
  3 30  1  0
  3  4  1  0
  3 95  1  1
  4  5  1  0
  4 49  1  0
  4 50  1  0
  5 20  1  1
  5 37  1  0
  5  6  1  0
  6  7  1  0
  6 51  1  0
  6 52  1  0
  7  8  1  0
  7 10  1  0
  7 53  1  1
  8  9  1  0
  9 54  1  0
  9 55  1  0
  9 56  1  0
 10 29  1  0
 10 11  1  0
 10 57  1  6
 11 28  1  0
 11 12  1  6
 11 14  1  0
 12 13  1  0
 13 58  1  0
 13 59  1  0
 13 60  1  0
 14 15  2  0
 14 61  1  0
 16 15  1  6
 15 62  1  0
 16 17  1  0
 16 21  1  0
 29 16  1  1
 17 18  1  0
 17 20  1  0
 17 63  1  1
 18 19  1  0
 19 64  1  0
 19 65  1  0
 19 66  1  0
 20 67  1  0
 20 68  1  0
 21 27  1  0
 21 22  1  6
 21 23  1  0
 22 69  1  0
 23 24  1  0
 23 70  1  0
 23 71  1  0
 24 25  1  0
 24 26  2  0
 25 72  1  0
 25 73  1  0
 25 74  1  0
 26 27  1  0
 26 75  1  0
 27 28  1  0
 27 76  1  6
 28 77  1  0
 28 78  1  0
 29 42  1  0
 29 30  1  0
 30 31  1  0
 30 79  1  6
 31 33  1  0
 31 32  1  0
 31 80  1  6
 32 33  1  0
 32 81  1  0
 32 82  1  0
 33 34  1  0
 33 83  1  6
 34 35  1  0
 34 37  1  0
 34 84  1  1
 35 36  1  0
 36 85  1  0
 36 86  1  0
 36 87  1  0
 37 38  1  0
 37 88  1  1
 38 39  1  6
 38 40  1  0
 38 42  1  0
 39 89  1  0
 40 41  1  0
 40 90  1  0
 40 91  1  0
 41 92  1  0
 42 43  1  0
 42 93  1  6
 43 94  1  0
M  CHG  1   3   1
M  END
>  <i_m_ct_stereo_status>  (306) 
1

>  <s_m_source_file>  (306) 
/var/tmp/pbs.5076255.sched01/tmpua_2_py4/114lbcpx7pn.sdf

>  <i_m_source_file_index>  (306) 
25

>  <i_lp_mmshare_version>  (306) 
48012

>  <i_f3d_flags>  (306) 
0

>  <s_epik_input>  (306) 
QzEyM1tDQEhdNFtDQEhdKE9bQ0gzXSlbQ0BASF01W0NAQEhdKFtDSDJdNSlbQ0BASF0oTihbQ0gyXTEpW0NIMl1bQ0gzXSlDNihbQ0BIXShbT0hdKVtDQF00KFtPSF0pW0NIMl1bT0hdKVtDQEBdNyhbQ0BIXShbQ0gyXTMpT1tDSDNdKVtDQF04KFtPSF0pW0NAQEhdKFtDSF09QyhbQ0gyXTgpW0NIM10pW0NIMl1bQ0BdKE9bQ0gzXSkoW0NIXT1bQ0hdNylbQ0BASF02W0NAQEhdKFtDSDJdMilPW0NIM10=

>  <s_epik_cmdline>  (306) 
J2VwaWtfcHl0aG9uJywgJy1waHQnLCAnMi4wJywgJy1waCcsICc3LjAnLCAnLXRuJywgJzgnLCAnLW1hJywgJzIwMCcsICctaW1hZScsICc8aW5maWxlLm1hZT4nLCAnLW9tYWUnLCAnPG91dGZpbGUubWFlPic=

>  <r_epik_Ionization_Penalty>  (306) 
0.0181886

>  <r_epik_Ionization_Penalty_Charging>  (306) 
0.018188

>  <r_epik_Ionization_Penalty_Neutral>  (306) 
6.70891e-07

>  <r_epik_State_Penalty>  (306) 
0.0144584

>  <r_epik_Charging_Adjusted_Penalty>  (306) 
0.0326464

>  <i_epik_Tot_Q>  (306) 
1

>  <i_epik_Tot_abs_Q>  (306) 
1

>  <s_lp_Force_Field>  (306) 
OPLS3e

>  <r_lp_Energy>  (306) 
498.214

>  <b_lp_Chiralities_Consistent>  (306) 
1

>  <s_lp_Variant>  (306) 
106:0-1

>  <s_i_glide_gridfile>  (306) 
pfpi4k_grid

>  <i_i_glide_lignum>  (306) 
25

>  <i_i_glide_rotatable_bonds>  (306) 
10

>  <r_i_docking_score>  (306) 
-2.22028

>  <r_i_glide_ligand_efficiency>  (306) 
-0.0516345

>  <r_i_glide_ligand_efficiency_sa>  (306) 
-0.180896

>  <r_i_glide_ligand_efficiency_ln>  (306) 
-0.466328

>  <r_i_glide_gscore>  (306) 
-2.22028

>  <r_i_glide_lipo>  (306) 
-0.129776

>  <r_i_glide_hbond>  (306) 
0

>  <r_i_glide_metal>  (306) 
-0

>  <r_i_glide_rewards>  (306) 
-0.5

>  <r_i_glide_evdw>  (306) 
-26.5593

>  <r_i_glide_ecoul>  (306) 
-2.13584

>  <r_i_glide_erotb>  (306) 
0.0578349

>  <r_i_glide_esite>  (306) 
0

>  <r_i_glide_emodel>  (306) 
-36.1574

>  <r_i_glide_energy>  (306) 
-28.6952

>  <r_i_glide_einternal>  (306) 
4.73313

>  <r_i_glide_intrahb_reward>  (306) 
-0.5

>  <i_i_glide_confnum>  (306) 
2

>  <i_i_glide_posenum>  (306) 
1

>  <r_i_glide_eff_state_penalty>  (306) 
0

>  <ligand_id>  (306) 
106

>  <original_smiles>  (306) 
CCN1CC23CC(OC)C4C5(OC)C=CC(C(OC)C2)(C2(O)CC(C)=CC2C5)C42C1C1CC1C(OC)C3C(O)(CO)C2O

>  <smiles>  (306) 
[H]OC([H])([H])C1(O[H])C([H])(O[H])C23C4([H])C([H])(OC([H])([H])[H])C([H])([H])C5(C([H])([H])C([H])(OC([H])([H])[H])C26C([H])=C([H])C4(OC([H])([H])[H])C([H])([H])C2([H])C([H])=C(C([H])([H])[H])C([H])([H])C26O[H])C1([H])C([H])(OC([H])([H])[H])C1([H])C([H])([H])C1([H])C3([H])[N+]([H])(C([H])([H])C([H])([H])[H])C5([H])[H]

$$$$
106:2:0
     RDKit          3D

 95102  0  0  1  0  0  0  0  0999 V2000
    0.9825  -11.7690    3.5590 C   0  0  0  0  0  0  0  0  0  0  0  0
    0.3600  -10.3764    3.4469 C   0  0  0  0  0  0  0  0  0  0  0  0
    1.2811   -9.2368    3.8093 N   0  0  2  0  0  0  0  0  0  0  0  0
    2.4401   -9.5617    5.1115 C   0  0  0  0  0  0  0  0  0  0  0  0
    3.4318   -8.3114    6.0354 C   0  0  1  0  0  0  0  0  0  0  0  0
    2.9968   -7.2023    7.2361 C   0  0  0  0  0  0  0  0  0  0  0  0
    2.4018   -5.6597    6.7605 C   0  0  1  0  0  0  0  0  0  0  0  0
    3.1290   -4.6236    7.4100 O   0  0  0  0  0  0  0  0  0  0  0  0
    3.0483   -4.5351    8.8355 C   0  0  0  0  0  0  0  0  0  0  0  0
    1.9031   -5.1861    5.1934 C   0  0  1  0  0  0  0  0  0  0  0  0
    2.0748   -3.5743    5.0275 C   0  0  2  0  0  0  0  0  0  0  0  0
    1.2532   -2.7898    5.8982 O   0  0  0  0  0  0  0  0  0  0  0  0
   -0.1631   -2.9438    5.9275 C   0  0  0  0  0  0  0  0  0  0  0  0
    1.7352   -3.4333    3.6277 C   0  0  0  0  0  0  0  0  0  0  0  0
    2.4265   -4.3367    2.9413 C   0  0  0  0  0  0  0  0  0  0  0  0
    3.4963   -5.4201    3.5294 C   0  0  2  0  0  0  0  0  0  0  0  0
    4.5773   -5.8863    4.8817 C   0  0  1  0  0  0  0  0  0  0  0  0
    5.0056   -4.8711    5.7718 O   0  0  0  0  0  0  0  0  0  0  0  0
    6.3755   -4.7931    6.1827 C   0  0  0  0  0  0  0  0  0  0  0  0
    4.7404   -7.4029    5.6564 C   0  0  0  0  0  0  0  0  0  0  0  0
    4.4580   -4.2327    2.8769 C   0  0  1  0  0  0  0  0  0  0  0  0
    5.8060   -4.6547    2.7609 O   0  0  0  0  0  0  0  0  0  0  0  0
    4.4335   -3.6645    1.3824 C   0  0  0  0  0  0  0  0  0  0  0  0
    4.3968   -2.1562    1.5626 C   0  0  0  0  0  0  0  0  0  0  0  0
    4.3255   -1.2344    0.3578 C   0  0  0  0  0  0  0  0  0  0  0  0
    4.4456   -1.7864    2.8444 C   0  0  0  0  0  0  0  0  0  0  0  0
    4.5053   -2.9433    3.8254 C   0  0  1  0  0  0  0  0  0  0  0  0
    3.4570   -2.7940    5.0278 C   0  0  0  0  0  0  0  0  0  0  0  0
    1.9332   -6.1080    3.5449 C   0  0  2  0  0  0  0  0  0  0  0  0
    0.8658   -7.5981    3.4091 C   0  0  1  0  0  0  0  0  0  0  0  0
   -0.5810   -7.6464    3.7848 C   0  0  2  0  0  0  0  0  0  0  0  0
   -1.3417   -6.8789    4.8256 C   0  0  0  0  0  0  0  0  0  0  0  0
   -0.5166   -8.0539    5.2578 C   0  0  2  0  0  0  0  0  0  0  0  0
    0.8971   -7.9307    6.0000 C   0  0  1  0  0  0  0  0  0  0  0  0
    0.7443   -8.8483    7.1259 O   0  0  0  0  0  0  0  0  0  0  0  0
    0.2530   -8.3787    8.4089 C   0  0  0  0  0  0  0  0  0  0  0  0
    2.6425   -7.9647    5.1330 C   0  0  2  0  0  0  0  0  0  0  0  0
    3.4730   -8.1353    3.3871 C   0  0  1  0  0  0  0  0  0  0  0  0
    4.8656   -7.9385    3.1457 O   0  0  0  0  0  0  0  0  0  0  0  0
    3.7084   -9.5169    2.5222 C   0  0  0  0  0  0  0  0  0  0  0  0
    4.1800   -9.3750    1.1976 O   0  0  0  0  0  0  0  0  0  0  0  0
    2.8575   -6.9890    2.5509 C   0  0  1  0  0  0  0  0  0  0  0  0
    2.1224   -7.2862    1.3514 O   0  0  0  0  0  0  0  0  0  0  0  0
    0.2580  -12.5259    3.2639 H   0  0  0  0  0  0  0  0  0  0  0  0
    1.2618  -12.0363    4.5710 H   0  0  0  0  0  0  0  0  0  0  0  0
    1.8404  -11.9273    2.9163 H   0  0  0  0  0  0  0  0  0  0  0  0
    0.0248  -10.2193    2.4357 H   0  0  0  0  0  0  0  0  0  0  0  0
   -0.5243  -10.3507    4.0475 H   0  0  0  0  0  0  0  0  0  0  0  0
    1.9284  -10.2159    5.7893 H   0  0  0  0  0  0  0  0  0  0  0  0
    3.1092  -10.3154    4.7688 H   0  0  0  0  0  0  0  0  0  0  0  0
    2.4944   -7.7172    8.0072 H   0  0  0  0  0  0  0  0  0  0  0  0
    3.8686   -6.9559    7.8270 H   0  0  0  0  0  0  0  0  0  0  0  0
    1.4884   -5.5412    7.3448 H   0  0  0  0  0  0  0  0  0  0  0  0
    3.6901   -3.7232    9.1714 H   0  0  0  0  0  0  0  0  0  0  0  0
    3.3872   -5.4305    9.3570 H   0  0  0  0  0  0  0  0  0  0  0  0
    2.0369   -4.3024    9.1733 H   0  0  0  0  0  0  0  0  0  0  0  0
    0.8444   -5.1938    5.3380 H   0  0  0  0  0  0  0  0  0  0  0  0
   -0.6019   -2.1010    6.4635 H   0  0  0  0  0  0  0  0  0  0  0  0
   -0.4559   -3.8424    6.4695 H   0  0  0  0  0  0  0  0  0  0  0  0
   -0.6040   -2.9553    4.9321 H   0  0  0  0  0  0  0  0  0  0  0  0
    0.9800   -2.7632    3.2622 H   0  0  0  0  0  0  0  0  0  0  0  0
    2.1290   -4.4117    1.9144 H   0  0  0  0  0  0  0  0  0  0  0  0
    5.5307   -6.0709    4.4306 H   0  0  0  0  0  0  0  0  0  0  0  0
    6.4998   -3.9266    6.8306 H   0  0  0  0  0  0  0  0  0  0  0  0
    7.0421   -4.6547    5.3324 H   0  0  0  0  0  0  0  0  0  0  0  0
    6.7177   -5.6545    6.7523 H   0  0  0  0  0  0  0  0  0  0  0  0
    5.2781   -7.2224    6.5674 H   0  0  0  0  0  0  0  0  0  0  0  0
    5.5183   -8.0583    5.2992 H   0  0  0  0  0  0  0  0  0  0  0  0
    6.0847   -5.0159    3.5927 H   0  0  0  0  0  0  0  0  0  0  0  0
    5.3355   -3.8558    0.7929 H   0  0  0  0  0  0  0  0  0  0  0  0
    3.6294   -3.9808    0.7170 H   0  0  0  0  0  0  0  0  0  0  0  0
    5.1652   -1.3964   -0.3132 H   0  0  0  0  0  0  0  0  0  0  0  0
    4.3267   -0.1762    0.6346 H   0  0  0  0  0  0  0  0  0  0  0  0
    3.4182   -1.4171   -0.2137 H   0  0  0  0  0  0  0  0  0  0  0  0
    4.4465   -0.7528    3.1698 H   0  0  0  0  0  0  0  0  0  0  0  0
    5.4908   -2.8309    4.2667 H   0  0  0  0  0  0  0  0  0  0  0  0
    3.2032   -1.7344    5.0466 H   0  0  0  0  0  0  0  0  0  0  0  0
    3.9449   -2.8801    5.9904 H   0  0  0  0  0  0  0  0  0  0  0  0
    0.7631   -6.8051    4.0830 H   0  0  0  0  0  0  0  0  0  0  0  0
   -1.2018   -8.2083    3.1027 H   0  0  0  0  0  0  0  0  0  0  0  0
   -1.0381   -5.8874    5.1079 H   0  0  0  0  0  0  0  0  0  0  0  0
   -2.4218   -7.0132    4.7980 H   0  0  0  0  0  0  0  0  0  0  0  0
   -1.1010   -8.9084    5.5408 H   0  0  0  0  0  0  0  0  0  0  0  0
    0.6163   -7.0179    6.4547 H   0  0  0  0  0  0  0  0  0  0  0  0
    0.2698   -9.2560    9.0892 H   0  0  0  0  0  0  0  0  0  0  0  0
   -0.7691   -7.9674    8.3432 H   0  0  0  0  0  0  0  0  0  0  0  0
    0.8583   -7.6107    8.8765 H   0  0  0  0  0  0  0  0  0  0  0  0
    2.7908   -7.0806    5.1373 H   0  0  0  0  0  0  0  0  0  0  0  0
    5.3726   -8.6431    3.5482 H   0  0  0  0  0  0  0  0  0  0  0  0
    4.3972  -10.2017    3.0400 H   0  0  0  0  0  0  0  0  0  0  0  0
    2.8161  -10.1014    2.2389 H   0  0  0  0  0  0  0  0  0  0  0  0
    4.2009  -10.2393    0.7853 H   0  0  0  0  0  0  0  0  0  0  0  0
    3.6456   -6.5927    1.8692 H   0  0  0  0  0  0  0  0  0  0  0  0
    1.6499   -8.1154    1.4409 H   0  0  0  0  0  0  0  0  0  0  0  0
    1.9262   -9.3891    3.0630 H   0  0  0  0  0  0  0  0  0  0  0  0
  1  2  1  0
  1 44  1  0
  1 45  1  0
  1 46  1  0
  2  3  1  0
  2 47  1  0
  2 48  1  0
  3 30  1  0
  3  4  1  0
  3 95  1  6
  4  5  1  0
  4 49  1  0
  4 50  1  0
  5 20  1  6
  5 37  1  0
  5  6  1  0
  6  7  1  0
  6 51  1  0
  6 52  1  0
  7  8  1  0
  7 10  1  0
  7 53  1  1
  8  9  1  0
  9 54  1  0
  9 55  1  0
  9 56  1  0
 10 29  1  0
 10 11  1  0
 10 57  1  1
 11 28  1  0
 11 12  1  1
 11 14  1  0
 12 13  1  0
 13 58  1  0
 13 59  1  0
 13 60  1  0
 14 15  2  0
 14 61  1  0
 16 15  1  1
 15 62  1  0
 16 17  1  0
 16 21  1  0
 29 16  1  6
 17 18  1  0
 17 20  1  0
 17 63  1  6
 18 19  1  0
 19 64  1  0
 19 65  1  0
 19 66  1  0
 20 67  1  0
 20 68  1  0
 21 27  1  0
 21 22  1  6
 21 23  1  0
 22 69  1  0
 23 24  1  0
 23 70  1  0
 23 71  1  0
 24 25  1  0
 24 26  2  0
 25 72  1  0
 25 73  1  0
 25 74  1  0
 26 27  1  0
 26 75  1  0
 27 28  1  0
 27 76  1  1
 28 77  1  0
 28 78  1  0
 29 42  1  0
 29 30  1  0
 30 31  1  0
 30 79  1  6
 31 33  1  0
 31 32  1  0
 31 80  1  6
 32 33  1  0
 32 81  1  0
 32 82  1  0
 33 34  1  0
 33 83  1  6
 34 35  1  0
 34 37  1  0
 34 84  1  1
 35 36  1  0
 36 85  1  0
 36 86  1  0
 36 87  1  0
 37 38  1  0
 37 88  1  1
 38 39  1  1
 38 40  1  0
 38 42  1  0
 39 89  1  0
 40 41  1  0
 40 90  1  0
 40 91  1  0
 41 92  1  0
 42 43  1  0
 42 93  1  6
 43 94  1  0
M  CHG  1   3   1
M  END
>  <i_m_ct_stereo_status>  (307) 
1

>  <s_m_source_file>  (307) 
/var/tmp/pbs.5076255.sched01/tmpua_2_py4/114lbcpx7pn.sdf

>  <i_m_source_file_index>  (307) 
27

>  <i_lp_mmshare_version>  (307) 
48012

>  <i_f3d_flags>  (307) 
0

>  <s_epik_input>  (307) 
QzEyM1tDQEhdNFtDQEhdKE9bQ0gzXSlbQ0BASF01W0NAQEhdKFtDSDJdNSlbQ0BASF0oTihbQ0gyXTEpW0NIMl1bQ0gzXSlDNihbQ0BIXShbT0hdKVtDQF00KFtPSF0pW0NIMl1bT0hdKVtDQEBdNyhbQ0BIXShbQ0gyXTMpT1tDSDNdKVtDQF04KFtPSF0pW0NAQEhdKFtDSF09QyhbQ0gyXTgpW0NIM10pW0NIMl1bQ0BdKE9bQ0gzXSkoW0NIXT1bQ0hdNylbQ0BASF02W0NAQEhdKFtDSDJdMilPW0NIM10=

>  <s_epik_cmdline>  (307) 
J2VwaWtfcHl0aG9uJywgJy1waHQnLCAnMi4wJywgJy1waCcsICc3LjAnLCAnLXRuJywgJzgnLCAnLW1hJywgJzIwMCcsICctaW1hZScsICc8aW5maWxlLm1hZT4nLCAnLW9tYWUnLCAnPG91dGZpbGUubWFlPic=

>  <r_epik_Ionization_Penalty>  (307) 
0.0181886

>  <r_epik_Ionization_Penalty_Charging>  (307) 
0.018188

>  <r_epik_Ionization_Penalty_Neutral>  (307) 
6.70891e-07

>  <r_epik_State_Penalty>  (307) 
0.0144584

>  <r_epik_Charging_Adjusted_Penalty>  (307) 
0.0326464

>  <i_epik_Tot_Q>  (307) 
1

>  <i_epik_Tot_abs_Q>  (307) 
1

>  <s_lp_Force_Field>  (307) 
OPLS3e

>  <r_lp_Energy>  (307) 
1283.95

>  <b_lp_Chiralities_Consistent>  (307) 
1

>  <s_lp_Variant>  (307) 
106:0-3

>  <s_i_glide_gridfile>  (307) 
pfpi4k_grid

>  <i_i_glide_lignum>  (307) 
27

>  <i_i_glide_rotatable_bonds>  (307) 
10

>  <r_i_docking_score>  (307) 
-2.08923

>  <r_i_glide_ligand_efficiency>  (307) 
-0.0485869

>  <r_i_glide_ligand_efficiency_sa>  (307) 
-0.170219

>  <r_i_glide_ligand_efficiency_ln>  (307) 
-0.438804

>  <r_i_glide_gscore>  (307) 
-2.08923

>  <r_i_glide_lipo>  (307) 
-0.16476

>  <r_i_glide_hbond>  (307) 
0

>  <r_i_glide_metal>  (307) 
-0

>  <r_i_glide_rewards>  (307) 
0

>  <r_i_glide_evdw>  (307) 
-24.5584

>  <r_i_glide_ecoul>  (307) 
-5.58891

>  <r_i_glide_erotb>  (307) 
0.0578349

>  <r_i_glide_esite>  (307) 
-0.0162096

>  <r_i_glide_emodel>  (307) 
-26.0609

>  <r_i_glide_energy>  (307) 
-30.1474

>  <r_i_glide_einternal>  (307) 
9.96442

>  <r_i_glide_intrahb_reward>  (307) 
-0

>  <i_i_glide_confnum>  (307) 
1

>  <i_i_glide_posenum>  (307) 
16

>  <r_i_glide_eff_state_penalty>  (307) 
0

>  <ligand_id>  (307) 
106

>  <original_smiles>  (307) 
CCN1CC23CC(OC)C4C5(OC)C=CC(C(OC)C2)(C2(O)CC(C)=CC2C5)C42C1C1CC1C(OC)C3C(O)(CO)C2O

>  <smiles>  (307) 
[H]OC([H])([H])C1(O[H])C([H])(O[H])C23C4([H])C([H])(OC([H])([H])[H])C([H])([H])C5(C([H])([H])C([H])(OC([H])([H])[H])C26C([H])=C([H])C4(OC([H])([H])[H])C([H])([H])C2([H])C([H])=C(C([H])([H])[H])C([H])([H])C26O[H])C1([H])C([H])(OC([H])([H])[H])C1([H])C([H])([H])C1([H])C3([H])[N+]([H])(C([H])([H])C([H])([H])[H])C5([H])[H]

$$$$
106:3:0
     RDKit          3D

 94101  0  0  1  0  0  0  0  0999 V2000
    6.0352   -5.1343    0.4704 C   0  0  0  0  0  0  0  0  0  0  0  0
    4.6392   -4.9044    1.1164 C   0  0  0  0  0  0  0  0  0  0  0  0
    4.4313   -4.9927    2.6350 N   0  0  0  0  0  0  0  0  0  0  0  0
    5.3724   -4.1204    3.2419 C   0  0  0  0  0  0  0  0  0  0  0  0
    5.0371   -4.3498    4.7109 C   0  0  1  0  0  0  0  0  0  0  0  0
    6.1009   -5.7113    4.3159 C   0  0  0  0  0  0  0  0  0  0  0  0
    5.8817   -7.0291    3.2791 C   0  0  1  0  0  0  0  0  0  0  0  0
    6.6574   -8.1418    3.7426 O   0  0  0  0  0  0  0  0  0  0  0  0
    8.0705   -8.0641    3.5612 C   0  0  0  0  0  0  0  0  0  0  0  0
    4.4689   -7.4495    2.4196 C   0  0  1  0  0  0  0  0  0  0  0  0
    4.1355   -8.9598    2.1121 C   0  0  1  0  0  0  0  0  0  0  0  0
    4.8228   -9.4471    0.9475 O   0  0  0  0  0  0  0  0  0  0  0  0
    6.2425   -9.5902    0.9887 C   0  0  0  0  0  0  0  0  0  0  0  0
    4.4726   -9.7092    3.3299 C   0  0  0  0  0  0  0  0  0  0  0  0
    4.0511   -9.1116    4.4307 C   0  0  0  0  0  0  0  0  0  0  0  0
    3.2528   -7.7685    4.4375 C   0  0  2  0  0  0  0  0  0  0  0  0
    4.0976   -7.0611    5.7675 C   0  0  1  0  0  0  0  0  0  0  0  0
    5.2322   -7.8233    6.2252 O   0  0  0  0  0  0  0  0  0  0  0  0
    5.3773   -8.0063    7.6327 C   0  0  0  0  0  0  0  0  0  0  0  0
    4.6596   -5.4805    5.9314 C   0  0  0  0  0  0  0  0  0  0  0  0
    1.8175   -8.5181    4.4419 C   0  0  1  0  0  0  0  0  0  0  0  0
    1.6613   -9.2664    5.6377 O   0  0  0  0  0  0  0  0  0  0  0  0
    0.4355   -7.7854    4.4069 C   0  0  0  0  0  0  0  0  0  0  0  0
   -0.4575   -8.6371    3.5482 C   0  0  0  0  0  0  0  0  0  0  0  0
   -1.9412   -8.3478    3.4674 C   0  0  0  0  0  0  0  0  0  0  0  0
    0.2243   -9.5538    2.8817 C   0  0  0  0  0  0  0  0  0  0  0  0
    1.6964   -9.5250    3.1964 C   0  0  1  0  0  0  0  0  0  0  0  0
    2.5876   -9.2424    1.9033 C   0  0  0  0  0  0  0  0  0  0  0  0
    3.1044   -6.7778    2.9749 C   0  0  2  0  0  0  0  0  0  0  0  0
    3.2652   -5.6784    3.7120 C   0  0  1  0  0  0  0  0  0  0  0  0
    2.1613   -5.2273    5.0146 C   0  0  2  0  0  0  0  0  0  0  0  0
    0.7178   -4.7623    5.1111 C   0  0  0  0  0  0  0  0  0  0  0  0
    1.7939   -3.9026    5.7357 C   0  0  2  0  0  0  0  0  0  0  0  0
    2.5677   -2.6800    5.2251 C   0  0  1  0  0  0  0  0  0  0  0  0
    3.0980   -1.9423    6.3345 O   0  0  0  0  0  0  0  0  0  0  0  0
    3.7144   -0.7219    5.9541 C   0  0  0  0  0  0  0  0  0  0  0  0
    3.6223   -3.2393    4.2186 C   0  0  2  0  0  0  0  0  0  0  0  0
    2.4292   -3.5644    2.8294 C   0  0  1  0  0  0  0  0  0  0  0  0
    1.1196   -3.0422    2.9301 O   0  0  0  0  0  0  0  0  0  0  0  0
    2.7339   -2.4528    1.7451 C   0  0  0  0  0  0  0  0  0  0  0  0
    2.7562   -1.1589    2.3358 O   0  0  0  0  0  0  0  0  0  0  0  0
    2.1152   -5.2954    2.2463 C   0  0  1  0  0  0  0  0  0  0  0  0
    1.7829   -5.4430    0.8748 O   0  0  0  0  0  0  0  0  0  0  0  0
    5.8760   -4.9977   -0.5960 H   0  0  0  0  0  0  0  0  0  0  0  0
    6.4393   -6.1469    0.5326 H   0  0  0  0  0  0  0  0  0  0  0  0
    6.7723   -4.3945    0.7725 H   0  0  0  0  0  0  0  0  0  0  0  0
    4.4068   -3.9643    0.6878 H   0  0  0  0  0  0  0  0  0  0  0  0
    4.0400   -5.6335    0.5658 H   0  0  0  0  0  0  0  0  0  0  0  0
    6.3696   -4.2129    2.8126 H   0  0  0  0  0  0  0  0  0  0  0  0
    5.2517   -3.0816    2.9198 H   0  0  0  0  0  0  0  0  0  0  0  0
    7.1097   -5.3457    4.1067 H   0  0  0  0  0  0  0  0  0  0  0  0
    6.5685   -6.1917    5.1703 H   0  0  0  0  0  0  0  0  0  0  0  0
    6.5195   -6.7147    2.4700 H   0  0  0  0  0  0  0  0  0  0  0  0
    8.5271   -8.9794    3.9374 H   0  0  0  0  0  0  0  0  0  0  0  0
    8.5176   -7.2249    4.0944 H   0  0  0  0  0  0  0  0  0  0  0  0
    8.3470   -7.9825    2.5084 H   0  0  0  0  0  0  0  0  0  0  0  0
    4.6108   -7.2331    1.3827 H   0  0  0  0  0  0  0  0  0  0  0  0
    6.6059  -10.1022    0.0971 H   0  0  0  0  0  0  0  0  0  0  0  0
    6.5946  -10.1869    1.8296 H   0  0  0  0  0  0  0  0  0  0  0  0
    6.7357   -8.6213    1.0019 H   0  0  0  0  0  0  0  0  0  0  0  0
    4.9834  -10.6565    3.2983 H   0  0  0  0  0  0  0  0  0  0  0  0
    4.1980   -9.6159    5.3693 H   0  0  0  0  0  0  0  0  0  0  0  0
    3.4123   -7.2243    6.5959 H   0  0  0  0  0  0  0  0  0  0  0  0
    6.3154   -8.5237    7.8338 H   0  0  0  0  0  0  0  0  0  0  0  0
    4.5753   -8.6157    8.0511 H   0  0  0  0  0  0  0  0  0  0  0  0
    5.4094   -7.0659    8.1818 H   0  0  0  0  0  0  0  0  0  0  0  0
    5.4906   -5.4727    6.6433 H   0  0  0  0  0  0  0  0  0  0  0  0
    3.9946   -5.0119    6.6555 H   0  0  0  0  0  0  0  0  0  0  0  0
    2.2079  -10.0392    5.5873 H   0  0  0  0  0  0  0  0  0  0  0  0
   -0.0027   -7.5985    5.3904 H   0  0  0  0  0  0  0  0  0  0  0  0
    0.4140   -6.8798    3.8357 H   0  0  0  0  0  0  0  0  0  0  0  0
   -2.3696   -8.4812    4.4551 H   0  0  0  0  0  0  0  0  0  0  0  0
   -2.4596   -9.0213    2.7847 H   0  0  0  0  0  0  0  0  0  0  0  0
   -2.1250   -7.3254    3.1432 H   0  0  0  0  0  0  0  0  0  0  0  0
   -0.2137  -10.2717    2.2032 H   0  0  0  0  0  0  0  0  0  0  0  0
    1.9214  -10.5409    3.5328 H   0  0  0  0  0  0  0  0  0  0  0  0
    2.1344   -8.4687    1.2808 H   0  0  0  0  0  0  0  0  0  0  0  0
    2.5204  -10.1432    1.2946 H   0  0  0  0  0  0  0  0  0  0  0  0
    2.2918   -6.1815    3.8704 H   0  0  0  0  0  0  0  0  0  0  0  0
    2.0693   -6.0054    5.7516 H   0  0  0  0  0  0  0  0  0  0  0  0
    0.1336   -4.5077    4.2462 H   0  0  0  0  0  0  0  0  0  0  0  0
    0.0998   -5.2618    5.8567 H   0  0  0  0  0  0  0  0  0  0  0  0
    1.7733   -3.9297    6.8228 H   0  0  0  0  0  0  0  0  0  0  0  0
    1.8614   -1.9754    4.7974 H   0  0  0  0  0  0  0  0  0  0  0  0
    4.0532   -0.1993    6.8481 H   0  0  0  0  0  0  0  0  0  0  0  0
    3.0241   -0.0596    5.4258 H   0  0  0  0  0  0  0  0  0  0  0  0
    4.5863   -0.8998    5.3226 H   0  0  0  0  0  0  0  0  0  0  0  0
    3.7909   -3.5527    5.2183 H   0  0  0  0  0  0  0  0  0  0  0  0
    0.7339   -3.0644    2.0646 H   0  0  0  0  0  0  0  0  0  0  0  0
    3.7260   -2.3994    1.3715 H   0  0  0  0  0  0  0  0  0  0  0  0
    2.0085   -2.4462    0.9054 H   0  0  0  0  0  0  0  0  0  0  0  0
    2.8432   -0.5356    1.6306 H   0  0  0  0  0  0  0  0  0  0  0  0
    1.0777   -5.4799    2.5095 H   0  0  0  0  0  0  0  0  0  0  0  0
    2.5668   -5.4101    0.3492 H   0  0  0  0  0  0  0  0  0  0  0  0
  1  2  1  0
  1 44  1  0
  1 45  1  0
  1 46  1  0
  2  3  1  0
  2 47  1  0
  2 48  1  0
  3 30  1  0
  3  4  1  0
  4  5  1  0
  4 49  1  0
  4 50  1  0
  5 20  1  6
  5 37  1  0
  5  6  1  0
  6  7  1  0
  6 51  1  0
  6 52  1  0
  7  8  1  0
  7 10  1  0
  7 53  1  6
  8  9  1  0
  9 54  1  0
  9 55  1  0
  9 56  1  0
 10 29  1  0
 10 11  1  0
 10 57  1  6
 11 28  1  0
 11 12  1  6
 11 14  1  0
 12 13  1  0
 13 58  1  0
 13 59  1  0
 13 60  1  0
 14 15  2  0
 14 61  1  0
 16 15  1  6
 15 62  1  0
 16 17  1  0
 16 21  1  0
 29 16  1  6
 17 18  1  0
 17 20  1  0
 17 63  1  1
 18 19  1  0
 19 64  1  0
 19 65  1  0
 19 66  1  0
 20 67  1  0
 20 68  1  0
 21 27  1  0
 21 22  1  1
 21 23  1  0
 22 69  1  0
 23 24  1  0
 23 70  1  0
 23 71  1  0
 24 25  1  0
 24 26  2  0
 25 72  1  0
 25 73  1  0
 25 74  1  0
 26 27  1  0
 26 75  1  0
 27 28  1  0
 27 76  1  1
 28 77  1  0
 28 78  1  0
 29 42  1  0
 29 30  1  0
 30 31  1  0
 30 79  1  1
 31 33  1  0
 31 32  1  0
 31 80  1  1
 32 33  1  0
 32 81  1  0
 32 82  1  0
 33 34  1  0
 33 83  1  1
 34 35  1  0
 34 37  1  0
 34 84  1  6
 35 36  1  0
 36 85  1  0
 36 86  1  0
 36 87  1  0
 37 38  1  0
 37 88  1  6
 38 39  1  1
 38 40  1  0
 38 42  1  0
 39 89  1  0
 40 41  1  0
 40 90  1  0
 40 91  1  0
 41 92  1  0
 42 43  1  0
 42 93  1  1
 43 94  1  0
M  END
>  <i_m_ct_stereo_status>  (308) 
1

>  <s_m_source_file>  (308) 
/var/tmp/pbs.5076255.sched01/tmpua_2_py4/114lbcpx7pn.sdf

>  <i_m_source_file_index>  (308) 
28

>  <i_lp_mmshare_version>  (308) 
48012

>  <i_f3d_flags>  (308) 
0

>  <s_epik_input>  (308) 
QzEyM1tDQEhdNFtDQEhdKE9bQ0gzXSlbQ0BASF01W0NAQEhdKFtDSDJdNSlbQ0BASF0oTihbQ0gyXTEpW0NIMl1bQ0gzXSlDNihbQ0BIXShbT0hdKVtDQF00KFtPSF0pW0NIMl1bT0hdKVtDQEBdNyhbQ0BIXShbQ0gyXTMpT1tDSDNdKVtDQF04KFtPSF0pW0NAQEhdKFtDSF09QyhbQ0gyXTgpW0NIM10pW0NIMl1bQ0BdKE9bQ0gzXSkoW0NIXT1bQ0hdNylbQ0BASF02W0NAQEhdKFtDSDJdMilPW0NIM10=

>  <s_epik_cmdline>  (308) 
J2VwaWtfcHl0aG9uJywgJy1waHQnLCAnMi4wJywgJy1waCcsICc3LjAnLCAnLXRuJywgJzgnLCAnLW1hJywgJzIwMCcsICctaW1hZScsICc8aW5maWxlLm1hZT4nLCAnLW9tYWUnLCAnPG91dGZpbGUubWFlPic=

>  <r_epik_Ionization_Penalty>  (308) 
2.07303

>  <r_epik_Ionization_Penalty_Charging>  (308) 
0

>  <r_epik_Ionization_Penalty_Neutral>  (308) 
2.07303

>  <r_epik_State_Penalty>  (308) 
2.20714

>  <r_epik_Charging_Adjusted_Penalty>  (308) 
2.20714

>  <i_epik_Tot_Q>  (308) 
0

>  <i_epik_Tot_abs_Q>  (308) 
0

>  <s_lp_Force_Field>  (308) 
OPLS3e

>  <r_lp_Energy>  (308) 
1134.36

>  <b_lp_Chiralities_Consistent>  (308) 
1

>  <s_lp_Variant>  (308) 
106:0-4

>  <s_i_glide_gridfile>  (308) 
pfpi4k_grid

>  <i_i_glide_lignum>  (308) 
28

>  <i_i_glide_rotatable_bonds>  (308) 
10

>  <r_i_docking_score>  (308) 
-2.33966

>  <r_i_glide_ligand_efficiency>  (308) 
-0.0544106

>  <r_i_glide_ligand_efficiency_sa>  (308) 
-0.190622

>  <r_i_glide_ligand_efficiency_ln>  (308) 
-0.491401

>  <r_i_glide_gscore>  (308) 
-2.33966

>  <r_i_glide_lipo>  (308) 
-0.185645

>  <r_i_glide_hbond>  (308) 
0

>  <r_i_glide_metal>  (308) 
-0

>  <r_i_glide_rewards>  (308) 
0

>  <r_i_glide_evdw>  (308) 
-23.8898

>  <r_i_glide_ecoul>  (308) 
-6.78358

>  <r_i_glide_erotb>  (308) 
0.0580149

>  <r_i_glide_esite>  (308) 
0

>  <r_i_glide_emodel>  (308) 
-30.412

>  <r_i_glide_energy>  (308) 
-30.6734

>  <r_i_glide_einternal>  (308) 
6.73185

>  <r_i_glide_intrahb_reward>  (308) 
-0

>  <i_i_glide_confnum>  (308) 
5

>  <i_i_glide_posenum>  (308) 
19

>  <r_i_glide_eff_state_penalty>  (308) 
0

>  <ligand_id>  (308) 
106

>  <original_smiles>  (308) 
CCN1CC23CC(OC)C4C5(OC)C=CC(C(OC)C2)(C2(O)CC(C)=CC2C5)C42C1C1CC1C(OC)C3C(O)(CO)C2O

>  <smiles>  (308) 
[H]OC([H])([H])C1(O[H])C([H])(O[H])C23C4([H])N(C([H])([H])C([H])([H])[H])C([H])([H])C5(C([H])([H])C([H])(OC([H])([H])[H])C2([H])C2(OC([H])([H])[H])C([H])=C([H])C3(C([H])(OC([H])([H])[H])C5([H])[H])C3(O[H])C([H])([H])C(C([H])([H])[H])=C([H])C3([H])C2([H])[H])C1([H])C([H])(OC([H])([H])[H])C1([H])C([H])([H])C41[H]

$$$$
106:3:1
     RDKit          3D

 94101  0  0  1  0  0  0  0  0999 V2000
    6.0660   -5.1007    0.9171 C   0  0  0  0  0  0  0  0  0  0  0  0
    4.6418   -4.9243    1.5184 C   0  0  0  0  0  0  0  0  0  0  0  0
    4.3517   -5.1468    3.0088 N   0  0  0  0  0  0  0  0  0  0  0  0
    5.2371   -4.3296    3.7425 C   0  0  0  0  0  0  0  0  0  0  0  0
    4.8463   -4.6987    5.1671 C   0  0  1  0  0  0  0  0  0  0  0  0
    5.9424   -6.0051    4.6967 C   0  0  0  0  0  0  0  0  0  0  0  0
    5.7736   -7.2276    3.5391 C   0  0  1  0  0  0  0  0  0  0  0  0
    6.5340   -8.3807    3.9322 O   0  0  0  0  0  0  0  0  0  0  0  0
    7.9527   -8.2888    3.8212 C   0  0  0  0  0  0  0  0  0  0  0  0
    4.4086   -7.5678    2.5697 C   0  0  1  0  0  0  0  0  0  0  0  0
    4.0990   -9.0440    2.1057 C   0  0  1  0  0  0  0  0  0  0  0  0
    4.8411   -9.4412    0.9406 O   0  0  0  0  0  0  0  0  0  0  0  0
    6.2652   -9.4404    1.0029 C   0  0  0  0  0  0  0  0  0  0  0  0
    4.3840   -9.9006    3.2596 C   0  0  0  0  0  0  0  0  0  0  0  0
    3.8993   -9.4099    4.3879 C   0  0  0  0  0  0  0  0  0  0  0  0
    3.0983   -8.0738    4.4811 C   0  0  2  0  0  0  0  0  0  0  0  0
    3.8693   -7.4957    5.9117 C   0  0  1  0  0  0  0  0  0  0  0  0
    4.9858   -8.2962    6.3513 O   0  0  0  0  0  0  0  0  0  0  0  0
    5.0521   -8.6237    7.7390 C   0  0  0  0  0  0  0  0  0  0  0  0
    4.4153   -5.9393    6.2549 C   0  0  0  0  0  0  0  0  0  0  0  0
    1.6656   -8.8207    4.3545 C   0  0  1  0  0  0  0  0  0  0  0  0
    1.4853   -9.6708    5.4711 O   0  0  0  0  0  0  0  0  0  0  0  0
    0.2820   -8.0872    4.3179 C   0  0  0  0  0  0  0  0  0  0  0  0
   -0.5698   -8.8544    3.3473 C   0  0  0  0  0  0  0  0  0  0  0  0
   -2.0454   -8.5589    3.2098 C   0  0  0  0  0  0  0  0  0  0  0  0
    0.1565   -9.7158    2.6381 C   0  0  0  0  0  0  0  0  0  0  0  0
    1.6124   -9.7102    3.0187 C   0  0  1  0  0  0  0  0  0  0  0  0
    2.5637   -9.3056    1.7996 C   0  0  0  0  0  0  0  0  0  0  0  0
    3.0165   -6.9549    3.1225 C   0  0  2  0  0  0  0  0  0  0  0  0
    3.1279   -5.9299    3.9553 C   0  0  1  0  0  0  0  0  0  0  0  0
    1.9623   -5.5932    5.2416 C   0  0  2  0  0  0  0  0  0  0  0  0
    0.5205   -5.1456    5.3095 C   0  0  0  0  0  0  0  0  0  0  0  0
    1.5555   -4.3474    6.0607 C   0  0  2  0  0  0  0  0  0  0  0  0
    2.3526   -3.0831    5.7079 C   0  0  1  0  0  0  0  0  0  0  0  0
    2.8243   -2.4527    6.9081 O   0  0  0  0  0  0  0  0  0  0  0  0
    3.4554   -1.2035    6.6724 C   0  0  0  0  0  0  0  0  0  0  0  0
    3.4572   -3.5466    4.7122 C   0  0  2  0  0  0  0  0  0  0  0  0
    2.3333   -3.7369    3.2389 C   0  0  1  0  0  0  0  0  0  0  0  0
    1.0142   -3.2395    3.3211 O   0  0  0  0  0  0  0  0  0  0  0  0
    2.6772   -2.5258    2.2793 C   0  0  0  0  0  0  0  0  0  0  0  0
    2.6853   -1.2996    2.9879 O   0  0  0  0  0  0  0  0  0  0  0  0
    2.0560   -5.4097    2.4689 C   0  0  1  0  0  0  0  0  0  0  0  0
    1.7770   -5.4546    1.0983 O   0  0  0  0  0  0  0  0  0  0  0  0
    5.9691   -4.8605   -0.1391 H   0  0  0  0  0  0  0  0  0  0  0  0
    6.4539   -6.1178    0.8884 H   0  0  0  0  0  0  0  0  0  0  0  0
    6.7926   -4.4040    1.3305 H   0  0  0  0  0  0  0  0  0  0  0  0
    4.4555   -3.9276    1.1679 H   0  0  0  0  0  0  0  0  0  0  0  0
    4.0726   -5.5870    0.8650 H   0  0  0  0  0  0  0  0  0  0  0  0
    6.2430   -4.3857    3.3423 H   0  0  0  0  0  0  0  0  0  0  0  0
    5.1354   -3.2641    3.5131 H   0  0  0  0  0  0  0  0  0  0  0  0
    6.9534   -5.6061    4.5722 H   0  0  0  0  0  0  0  0  0  0  0  0
    6.3644   -6.5670    5.5234 H   0  0  0  0  0  0  0  0  0  0  0  0
    6.4550   -6.8412    2.8014 H   0  0  0  0  0  0  0  0  0  0  0  0
    8.3928   -9.2347    4.1340 H   0  0  0  0  0  0  0  0  0  0  0  0
    8.3734   -7.5016    4.4479 H   0  0  0  0  0  0  0  0  0  0  0  0
    8.2737   -8.1156    2.7921 H   0  0  0  0  0  0  0  0  0  0  0  0
    4.5823   -7.2552    1.5641 H   0  0  0  0  0  0  0  0  0  0  0  0
    6.6703   -9.8778    0.0932 H   0  0  0  0  0  0  0  0  0  0  0  0
    6.6559  -10.0285    1.8326 H   0  0  0  0  0  0  0  0  0  0  0  0
    6.6676   -8.4311    1.0560 H   0  0  0  0  0  0  0  0  0  0  0  0
    4.9034  -10.8373    3.1547 H   0  0  0  0  0  0  0  0  0  0  0  0
    3.9844  -10.0017    5.2817 H   0  0  0  0  0  0  0  0  0  0  0  0
    3.1464   -7.7365    6.6890 H   0  0  0  0  0  0  0  0  0  0  0  0
    5.9811   -9.1556    7.9409 H   0  0  0  0  0  0  0  0  0  0  0  0
    4.2340   -9.2761    8.0459 H   0  0  0  0  0  0  0  0  0  0  0  0
    5.0438   -7.7454    8.3833 H   0  0  0  0  0  0  0  0  0  0  0  0
    5.2104   -6.0017    7.0026 H   0  0  0  0  0  0  0  0  0  0  0  0
    3.7141   -5.5397    6.9859 H   0  0  0  0  0  0  0  0  0  0  0  0
    0.7406  -10.2446    5.3000 H   0  0  0  0  0  0  0  0  0  0  0  0
   -0.2098   -7.9884    5.2901 H   0  0  0  0  0  0  0  0  0  0  0  0
    0.2847   -7.1355    3.8257 H   0  0  0  0  0  0  0  0  0  0  0  0
   -2.5541   -8.7603    4.1495 H   0  0  0  0  0  0  0  0  0  0  0  0
   -2.5231   -9.1653    2.4387 H   0  0  0  0  0  0  0  0  0  0  0  0
   -2.2085   -7.5100    2.9645 H   0  0  0  0  0  0  0  0  0  0  0  0
   -0.2484  -10.3704    1.8832 H   0  0  0  0  0  0  0  0  0  0  0  0
    1.8304  -10.7529    3.2690 H   0  0  0  0  0  0  0  0  0  0  0  0
    2.1376   -8.4773    1.2311 H   0  0  0  0  0  0  0  0  0  0  0  0
    2.5356  -10.1419    1.1035 H   0  0  0  0  0  0  0  0  0  0  0  0
    2.1541   -6.4482    4.0216 H   0  0  0  0  0  0  0  0  0  0  0  0
    1.8423   -6.4408    5.8922 H   0  0  0  0  0  0  0  0  0  0  0  0
   -0.0266   -4.8098    4.4476 H   0  0  0  0  0  0  0  0  0  0  0  0
   -0.1319   -5.7143    5.9780 H   0  0  0  0  0  0  0  0  0  0  0  0
    1.4851   -4.4759    7.1398 H   0  0  0  0  0  0  0  0  0  0  0  0
    1.6662   -2.3406    5.3153 H   0  0  0  0  0  0  0  0  0  0  0  0
    3.7468   -0.7665    7.6271 H   0  0  0  0  0  0  0  0  0  0  0  0
    2.7918   -0.4938    6.1732 H   0  0  0  0  0  0  0  0  0  0  0  0
    4.3589   -1.3254    6.0736 H   0  0  0  0  0  0  0  0  0  0  0  0
    3.5745   -3.9524    5.6837 H   0  0  0  0  0  0  0  0  0  0  0  0
    0.7110   -3.0984    2.4305 H   0  0  0  0  0  0  0  0  0  0  0  0
    3.6908   -2.4342    1.9505 H   0  0  0  0  0  0  0  0  0  0  0  0
    1.9919   -2.4435    1.4096 H   0  0  0  0  0  0  0  0  0  0  0  0
    2.9053   -0.6234    2.3610 H   0  0  0  0  0  0  0  0  0  0  0  0
    1.0118   -5.6126    2.6772 H   0  0  0  0  0  0  0  0  0  0  0  0
    2.5799   -5.3587    0.6073 H   0  0  0  0  0  0  0  0  0  0  0  0
  1  2  1  0
  1 44  1  0
  1 45  1  0
  1 46  1  0
  2  3  1  0
  2 47  1  0
  2 48  1  0
  3 30  1  0
  3  4  1  0
  4  5  1  0
  4 49  1  0
  4 50  1  0
  5 20  1  6
  5 37  1  0
  5  6  1  0
  6  7  1  0
  6 51  1  0
  6 52  1  0
  7  8  1  0
  7 10  1  0
  7 53  1  6
  8  9  1  0
  9 54  1  0
  9 55  1  0
  9 56  1  0
 10 29  1  0
 10 11  1  0
 10 57  1  6
 11 28  1  0
 11 12  1  6
 11 14  1  0
 12 13  1  0
 13 58  1  0
 13 59  1  0
 13 60  1  0
 14 15  2  0
 14 61  1  0
 16 15  1  6
 15 62  1  0
 16 17  1  0
 16 21  1  0
 29 16  1  6
 17 18  1  0
 17 20  1  0
 17 63  1  1
 18 19  1  0
 19 64  1  0
 19 65  1  0
 19 66  1  0
 20 67  1  0
 20 68  1  0
 21 27  1  0
 21 22  1  1
 21 23  1  0
 22 69  1  0
 23 24  1  0
 23 70  1  0
 23 71  1  0
 24 25  1  0
 24 26  2  0
 25 72  1  0
 25 73  1  0
 25 74  1  0
 26 27  1  0
 26 75  1  0
 27 28  1  0
 27 76  1  1
 28 77  1  0
 28 78  1  0
 29 42  1  0
 29 30  1  0
 30 31  1  0
 30 79  1  1
 31 33  1  0
 31 32  1  0
 31 80  1  1
 32 33  1  0
 32 81  1  0
 32 82  1  0
 33 34  1  0
 33 83  1  1
 34 35  1  0
 34 37  1  0
 34 84  1  6
 35 36  1  0
 36 85  1  0
 36 86  1  0
 36 87  1  0
 37 38  1  0
 37 88  1  6
 38 39  1  1
 38 40  1  0
 38 42  1  0
 39 89  1  0
 40 41  1  0
 40 90  1  0
 40 91  1  0
 41 92  1  0
 42 43  1  0
 42 93  1  1
 43 94  1  0
M  END
>  <i_m_ct_stereo_status>  (309) 
1

>  <s_m_source_file>  (309) 
/var/tmp/pbs.5076255.sched01/tmpua_2_py4/114lbcpx7pn.sdf

>  <i_m_source_file_index>  (309) 
28

>  <i_lp_mmshare_version>  (309) 
48012

>  <i_f3d_flags>  (309) 
0

>  <s_epik_input>  (309) 
QzEyM1tDQEhdNFtDQEhdKE9bQ0gzXSlbQ0BASF01W0NAQEhdKFtDSDJdNSlbQ0BASF0oTihbQ0gyXTEpW0NIMl1bQ0gzXSlDNihbQ0BIXShbT0hdKVtDQF00KFtPSF0pW0NIMl1bT0hdKVtDQEBdNyhbQ0BIXShbQ0gyXTMpT1tDSDNdKVtDQF04KFtPSF0pW0NAQEhdKFtDSF09QyhbQ0gyXTgpW0NIM10pW0NIMl1bQ0BdKE9bQ0gzXSkoW0NIXT1bQ0hdNylbQ0BASF02W0NAQEhdKFtDSDJdMilPW0NIM10=

>  <s_epik_cmdline>  (309) 
J2VwaWtfcHl0aG9uJywgJy1waHQnLCAnMi4wJywgJy1waCcsICc3LjAnLCAnLXRuJywgJzgnLCAnLW1hJywgJzIwMCcsICctaW1hZScsICc8aW5maWxlLm1hZT4nLCAnLW9tYWUnLCAnPG91dGZpbGUubWFlPic=

>  <r_epik_Ionization_Penalty>  (309) 
2.07303

>  <r_epik_Ionization_Penalty_Charging>  (309) 
0

>  <r_epik_Ionization_Penalty_Neutral>  (309) 
2.07303

>  <r_epik_State_Penalty>  (309) 
2.20714

>  <r_epik_Charging_Adjusted_Penalty>  (309) 
2.20714

>  <i_epik_Tot_Q>  (309) 
0

>  <i_epik_Tot_abs_Q>  (309) 
0

>  <s_lp_Force_Field>  (309) 
OPLS3e

>  <r_lp_Energy>  (309) 
1134.36

>  <b_lp_Chiralities_Consistent>  (309) 
1

>  <s_lp_Variant>  (309) 
106:0-4

>  <s_i_glide_gridfile>  (309) 
pfpi4k_grid

>  <i_i_glide_lignum>  (309) 
28

>  <i_i_glide_rotatable_bonds>  (309) 
10

>  <r_i_docking_score>  (309) 
-2.20335

>  <r_i_glide_ligand_efficiency>  (309) 
-0.0512407

>  <r_i_glide_ligand_efficiency_sa>  (309) 
-0.179517

>  <r_i_glide_ligand_efficiency_ln>  (309) 
-0.462772

>  <r_i_glide_gscore>  (309) 
-2.20335

>  <r_i_glide_lipo>  (309) 
-0.192108

>  <r_i_glide_hbond>  (309) 
0

>  <r_i_glide_metal>  (309) 
-0

>  <r_i_glide_rewards>  (309) 
0

>  <r_i_glide_evdw>  (309) 
-25.4992

>  <r_i_glide_ecoul>  (309) 
-5.29533

>  <r_i_glide_erotb>  (309) 
0.0580149

>  <r_i_glide_esite>  (309) 
0

>  <r_i_glide_emodel>  (309) 
-30.264

>  <r_i_glide_energy>  (309) 
-30.7945

>  <r_i_glide_einternal>  (309) 
6.23256

>  <r_i_glide_intrahb_reward>  (309) 
-0

>  <i_i_glide_confnum>  (309) 
5

>  <i_i_glide_posenum>  (309) 
14

>  <r_i_glide_eff_state_penalty>  (309) 
0

>  <ligand_id>  (309) 
106

>  <original_smiles>  (309) 
CCN1CC23CC(OC)C4C5(OC)C=CC(C(OC)C2)(C2(O)CC(C)=CC2C5)C42C1C1CC1C(OC)C3C(O)(CO)C2O

>  <smiles>  (309) 
[H]OC([H])([H])C1(O[H])C([H])(O[H])C23C4([H])N(C([H])([H])C([H])([H])[H])C([H])([H])C5(C([H])([H])C([H])(OC([H])([H])[H])C2([H])C2(OC([H])([H])[H])C([H])=C([H])C3(C([H])(OC([H])([H])[H])C5([H])[H])C3(O[H])C([H])([H])C(C([H])([H])[H])=C([H])C3([H])C2([H])[H])C1([H])C([H])(OC([H])([H])[H])C1([H])C([H])([H])C41[H]

$$$$
106:3:2
     RDKit          3D

 94101  0  0  1  0  0  0  0  0999 V2000
    6.0194   -4.9725    1.1663 C   0  0  0  0  0  0  0  0  0  0  0  0
    4.5824   -4.8543    1.7510 C   0  0  0  0  0  0  0  0  0  0  0  0
    4.2748   -5.1470    3.2235 N   0  0  0  0  0  0  0  0  0  0  0  0
    5.1312   -4.3355    4.0093 C   0  0  0  0  0  0  0  0  0  0  0  0
    4.7175   -4.7779    5.4089 C   0  0  1  0  0  0  0  0  0  0  0  0
    5.8575   -6.0356    4.9006 C   0  0  0  0  0  0  0  0  0  0  0  0
    5.7409   -7.2137    3.6906 C   0  0  1  0  0  0  0  0  0  0  0  0
    6.5260   -8.3619    4.0464 O   0  0  0  0  0  0  0  0  0  0  0  0
    7.9431   -8.2197    3.9838 C   0  0  0  0  0  0  0  0  0  0  0  0
    4.4025   -7.5494    2.6838 C   0  0  1  0  0  0  0  0  0  0  0  0
    4.1384   -9.0138    2.1546 C   0  0  1  0  0  0  0  0  0  0  0  0
    4.9099   -9.3450    0.9874 O   0  0  0  0  0  0  0  0  0  0  0  0
    6.3323   -9.3551    1.0866 C   0  0  0  0  0  0  0  0  0  0  0  0
    4.4257   -9.9091    3.2781 C   0  0  0  0  0  0  0  0  0  0  0  0
    3.9116   -9.4769    4.4173 C   0  0  0  0  0  0  0  0  0  0  0  0
    3.0737   -8.1685    4.5518 C   0  0  2  0  0  0  0  0  0  0  0  0
    3.8062   -7.6306    6.0184 C   0  0  1  0  0  0  0  0  0  0  0  0
    4.9376   -8.4182    6.4423 O   0  0  0  0  0  0  0  0  0  0  0  0
    4.9837   -8.8121    7.8128 C   0  0  0  0  0  0  0  0  0  0  0  0
    4.3052   -6.0757    6.4354 C   0  0  0  0  0  0  0  0  0  0  0  0
    1.6634   -8.9460    4.3679 C   0  0  1  0  0  0  0  0  0  0  0  0
    1.4916   -9.8450    5.4456 O   0  0  0  0  0  0  0  0  0  0  0  0
    0.2620   -8.2476    4.3382 C   0  0  0  0  0  0  0  0  0  0  0  0
   -0.5538   -8.9955    3.3219 C   0  0  0  0  0  0  0  0  0  0  0  0
   -2.0342   -8.7327    3.1733 C   0  0  0  0  0  0  0  0  0  0  0  0
    0.2078   -9.8088    2.5911 C   0  0  0  0  0  0  0  0  0  0  0  0
    1.6564   -9.7800    2.9958 C   0  0  1  0  0  0  0  0  0  0  0  0
    2.6159   -9.3005    1.8108 C   0  0  0  0  0  0  0  0  0  0  0  0
    2.9866   -6.9989    3.2386 C   0  0  2  0  0  0  0  0  0  0  0  0
    3.0574   -6.0090    4.1153 C   0  0  1  0  0  0  0  0  0  0  0  0
    1.8590   -5.7544    5.3956 C   0  0  2  0  0  0  0  0  0  0  0  0
    0.4039   -5.3485    5.4586 C   0  0  0  0  0  0  0  0  0  0  0  0
    1.4048   -4.5549    6.2590 C   0  0  2  0  0  0  0  0  0  0  0  0
    2.1722   -3.2576    5.9724 C   0  0  1  0  0  0  0  0  0  0  0  0
    2.6058   -2.6594    7.2038 O   0  0  0  0  0  0  0  0  0  0  0  0
    3.1850   -1.3749    7.0339 C   0  0  0  0  0  0  0  0  0  0  0  0
    3.2996   -3.6529    4.9751 C   0  0  2  0  0  0  0  0  0  0  0  0
    2.2089   -3.8142    3.4707 C   0  0  1  0  0  0  0  0  0  0  0  0
    0.8781   -3.3691    3.5448 O   0  0  0  0  0  0  0  0  0  0  0  0
    2.5133   -2.5438    2.5825 C   0  0  0  0  0  0  0  0  0  0  0  0
    2.5892   -1.3813    3.4062 O   0  0  0  0  0  0  0  0  0  0  0  0
    1.9942   -5.4608    2.6275 C   0  0  1  0  0  0  0  0  0  0  0  0
    1.7438   -5.4505    1.2514 O   0  0  0  0  0  0  0  0  0  0  0  0
    5.9321   -4.6912    0.1196 H   0  0  0  0  0  0  0  0  0  0  0  0
    6.4344   -5.9799    1.0999 H   0  0  0  0  0  0  0  0  0  0  0  0
    6.7193   -4.2745    1.6213 H   0  0  0  0  0  0  0  0  0  0  0  0
    4.3816   -3.8498    1.4416 H   0  0  0  0  0  0  0  0  0  0  0  0
    4.0445   -5.5057    1.0589 H   0  0  0  0  0  0  0  0  0  0  0  0
    6.1571   -4.3291    3.6439 H   0  0  0  0  0  0  0  0  0  0  0  0
    4.9891   -3.2687    3.8183 H   0  0  0  0  0  0  0  0  0  0  0  0
    6.8596   -5.6061    4.8104 H   0  0  0  0  0  0  0  0  0  0  0  0
    6.2803   -6.6190    5.7110 H   0  0  0  0  0  0  0  0  0  0  0  0
    6.4236   -6.7799    2.9814 H   0  0  0  0  0  0  0  0  0  0  0  0
    8.4046   -9.1659    4.2624 H   0  0  0  0  0  0  0  0  0  0  0  0
    8.3203   -7.4538    4.6624 H   0  0  0  0  0  0  0  0  0  0  0  0
    8.2879   -7.9834    2.9752 H   0  0  0  0  0  0  0  0  0  0  0  0
    4.5840   -7.1900    1.6958 H   0  0  0  0  0  0  0  0  0  0  0  0
    6.7608   -9.7405    0.1633 H   0  0  0  0  0  0  0  0  0  0  0  0
    6.6995   -9.9991    1.8847 H   0  0  0  0  0  0  0  0  0  0  0  0
    6.7374   -8.3538    1.2180 H   0  0  0  0  0  0  0  0  0  0  0  0
    4.9698  -10.8275    3.1464 H   0  0  0  0  0  0  0  0  0  0  0  0
    3.9988  -10.1029    5.2874 H   0  0  0  0  0  0  0  0  0  0  0  0
    3.0772   -7.9222    6.7718 H   0  0  0  0  0  0  0  0  0  0  0  0
    5.9236   -9.3259    8.0103 H   0  0  0  0  0  0  0  0  0  0  0  0
    4.1795   -9.5028    8.0686 H   0  0  0  0  0  0  0  0  0  0  0  0
    4.9347   -7.9670    8.4985 H   0  0  0  0  0  0  0  0  0  0  0  0
    5.0890   -6.1508    7.1940 H   0  0  0  0  0  0  0  0  0  0  0  0
    3.5810   -5.7263    7.1699 H   0  0  0  0  0  0  0  0  0  0  0  0
    0.7607  -10.4276    5.2437 H   0  0  0  0  0  0  0  0  0  0  0  0
   -0.2482   -8.2036    5.3049 H   0  0  0  0  0  0  0  0  0  0  0  0
    0.2468   -7.2762    3.8861 H   0  0  0  0  0  0  0  0  0  0  0  0
   -2.5542   -8.9857    4.0952 H   0  0  0  0  0  0  0  0  0  0  0  0
   -2.4836   -9.3192    2.3703 H   0  0  0  0  0  0  0  0  0  0  0  0
   -2.2220   -7.6794    2.9683 H   0  0  0  0  0  0  0  0  0  0  0  0
   -0.1659  -10.4441    1.8038 H   0  0  0  0  0  0  0  0  0  0  0  0
    1.8984  -10.8259    3.2075 H   0  0  0  0  0  0  0  0  0  0  0  0
    2.1773   -8.4593    1.2719 H   0  0  0  0  0  0  0  0  0  0  0  0
    2.6202  -10.1066    1.0799 H   0  0  0  0  0  0  0  0  0  0  0  0
    2.0927   -6.5484    4.1476 H   0  0  0  0  0  0  0  0  0  0  0  0
    1.7511   -6.6306    6.0086 H   0  0  0  0  0  0  0  0  0  0  0  0
   -0.1432   -5.0022    4.6012 H   0  0  0  0  0  0  0  0  0  0  0  0
   -0.2435   -5.9608    6.0914 H   0  0  0  0  0  0  0  0  0  0  0  0
    1.3217   -4.7299    7.3301 H   0  0  0  0  0  0  0  0  0  0  0  0
    1.4707   -2.5233    5.5956 H   0  0  0  0  0  0  0  0  0  0  0  0
    3.4512   -0.9727    8.0110 H   0  0  0  0  0  0  0  0  0  0  0  0
    2.4937   -0.6704    6.5663 H   0  0  0  0  0  0  0  0  0  0  0  0
    4.0958   -1.4277    6.4361 H   0  0  0  0  0  0  0  0  0  0  0  0
    3.4201   -4.0880    5.9338 H   0  0  0  0  0  0  0  0  0  0  0  0
    0.9049   -2.4401    3.7338 H   0  0  0  0  0  0  0  0  0  0  0  0
    3.5197   -2.4252    2.2434 H   0  0  0  0  0  0  0  0  0  0  0  0
    1.8263   -2.4263    1.7143 H   0  0  0  0  0  0  0  0  0  0  0  0
    1.7386   -0.9945    3.5877 H   0  0  0  0  0  0  0  0  0  0  0  0
    0.9515   -5.6918    2.8106 H   0  0  0  0  0  0  0  0  0  0  0  0
    2.5582   -5.3293    0.7874 H   0  0  0  0  0  0  0  0  0  0  0  0
  1  2  1  0
  1 44  1  0
  1 45  1  0
  1 46  1  0
  2  3  1  0
  2 47  1  0
  2 48  1  0
  3 30  1  0
  3  4  1  0
  4  5  1  0
  4 49  1  0
  4 50  1  0
  5 20  1  6
  5 37  1  0
  5  6  1  0
  6  7  1  0
  6 51  1  0
  6 52  1  0
  7  8  1  0
  7 10  1  0
  7 53  1  6
  8  9  1  0
  9 54  1  0
  9 55  1  0
  9 56  1  0
 10 29  1  0
 10 11  1  0
 10 57  1  6
 11 28  1  0
 11 12  1  6
 11 14  1  0
 12 13  1  0
 13 58  1  0
 13 59  1  0
 13 60  1  0
 14 15  2  0
 14 61  1  0
 16 15  1  6
 15 62  1  0
 16 17  1  0
 16 21  1  0
 29 16  1  6
 17 18  1  0
 17 20  1  0
 17 63  1  1
 18 19  1  0
 19 64  1  0
 19 65  1  0
 19 66  1  0
 20 67  1  0
 20 68  1  0
 21 27  1  0
 21 22  1  1
 21 23  1  0
 22 69  1  0
 23 24  1  0
 23 70  1  0
 23 71  1  0
 24 25  1  0
 24 26  2  0
 25 72  1  0
 25 73  1  0
 25 74  1  0
 26 27  1  0
 26 75  1  0
 27 28  1  0
 27 76  1  1
 28 77  1  0
 28 78  1  0
 29 42  1  0
 29 30  1  0
 30 31  1  0
 30 79  1  1
 31 33  1  0
 31 32  1  0
 31 80  1  1
 32 33  1  0
 32 81  1  0
 32 82  1  0
 33 34  1  0
 33 83  1  1
 34 35  1  0
 34 37  1  0
 34 84  1  6
 35 36  1  0
 36 85  1  0
 36 86  1  0
 36 87  1  0
 37 38  1  0
 37 88  1  6
 38 39  1  1
 38 40  1  0
 38 42  1  0
 39 89  1  0
 40 41  1  0
 40 90  1  0
 40 91  1  0
 41 92  1  0
 42 43  1  0
 42 93  1  1
 43 94  1  0
M  END
>  <i_m_ct_stereo_status>  (310) 
1

>  <s_m_source_file>  (310) 
/var/tmp/pbs.5076255.sched01/tmpua_2_py4/114lbcpx7pn.sdf

>  <i_m_source_file_index>  (310) 
28

>  <i_lp_mmshare_version>  (310) 
48012

>  <i_f3d_flags>  (310) 
0

>  <s_epik_input>  (310) 
QzEyM1tDQEhdNFtDQEhdKE9bQ0gzXSlbQ0BASF01W0NAQEhdKFtDSDJdNSlbQ0BASF0oTihbQ0gyXTEpW0NIMl1bQ0gzXSlDNihbQ0BIXShbT0hdKVtDQF00KFtPSF0pW0NIMl1bT0hdKVtDQEBdNyhbQ0BIXShbQ0gyXTMpT1tDSDNdKVtDQF04KFtPSF0pW0NAQEhdKFtDSF09QyhbQ0gyXTgpW0NIM10pW0NIMl1bQ0BdKE9bQ0gzXSkoW0NIXT1bQ0hdNylbQ0BASF02W0NAQEhdKFtDSDJdMilPW0NIM10=

>  <s_epik_cmdline>  (310) 
J2VwaWtfcHl0aG9uJywgJy1waHQnLCAnMi4wJywgJy1waCcsICc3LjAnLCAnLXRuJywgJzgnLCAnLW1hJywgJzIwMCcsICctaW1hZScsICc8aW5maWxlLm1hZT4nLCAnLW9tYWUnLCAnPG91dGZpbGUubWFlPic=

>  <r_epik_Ionization_Penalty>  (310) 
2.07303

>  <r_epik_Ionization_Penalty_Charging>  (310) 
0

>  <r_epik_Ionization_Penalty_Neutral>  (310) 
2.07303

>  <r_epik_State_Penalty>  (310) 
2.20714

>  <r_epik_Charging_Adjusted_Penalty>  (310) 
2.20714

>  <i_epik_Tot_Q>  (310) 
0

>  <i_epik_Tot_abs_Q>  (310) 
0

>  <s_lp_Force_Field>  (310) 
OPLS3e

>  <r_lp_Energy>  (310) 
1134.36

>  <b_lp_Chiralities_Consistent>  (310) 
1

>  <s_lp_Variant>  (310) 
106:0-4

>  <s_i_glide_gridfile>  (310) 
pfpi4k_grid

>  <i_i_glide_lignum>  (310) 
28

>  <i_i_glide_rotatable_bonds>  (310) 
10

>  <r_i_docking_score>  (310) 
-1.62599

>  <r_i_glide_ligand_efficiency>  (310) 
-0.0378138

>  <r_i_glide_ligand_efficiency_sa>  (310) 
-0.132477

>  <r_i_glide_ligand_efficiency_ln>  (310) 
-0.341509

>  <r_i_glide_gscore>  (310) 
-1.62599

>  <r_i_glide_lipo>  (310) 
-0.24034

>  <r_i_glide_hbond>  (310) 
0

>  <r_i_glide_metal>  (310) 
-0

>  <r_i_glide_rewards>  (310) 
0

>  <r_i_glide_evdw>  (310) 
-24.4295

>  <r_i_glide_ecoul>  (310) 
-1.4813

>  <r_i_glide_erotb>  (310) 
0.0580149

>  <r_i_glide_esite>  (310) 
0

>  <r_i_glide_emodel>  (310) 
-23.8936

>  <r_i_glide_energy>  (310) 
-25.9108

>  <r_i_glide_einternal>  (310) 
5.94411

>  <r_i_glide_intrahb_reward>  (310) 
-0

>  <i_i_glide_confnum>  (310) 
5

>  <i_i_glide_posenum>  (310) 
27

>  <r_i_glide_eff_state_penalty>  (310) 
0

>  <ligand_id>  (310) 
106

>  <original_smiles>  (310) 
CCN1CC23CC(OC)C4C5(OC)C=CC(C(OC)C2)(C2(O)CC(C)=CC2C5)C42C1C1CC1C(OC)C3C(O)(CO)C2O

>  <smiles>  (310) 
[H]OC([H])([H])C1(O[H])C([H])(O[H])C23C4([H])N(C([H])([H])C([H])([H])[H])C([H])([H])C5(C([H])([H])C([H])(OC([H])([H])[H])C2([H])C2(OC([H])([H])[H])C([H])=C([H])C3(C([H])(OC([H])([H])[H])C5([H])[H])C3(O[H])C([H])([H])C(C([H])([H])[H])=C([H])C3([H])C2([H])[H])C1([H])C([H])(OC([H])([H])[H])C1([H])C([H])([H])C41[H]

$$$$
106:4:0
     RDKit          3D

 94101  0  0  1  0  0  0  0  0999 V2000
    6.0941   -6.0310    5.4996 C   0  0  0  0  0  0  0  0  0  0  0  0
    4.6793   -5.4455    5.7391 C   0  0  0  0  0  0  0  0  0  0  0  0
    4.5145   -4.0484    5.2978 N   0  0  0  0  0  0  0  0  0  0  0  0
    5.6057   -3.1258    5.6928 C   0  0  0  0  0  0  0  0  0  0  0  0
    4.8042   -1.8609    5.7197 C   0  0  1  0  0  0  0  0  0  0  0  0
    4.0022   -2.3843    7.1953 C   0  0  0  0  0  0  0  0  0  0  0  0
    2.6201   -3.2425    7.3959 C   0  0  1  0  0  0  0  0  0  0  0  0
    2.3368   -3.3348    8.7961 O   0  0  0  0  0  0  0  0  0  0  0  0
    1.6147   -4.4823    9.2202 C   0  0  0  0  0  0  0  0  0  0  0  0
    1.3982   -2.8115    6.4359 C   0  0  1  0  0  0  0  0  0  0  0  0
    0.1959   -2.0631    7.0964 C   0  0  1  0  0  0  0  0  0  0  0  0
   -0.6383   -3.0300    7.7442 O   0  0  0  0  0  0  0  0  0  0  0  0
   -1.5002   -3.8394    6.9471 C   0  0  0  0  0  0  0  0  0  0  0  0
    0.8401   -1.2066    8.1242 C   0  0  0  0  0  0  0  0  0  0  0  0
    1.9085   -0.4979    7.7370 C   0  0  0  0  0  0  0  0  0  0  0  0
    2.3832   -0.4110    6.2259 C   0  0  2  0  0  0  0  0  0  0  0  0
    3.8595    0.3366    6.2899 C   0  0  1  0  0  0  0  0  0  0  0  0
    3.9986    1.1824    7.4430 O   0  0  0  0  0  0  0  0  0  0  0  0
    4.9726    2.2185    7.3928 C   0  0  0  0  0  0  0  0  0  0  0  0
    5.2011   -0.5001    6.2378 C   0  0  0  0  0  0  0  0  0  0  0  0
    1.2203    0.7613    5.8734 C   0  0  1  0  0  0  0  0  0  0  0  0
    1.4043    1.8660    6.7583 O   0  0  0  0  0  0  0  0  0  0  0  0
    1.0937    1.6427    4.5483 C   0  0  0  0  0  0  0  0  0  0  0  0
   -0.3846    1.9069    4.4017 C   0  0  0  0  0  0  0  0  0  0  0  0
   -0.9085    2.8398    3.3418 C   0  0  0  0  0  0  0  0  0  0  0  0
   -1.1039    1.1771    5.2404 C   0  0  0  0  0  0  0  0  0  0  0  0
   -0.2659    0.3488    6.1776 C   0  0  1  0  0  0  0  0  0  0  0  0
   -0.6444   -1.1576    6.1322 C   0  0  0  0  0  0  0  0  0  0  0  0
    2.2053   -2.0278    5.3738 C   0  0  1  0  0  0  0  0  0  0  0  0
    3.1175   -3.5546    4.8446 C   0  0  1  0  0  0  0  0  0  0  0  0
    3.1068   -4.0128    3.3460 C   0  0  2  0  0  0  0  0  0  0  0  0
    4.1083   -4.9660    2.7146 C   0  0  0  0  0  0  0  0  0  0  0  0
    4.1397   -3.5218    2.3512 C   0  0  2  0  0  0  0  0  0  0  0  0
    5.1777   -2.5405    2.8930 C   0  0  1  0  0  0  0  0  0  0  0  0
    5.7291   -1.7942    1.8158 O   0  0  0  0  0  0  0  0  0  0  0  0
    6.5243   -2.5351    0.8966 C   0  0  0  0  0  0  0  0  0  0  0  0
    4.5462   -1.5540    3.9949 C   0  0  1  0  0  0  0  0  0  0  0  0
    3.1335   -1.0177    3.3176 C   0  0  1  0  0  0  0  0  0  0  0  0
    3.3992    0.3571    3.4659 O   0  0  0  0  0  0  0  0  0  0  0  0
    2.9149   -0.8335    1.7573 C   0  0  0  0  0  0  0  0  0  0  0  0
    2.2659   -1.8608    1.0434 O   0  0  0  0  0  0  0  0  0  0  0  0
    1.8038   -1.4930    4.0296 C   0  0  1  0  0  0  0  0  0  0  0  0
    0.9163   -2.3701    3.3874 O   0  0  0  0  0  0  0  0  0  0  0  0
    6.0727   -7.1040    5.6981 H   0  0  0  0  0  0  0  0  0  0  0  0
    6.8336   -5.5917    6.1729 H   0  0  0  0  0  0  0  0  0  0  0  0
    6.4777   -5.9119    4.4821 H   0  0  0  0  0  0  0  0  0  0  0  0
    3.9426   -6.0602    5.2264 H   0  0  0  0  0  0  0  0  0  0  0  0
    4.4569   -5.5244    6.8001 H   0  0  0  0  0  0  0  0  0  0  0  0
    6.0913   -3.4206    6.6249 H   0  0  0  0  0  0  0  0  0  0  0  0
    6.4730   -3.0966    5.0587 H   0  0  0  0  0  0  0  0  0  0  0  0
    4.6770   -2.9735    7.8187 H   0  0  0  0  0  0  0  0  0  0  0  0
    3.9780   -1.5822    7.9262 H   0  0  0  0  0  0  0  0  0  0  0  0
    2.8268   -4.2837    7.1990 H   0  0  0  0  0  0  0  0  0  0  0  0
    1.3551   -4.3390   10.2681 H   0  0  0  0  0  0  0  0  0  0  0  0
    2.2265   -5.3830    9.1544 H   0  0  0  0  0  0  0  0  0  0  0  0
    0.6977   -4.6339    8.6554 H   0  0  0  0  0  0  0  0  0  0  0  0
    0.9338   -3.6830    5.9806 H   0  0  0  0  0  0  0  0  0  0  0  0
   -1.8624   -4.6607    7.5686 H   0  0  0  0  0  0  0  0  0  0  0  0
   -0.9787   -4.2792    6.1013 H   0  0  0  0  0  0  0  0  0  0  0  0
   -2.3786   -3.3091    6.5638 H   0  0  0  0  0  0  0  0  0  0  0  0
    0.4849   -1.2419    9.1408 H   0  0  0  0  0  0  0  0  0  0  0  0
    2.4032    0.0779    8.5076 H   0  0  0  0  0  0  0  0  0  0  0  0
    3.9012    1.0843    5.5101 H   0  0  0  0  0  0  0  0  0  0  0  0
    4.9460    2.7731    8.3336 H   0  0  0  0  0  0  0  0  0  0  0  0
    4.7581    2.9226    6.5858 H   0  0  0  0  0  0  0  0  0  0  0  0
    5.9885    1.8341    7.2706 H   0  0  0  0  0  0  0  0  0  0  0  0
    5.6624   -0.5855    7.2221 H   0  0  0  0  0  0  0  0  0  0  0  0
    5.9510   -0.0006    5.6277 H   0  0  0  0  0  0  0  0  0  0  0  0
    2.2785    2.2092    6.6118 H   0  0  0  0  0  0  0  0  0  0  0  0
    1.6551    2.5735    4.5680 H   0  0  0  0  0  0  0  0  0  0  0  0
    1.2710    1.1965    3.5804 H   0  0  0  0  0  0  0  0  0  0  0  0
   -0.5631    2.5102    2.3659 H   0  0  0  0  0  0  0  0  0  0  0  0
   -0.5425    3.8446    3.5332 H   0  0  0  0  0  0  0  0  0  0  0  0
   -1.9995    2.8467    3.3479 H   0  0  0  0  0  0  0  0  0  0  0  0
   -2.1892    1.1647    5.2933 H   0  0  0  0  0  0  0  0  0  0  0  0
   -0.5545    0.7177    7.1602 H   0  0  0  0  0  0  0  0  0  0  0  0
   -0.6606   -1.5577    5.1222 H   0  0  0  0  0  0  0  0  0  0  0  0
   -1.7061   -1.1839    6.3901 H   0  0  0  0  0  0  0  0  0  0  0  0
    2.5311   -4.4133    5.1893 H   0  0  0  0  0  0  0  0  0  0  0  0
    2.0991   -4.2298    2.9905 H   0  0  0  0  0  0  0  0  0  0  0  0
    5.0181   -5.3374    3.1550 H   0  0  0  0  0  0  0  0  0  0  0  0
    3.7058   -5.6298    1.9619 H   0  0  0  0  0  0  0  0  0  0  0  0
    3.8672   -3.3973    1.3109 H   0  0  0  0  0  0  0  0  0  0  0  0
    6.0243   -3.1217    3.2240 H   0  0  0  0  0  0  0  0  0  0  0  0
    6.8264   -1.8790    0.0808 H   0  0  0  0  0  0  0  0  0  0  0  0
    5.9700   -3.3570    0.4491 H   0  0  0  0  0  0  0  0  0  0  0  0
    7.4273   -2.9541    1.3427 H   0  0  0  0  0  0  0  0  0  0  0  0
    5.2704   -0.7524    3.8169 H   0  0  0  0  0  0  0  0  0  0  0  0
    2.7400    0.8534    3.0003 H   0  0  0  0  0  0  0  0  0  0  0  0
    2.2615    0.0097    1.5548 H   0  0  0  0  0  0  0  0  0  0  0  0
    3.8053   -0.5831    1.2049 H   0  0  0  0  0  0  0  0  0  0  0  0
    1.9015   -1.4724    0.2233 H   0  0  0  0  0  0  0  0  0  0  0  0
    1.0886   -0.7112    4.0658 H   0  0  0  0  0  0  0  0  0  0  0  0
    0.8659   -2.0884    2.4612 H   0  0  0  0  0  0  0  0  0  0  0  0
  1  2  1  0
  1 44  1  0
  1 45  1  0
  1 46  1  0
  2  3  1  0
  2 47  1  0
  2 48  1  0
  3 30  1  0
  3  4  1  0
  4  5  1  0
  4 49  1  0
  4 50  1  0
  5 20  1  1
  5 37  1  0
  5  6  1  0
  6  7  1  0
  6 51  1  0
  6 52  1  0
  7  8  1  0
  7 10  1  0
  7 53  1  6
  8  9  1  0
  9 54  1  0
  9 55  1  0
  9 56  1  0
 10 29  1  0
 10 11  1  0
 10 57  1  6
 11 28  1  0
 11 12  1  1
 11 14  1  0
 12 13  1  0
 13 58  1  0
 13 59  1  0
 13 60  1  0
 14 15  2  0
 14 61  1  0
 16 15  1  1
 15 62  1  0
 16 17  1  0
 16 21  1  0
 29 16  1  1
 17 18  1  0
 17 20  1  0
 17 63  1  6
 18 19  1  0
 19 64  1  0
 19 65  1  0
 19 66  1  0
 20 67  1  0
 20 68  1  0
 21 27  1  0
 21 22  1  1
 21 23  1  0
 22 69  1  0
 23 24  1  0
 23 70  1  0
 23 71  1  0
 24 25  1  0
 24 26  2  0
 25 72  1  0
 25 73  1  0
 25 74  1  0
 26 27  1  0
 26 75  1  0
 27 28  1  0
 27 76  1  1
 28 77  1  0
 28 78  1  0
 29 42  1  0
 29 30  1  0
 30 31  1  0
 30 79  1  1
 31 33  1  0
 31 32  1  0
 31 80  1  6
 32 33  1  0
 32 81  1  0
 32 82  1  0
 33 34  1  0
 33 83  1  6
 34 35  1  0
 34 37  1  0
 34 84  1  1
 35 36  1  0
 36 85  1  0
 36 86  1  0
 36 87  1  0
 37 38  1  0
 37 88  1  6
 38 39  1  1
 38 40  1  0
 38 42  1  0
 39 89  1  0
 40 41  1  0
 40 90  1  0
 40 91  1  0
 41 92  1  0
 42 43  1  0
 42 93  1  1
 43 94  1  0
M  END
>  <i_m_ct_stereo_status>  (311) 
1

>  <s_m_source_file>  (311) 
/var/tmp/pbs.5076255.sched01/tmpua_2_py4/114lbcpx7pn.sdf

>  <i_m_source_file_index>  (311) 
29

>  <i_lp_mmshare_version>  (311) 
48012

>  <i_f3d_flags>  (311) 
0

>  <s_epik_input>  (311) 
QzEyM1tDQEhdNFtDQEhdKE9bQ0gzXSlbQ0BASF01W0NAQEhdKFtDSDJdNSlbQ0BASF0oTihbQ0gyXTEpW0NIMl1bQ0gzXSlDNihbQ0BIXShbT0hdKVtDQF00KFtPSF0pW0NIMl1bT0hdKVtDQEBdNyhbQ0BIXShbQ0gyXTMpT1tDSDNdKVtDQF04KFtPSF0pW0NAQEhdKFtDSF09QyhbQ0gyXTgpW0NIM10pW0NIMl1bQ0BdKE9bQ0gzXSkoW0NIXT1bQ0hdNylbQ0BASF02W0NAQEhdKFtDSDJdMilPW0NIM10=

>  <s_epik_cmdline>  (311) 
J2VwaWtfcHl0aG9uJywgJy1waHQnLCAnMi4wJywgJy1waCcsICc3LjAnLCAnLXRuJywgJzgnLCAnLW1hJywgJzIwMCcsICctaW1hZScsICc8aW5maWxlLm1hZT4nLCAnLW9tYWUnLCAnPG91dGZpbGUubWFlPic=

>  <r_epik_Ionization_Penalty>  (311) 
2.07303

>  <r_epik_Ionization_Penalty_Charging>  (311) 
0

>  <r_epik_Ionization_Penalty_Neutral>  (311) 
2.07303

>  <r_epik_State_Penalty>  (311) 
2.20714

>  <r_epik_Charging_Adjusted_Penalty>  (311) 
2.20714

>  <i_epik_Tot_Q>  (311) 
0

>  <i_epik_Tot_abs_Q>  (311) 
0

>  <s_lp_Force_Field>  (311) 
OPLS3e

>  <r_lp_Energy>  (311) 
495.811

>  <b_lp_Chiralities_Consistent>  (311) 
1

>  <s_lp_Variant>  (311) 
106:0-5

>  <s_i_glide_gridfile>  (311) 
pfpi4k_grid

>  <i_i_glide_lignum>  (311) 
29

>  <i_i_glide_rotatable_bonds>  (311) 
10

>  <r_i_docking_score>  (311) 
-2.34219

>  <r_i_glide_ligand_efficiency>  (311) 
-0.0544695

>  <r_i_glide_ligand_efficiency_sa>  (311) 
-0.190828

>  <r_i_glide_ligand_efficiency_ln>  (311) 
-0.491933

>  <r_i_glide_gscore>  (311) 
-2.34219

>  <r_i_glide_lipo>  (311) 
-0.206359

>  <r_i_glide_hbond>  (311) 
-0.0840702

>  <r_i_glide_metal>  (311) 
-0

>  <r_i_glide_rewards>  (311) 
-0.5

>  <r_i_glide_evdw>  (311) 
-15.6234

>  <r_i_glide_ecoul>  (311) 
-5.52403

>  <r_i_glide_erotb>  (311) 
0.0580149

>  <r_i_glide_esite>  (311) 
0

>  <r_i_glide_emodel>  (311) 
-25.9747

>  <r_i_glide_energy>  (311) 
-21.1474

>  <r_i_glide_einternal>  (311) 
6.62327

>  <r_i_glide_intrahb_reward>  (311) 
-0.5

>  <i_i_glide_confnum>  (311) 
6

>  <i_i_glide_posenum>  (311) 
8

>  <r_i_glide_eff_state_penalty>  (311) 
0

>  <ligand_id>  (311) 
106

>  <original_smiles>  (311) 
CCN1CC23CC(OC)C4C5(OC)C=CC(C(OC)C2)(C2(O)CC(C)=CC2C5)C42C1C1CC1C(OC)C3C(O)(CO)C2O

>  <smiles>  (311) 
[H]OC([H])([H])C1(O[H])C([H])(O[H])C23C4([H])N(C([H])([H])C([H])([H])[H])C([H])([H])C5(C([H])([H])C([H])(OC([H])([H])[H])C2([H])C2(OC([H])([H])[H])C([H])=C([H])C3(C([H])(OC([H])([H])[H])C5([H])[H])C3(O[H])C([H])([H])C(C([H])([H])[H])=C([H])C3([H])C2([H])[H])C1([H])C([H])(OC([H])([H])[H])C1([H])C([H])([H])C41[H]

$$$$
106:4:1
     RDKit          3D

 94101  0  0  1  0  0  0  0  0999 V2000
    6.2385   -6.5012    6.3347 C   0  0  0  0  0  0  0  0  0  0  0  0
    4.8233   -5.8729    6.4506 C   0  0  0  0  0  0  0  0  0  0  0  0
    4.6232   -4.6271    5.7037 N   0  0  0  0  0  0  0  0  0  0  0  0
    5.6807   -3.6010    5.8797 C   0  0  0  0  0  0  0  0  0  0  0  0
    4.8354   -2.3915    5.6208 C   0  0  1  0  0  0  0  0  0  0  0  0
    4.0251   -2.5955    7.1636 C   0  0  0  0  0  0  0  0  0  0  0  0
    2.6633   -3.4263    7.5394 C   0  0  1  0  0  0  0  0  0  0  0  0
    2.3723   -3.1978    8.9244 O   0  0  0  0  0  0  0  0  0  0  0  0
    1.6794   -4.2333    9.6171 C   0  0  0  0  0  0  0  0  0  0  0  0
    1.4409   -3.2680    6.5023 C   0  0  1  0  0  0  0  0  0  0  0  0
    0.2061   -2.4221    6.9746 C   0  0  1  0  0  0  0  0  0  0  0  0
   -0.6569   -3.1844    7.8230 O   0  0  0  0  0  0  0  0  0  0  0  0
   -1.4708   -4.2086    7.2339 C   0  0  0  0  0  0  0  0  0  0  0  0
    0.8047   -1.3272    7.7785 C   0  0  0  0  0  0  0  0  0  0  0  0
    1.8510   -0.6998    7.2478 C   0  0  0  0  0  0  0  0  0  0  0  0
    2.3599   -0.9604    5.7740 C   0  0  2  0  0  0  0  0  0  0  0  0
    3.8016   -0.1566    5.6848 C   0  0  1  0  0  0  0  0  0  0  0  0
    3.8996    0.9369    6.6107 O   0  0  0  0  0  0  0  0  0  0  0  0
    4.7632    2.0172    6.2566 C   0  0  0  0  0  0  0  0  0  0  0  0
    5.1665   -0.9310    5.8192 C   0  0  0  0  0  0  0  0  0  0  0  0
    1.1652    0.0502    5.1425 C   0  0  1  0  0  0  0  0  0  0  0  0
    1.2862    1.3380    5.7418 O   0  0  0  0  0  0  0  0  0  0  0  0
    1.0020    0.6105    3.6610 C   0  0  0  0  0  0  0  0  0  0  0  0
   -0.4770    0.7946    3.4482 C   0  0  0  0  0  0  0  0  0  0  0  0
   -1.0063    1.4296    2.1939 C   0  0  0  0  0  0  0  0  0  0  0  0
   -1.1906    0.2373    4.4364 C   0  0  0  0  0  0  0  0  0  0  0  0
   -0.3254   -0.3108    5.5299 C   0  0  1  0  0  0  0  0  0  0  0  0
   -0.6536   -1.7907    5.8407 C   0  0  0  0  0  0  0  0  0  0  0  0
    2.2486   -2.7319    5.2991 C   0  0  1  0  0  0  0  0  0  0  0  0
    3.2122   -4.2913    5.1498 C   0  0  1  0  0  0  0  0  0  0  0  0
    3.2309   -5.1076    3.8122 C   0  0  2  0  0  0  0  0  0  0  0  0
    4.2440   -6.1297    3.3774 C   0  0  0  0  0  0  0  0  0  0  0  0
    4.2334   -4.8069    2.7244 C   0  0  2  0  0  0  0  0  0  0  0  0
    5.2401   -3.7052    3.0376 C   0  0  1  0  0  0  0  0  0  0  0  0
    5.8333   -3.2055    1.8444 O   0  0  0  0  0  0  0  0  0  0  0  0
    6.6703   -4.1074    1.1325 C   0  0  0  0  0  0  0  0  0  0  0  0
    4.5966   -2.4856    3.8621 C   0  0  1  0  0  0  0  0  0  0  0  0
    3.2037   -2.1059    3.0802 C   0  0  1  0  0  0  0  0  0  0  0  0
    3.3491   -0.7255    2.9479 O   0  0  0  0  0  0  0  0  0  0  0  0
    2.9603   -2.3157    1.5260 C   0  0  0  0  0  0  0  0  0  0  0  0
    3.8893   -1.7227    0.6320 O   0  0  0  0  0  0  0  0  0  0  0  0
    1.8704   -2.5306    3.8423 C   0  0  1  0  0  0  0  0  0  0  0  0
    1.0440   -3.5453    3.3254 O   0  0  0  0  0  0  0  0  0  0  0  0
    6.2363   -7.4911    6.7878 H   0  0  0  0  0  0  0  0  0  0  0  0
    6.9910   -5.9083    6.8498 H   0  0  0  0  0  0  0  0  0  0  0  0
    6.6154   -6.6502    5.3212 H   0  0  0  0  0  0  0  0  0  0  0  0
    4.0805   -6.6088    6.1407 H   0  0  0  0  0  0  0  0  0  0  0  0
    4.6350   -5.6961    7.5106 H   0  0  0  0  0  0  0  0  0  0  0  0
    6.1519   -3.6667    6.8604 H   0  0  0  0  0  0  0  0  0  0  0  0
    6.5664   -3.6878    5.2670 H   0  0  0  0  0  0  0  0  0  0  0  0
    4.7109   -2.9942    7.9071 H   0  0  0  0  0  0  0  0  0  0  0  0
    3.9709   -1.6555    7.6933 H   0  0  0  0  0  0  0  0  0  0  0  0
    2.9194   -4.4745    7.6056 H   0  0  0  0  0  0  0  0  0  0  0  0
    1.3855   -3.8658   10.5972 H   0  0  0  0  0  0  0  0  0  0  0  0
    2.2973   -5.1166    9.7597 H   0  0  0  0  0  0  0  0  0  0  0  0
    0.7775   -4.5553    9.1093 H   0  0  0  0  0  0  0  0  0  0  0  0
    1.0217   -4.2414    6.2791 H   0  0  0  0  0  0  0  0  0  0  0  0
   -1.7891   -4.9085    8.0081 H   0  0  0  0  0  0  0  0  0  0  0  0
   -0.9566   -4.7939    6.4720 H   0  0  0  0  0  0  0  0  0  0  0  0
   -2.3790   -3.8073    6.7785 H   0  0  0  0  0  0  0  0  0  0  0  0
    0.4560   -1.1395    8.7828 H   0  0  0  0  0  0  0  0  0  0  0  0
    2.3305    0.0496    7.8587 H   0  0  0  0  0  0  0  0  0  0  0  0
    3.8418    0.4256    4.7722 H   0  0  0  0  0  0  0  0  0  0  0  0
    4.7262    2.7714    7.0435 H   0  0  0  0  0  0  0  0  0  0  0  0
    4.4462    2.5008    5.3291 H   0  0  0  0  0  0  0  0  0  0  0  0
    5.8030    1.7010    6.1505 H   0  0  0  0  0  0  0  0  0  0  0  0
    5.6319   -0.7611    6.7938 H   0  0  0  0  0  0  0  0  0  0  0  0
    5.9058   -0.5496    5.1125 H   0  0  0  0  0  0  0  0  0  0  0  0
    2.1308    1.6950    5.4961 H   0  0  0  0  0  0  0  0  0  0  0  0
    1.5368    1.5402    3.4517 H   0  0  0  0  0  0  0  0  0  0  0  0
    1.1583   -0.0468    2.8175 H   0  0  0  0  0  0  0  0  0  0  0  0
   -0.6249    0.9078    1.3130 H   0  0  0  0  0  0  0  0  0  0  0  0
   -0.6711    2.4673    2.1377 H   0  0  0  0  0  0  0  0  0  0  0  0
   -2.0994    1.4165    2.1579 H   0  0  0  0  0  0  0  0  0  0  0  0
   -2.2704    0.2145    4.4738 H   0  0  0  0  0  0  0  0  0  0  0  0
   -0.6435    0.2695    6.4030 H   0  0  0  0  0  0  0  0  0  0  0  0
   -0.6493   -2.4250    4.9557 H   0  0  0  0  0  0  0  0  0  0  0  0
   -1.6924   -1.7623    6.1589 H   0  0  0  0  0  0  0  0  0  0  0  0
    2.6512   -5.0571    5.6743 H   0  0  0  0  0  0  0  0  0  0  0  0
    2.2495   -5.4955    3.5325 H   0  0  0  0  0  0  0  0  0  0  0  0
    5.1729   -6.3389    3.8669 H   0  0  0  0  0  0  0  0  0  0  0  0
    3.8686   -6.9575    2.7814 H   0  0  0  0  0  0  0  0  0  0  0  0
    4.0049   -4.9533    1.6797 H   0  0  0  0  0  0  0  0  0  0  0  0
    6.0771   -4.1947    3.5027 H   0  0  0  0  0  0  0  0  0  0  0  0
    6.9496   -3.6572    0.1819 H   0  0  0  0  0  0  0  0  0  0  0  0
    6.1803   -5.0534    0.9034 H   0  0  0  0  0  0  0  0  0  0  0  0
    7.5871   -4.3202    1.6820 H   0  0  0  0  0  0  0  0  0  0  0  0
    5.3026   -1.7266    3.5124 H   0  0  0  0  0  0  0  0  0  0  0  0
    2.7339   -0.4149    2.2811 H   0  0  0  0  0  0  0  0  0  0  0  0
    2.7873   -3.3420    1.2317 H   0  0  0  0  0  0  0  0  0  0  0  0
    1.9981   -1.8583    1.2900 H   0  0  0  0  0  0  0  0  0  0  0  0
    3.5509   -1.7640   -0.2647 H   0  0  0  0  0  0  0  0  0  0  0  0
    1.0981   -1.8152    3.7147 H   0  0  0  0  0  0  0  0  0  0  0  0
    0.7717   -3.2747    2.4427 H   0  0  0  0  0  0  0  0  0  0  0  0
  1  2  1  0
  1 44  1  0
  1 45  1  0
  1 46  1  0
  2  3  1  0
  2 47  1  0
  2 48  1  0
  3 30  1  0
  3  4  1  0
  4  5  1  0
  4 49  1  0
  4 50  1  0
  5 20  1  6
  5 37  1  0
  5  6  1  0
  6  7  1  0
  6 51  1  0
  6 52  1  0
  7  8  1  0
  7 10  1  0
  7 53  1  1
  8  9  1  0
  9 54  1  0
  9 55  1  0
  9 56  1  0
 10 29  1  0
 10 11  1  0
 10 57  1  6
 11 28  1  0
 11 12  1  1
 11 14  1  0
 12 13  1  0
 13 58  1  0
 13 59  1  0
 13 60  1  0
 14 15  2  0
 14 61  1  0
 16 15  1  1
 15 62  1  0
 16 17  1  0
 16 21  1  0
 29 16  1  1
 17 18  1  0
 17 20  1  0
 17 63  1  6
 18 19  1  0
 19 64  1  0
 19 65  1  0
 19 66  1  0
 20 67  1  0
 20 68  1  0
 21 27  1  0
 21 22  1  1
 21 23  1  0
 22 69  1  0
 23 24  1  0
 23 70  1  0
 23 71  1  0
 24 25  1  0
 24 26  2  0
 25 72  1  0
 25 73  1  0
 25 74  1  0
 26 27  1  0
 26 75  1  0
 27 28  1  0
 27 76  1  1
 28 77  1  0
 28 78  1  0
 29 42  1  0
 29 30  1  0
 30 31  1  0
 30 79  1  1
 31 33  1  0
 31 32  1  0
 31 80  1  6
 32 33  1  0
 32 81  1  0
 32 82  1  0
 33 34  1  0
 33 83  1  6
 34 35  1  0
 34 37  1  0
 34 84  1  1
 35 36  1  0
 36 85  1  0
 36 86  1  0
 36 87  1  0
 37 38  1  0
 37 88  1  6
 38 39  1  6
 38 40  1  0
 38 42  1  0
 39 89  1  0
 40 41  1  0
 40 90  1  0
 40 91  1  0
 41 92  1  0
 42 43  1  0
 42 93  1  1
 43 94  1  0
M  END
>  <i_m_ct_stereo_status>  (312) 
1

>  <s_m_source_file>  (312) 
/var/tmp/pbs.5076255.sched01/tmpua_2_py4/114lbcpx7pn.sdf

>  <i_m_source_file_index>  (312) 
29

>  <i_lp_mmshare_version>  (312) 
48012

>  <i_f3d_flags>  (312) 
0

>  <s_epik_input>  (312) 
QzEyM1tDQEhdNFtDQEhdKE9bQ0gzXSlbQ0BASF01W0NAQEhdKFtDSDJdNSlbQ0BASF0oTihbQ0gyXTEpW0NIMl1bQ0gzXSlDNihbQ0BIXShbT0hdKVtDQF00KFtPSF0pW0NIMl1bT0hdKVtDQEBdNyhbQ0BIXShbQ0gyXTMpT1tDSDNdKVtDQF04KFtPSF0pW0NAQEhdKFtDSF09QyhbQ0gyXTgpW0NIM10pW0NIMl1bQ0BdKE9bQ0gzXSkoW0NIXT1bQ0hdNylbQ0BASF02W0NAQEhdKFtDSDJdMilPW0NIM10=

>  <s_epik_cmdline>  (312) 
J2VwaWtfcHl0aG9uJywgJy1waHQnLCAnMi4wJywgJy1waCcsICc3LjAnLCAnLXRuJywgJzgnLCAnLW1hJywgJzIwMCcsICctaW1hZScsICc8aW5maWxlLm1hZT4nLCAnLW9tYWUnLCAnPG91dGZpbGUubWFlPic=

>  <r_epik_Ionization_Penalty>  (312) 
2.07303

>  <r_epik_Ionization_Penalty_Charging>  (312) 
0

>  <r_epik_Ionization_Penalty_Neutral>  (312) 
2.07303

>  <r_epik_State_Penalty>  (312) 
2.20714

>  <r_epik_Charging_Adjusted_Penalty>  (312) 
2.20714

>  <i_epik_Tot_Q>  (312) 
0

>  <i_epik_Tot_abs_Q>  (312) 
0

>  <s_lp_Force_Field>  (312) 
OPLS3e

>  <r_lp_Energy>  (312) 
495.811

>  <b_lp_Chiralities_Consistent>  (312) 
1

>  <s_lp_Variant>  (312) 
106:0-5

>  <s_i_glide_gridfile>  (312) 
pfpi4k_grid

>  <i_i_glide_lignum>  (312) 
29

>  <i_i_glide_rotatable_bonds>  (312) 
10

>  <r_i_docking_score>  (312) 
-2.25539

>  <r_i_glide_ligand_efficiency>  (312) 
-0.052451

>  <r_i_glide_ligand_efficiency_sa>  (312) 
-0.183757

>  <r_i_glide_ligand_efficiency_ln>  (312) 
-0.473703

>  <r_i_glide_gscore>  (312) 
-2.25539

>  <r_i_glide_lipo>  (312) 
-0.233152

>  <r_i_glide_hbond>  (312) 
-0.0788137

>  <r_i_glide_metal>  (312) 
-0

>  <r_i_glide_rewards>  (312) 
0

>  <r_i_glide_evdw>  (312) 
-21.2995

>  <r_i_glide_ecoul>  (312) 
-6.24311

>  <r_i_glide_erotb>  (312) 
0.0580149

>  <r_i_glide_esite>  (312) 
0

>  <r_i_glide_emodel>  (312) 
-26.5592

>  <r_i_glide_energy>  (312) 
-27.5426

>  <r_i_glide_einternal>  (312) 
8.31164

>  <r_i_glide_intrahb_reward>  (312) 
-0

>  <i_i_glide_confnum>  (312) 
2

>  <i_i_glide_posenum>  (312) 
33

>  <r_i_glide_eff_state_penalty>  (312) 
0

>  <ligand_id>  (312) 
106

>  <original_smiles>  (312) 
CCN1CC23CC(OC)C4C5(OC)C=CC(C(OC)C2)(C2(O)CC(C)=CC2C5)C42C1C1CC1C(OC)C3C(O)(CO)C2O

>  <smiles>  (312) 
[H]OC([H])([H])C1(O[H])C([H])(O[H])C23C4([H])N(C([H])([H])C([H])([H])[H])C([H])([H])C5(C([H])([H])C([H])(OC([H])([H])[H])C2([H])C2(OC([H])([H])[H])C([H])=C([H])C3(C([H])(OC([H])([H])[H])C5([H])[H])C3(O[H])C([H])([H])C(C([H])([H])[H])=C([H])C3([H])C2([H])[H])C1([H])C([H])(OC([H])([H])[H])C1([H])C([H])([H])C41[H]

$$$$
106:4:2
     RDKit          3D

 94101  0  0  1  0  0  0  0  0999 V2000
    8.6691   -5.7732    6.7093 C   0  0  0  0  0  0  0  0  0  0  0  0
    7.6786   -5.7197    5.5203 C   0  0  0  0  0  0  0  0  0  0  0  0
    6.4035   -6.4219    5.7502 N   0  0  0  0  0  0  0  0  0  0  0  0
    6.5094   -7.7754    6.3549 C   0  0  0  0  0  0  0  0  0  0  0  0
    5.2589   -8.3639    5.7742 C   0  0  1  0  0  0  0  0  0  0  0  0
    5.9850   -8.4199    4.1716 C   0  0  0  0  0  0  0  0  0  0  0  0
    5.9856   -7.2831    2.9751 C   0  0  1  0  0  0  0  0  0  0  0  0
    6.6354   -7.7553    1.7983 O   0  0  0  0  0  0  0  0  0  0  0  0
    8.0575   -7.8323    1.8337 C   0  0  0  0  0  0  0  0  0  0  0  0
    4.5787   -6.5571    2.7228 C   0  0  1  0  0  0  0  0  0  0  0  0
    3.8215   -6.9212    1.3988 C   0  0  1  0  0  0  0  0  0  0  0  0
    4.4216   -6.1887    0.3291 O   0  0  0  0  0  0  0  0  0  0  0  0
    4.0753   -4.8200    0.1467 C   0  0  0  0  0  0  0  0  0  0  0  0
    4.0684   -8.3758    1.2336 C   0  0  0  0  0  0  0  0  0  0  0  0
    3.9140   -9.1408    2.3178 C   0  0  0  0  0  0  0  0  0  0  0  0
    3.2931   -8.5971    3.6846 C   0  0  2  0  0  0  0  0  0  0  0  0
    3.5625   -9.8250    4.7727 C   0  0  1  0  0  0  0  0  0  0  0  0
    3.6788  -11.1060    4.1445 O   0  0  0  0  0  0  0  0  0  0  0  0
    3.3284  -12.2464    4.9226 C   0  0  0  0  0  0  0  0  0  0  0  0
    4.7746   -9.7836    5.7686 C   0  0  0  0  0  0  0  0  0  0  0  0
    1.7207   -8.7201    3.1051 C   0  0  1  0  0  0  0  0  0  0  0  0
    1.5054  -10.0834    2.7059 O   0  0  0  0  0  0  0  0  0  0  0  0
    0.3698   -8.5997    3.9117 C   0  0  0  0  0  0  0  0  0  0  0  0
   -0.6327   -8.0469    2.9231 C   0  0  0  0  0  0  0  0  0  0  0  0
   -2.1007   -7.9284    3.2807 C   0  0  0  0  0  0  0  0  0  0  0  0
   -0.0512   -7.6446    1.8016 C   0  0  0  0  0  0  0  0  0  0  0  0
    1.4240   -7.9271    1.7874 C   0  0  1  0  0  0  0  0  0  0  0  0
    2.2789   -6.6810    1.4314 C   0  0  0  0  0  0  0  0  0  0  0  0
    3.8915   -6.8932    4.0617 C   0  0  1  0  0  0  0  0  0  0  0  0
    5.1266   -5.9106    5.0348 C   0  0  1  0  0  0  0  0  0  0  0  0
    4.6567   -4.7811    6.0234 C   0  0  2  0  0  0  0  0  0  0  0  0
    5.4965   -4.1923    7.1450 C   0  0  0  0  0  0  0  0  0  0  0  0
    4.3175   -5.0786    7.4578 C   0  0  2  0  0  0  0  0  0  0  0  0
    4.4425   -6.5408    7.8999 C   0  0  1  0  0  0  0  0  0  0  0  0
    3.6161   -6.6679    9.0490 O   0  0  0  0  0  0  0  0  0  0  0  0
    3.9637   -7.7177    9.9429 C   0  0  0  0  0  0  0  0  0  0  0  0
    4.0046   -7.5426    6.7300 C   0  0  1  0  0  0  0  0  0  0  0  0
    2.5726   -6.9347    6.1435 C   0  0  1  0  0  0  0  0  0  0  0  0
    1.8119   -8.0982    6.2822 O   0  0  0  0  0  0  0  0  0  0  0  0
    1.5381   -6.1297    7.0428 C   0  0  0  0  0  0  0  0  0  0  0  0
    1.6371   -4.6856    7.0396 O   0  0  0  0  0  0  0  0  0  0  0  0
    2.6165   -6.3666    4.6514 C   0  0  1  0  0  0  0  0  0  0  0  0
    2.4745   -4.9977    4.3518 O   0  0  0  0  0  0  0  0  0  0  0  0
    9.5046   -5.0996    6.5229 H   0  0  0  0  0  0  0  0  0  0  0  0
    9.0804   -6.7739    6.8495 H   0  0  0  0  0  0  0  0  0  0  0  0
    8.2493   -5.4740    7.6735 H   0  0  0  0  0  0  0  0  0  0  0  0
    7.4660   -4.6784    5.2850 H   0  0  0  0  0  0  0  0  0  0  0  0
    8.1790   -6.1308    4.6472 H   0  0  0  0  0  0  0  0  0  0  0  0
    7.4416   -8.2648    6.0909 H   0  0  0  0  0  0  0  0  0  0  0  0
    6.5761   -7.8446    7.4296 H   0  0  0  0  0  0  0  0  0  0  0  0
    7.0443   -8.6386    4.2648 H   0  0  0  0  0  0  0  0  0  0  0  0
    5.7983   -9.3642    3.6984 H   0  0  0  0  0  0  0  0  0  0  0  0
    6.6699   -6.4888    3.2191 H   0  0  0  0  0  0  0  0  0  0  0  0
    8.4220   -8.1443    0.8567 H   0  0  0  0  0  0  0  0  0  0  0  0
    8.4237   -8.5581    2.5650 H   0  0  0  0  0  0  0  0  0  0  0  0
    8.5119   -6.8693    2.0520 H   0  0  0  0  0  0  0  0  0  0  0  0
    4.7305   -5.4842    2.6377 H   0  0  0  0  0  0  0  0  0  0  0  0
    4.7735   -4.3471   -0.5441 H   0  0  0  0  0  0  0  0  0  0  0  0
    4.1001   -4.2480    1.0724 H   0  0  0  0  0  0  0  0  0  0  0  0
    3.0824   -4.6965   -0.2855 H   0  0  0  0  0  0  0  0  0  0  0  0
    4.4346   -8.7415    0.2963 H   0  0  0  0  0  0  0  0  0  0  0  0
    4.1239  -10.1867    2.1916 H   0  0  0  0  0  0  0  0  0  0  0  0
    2.6444   -9.9616    5.3333 H   0  0  0  0  0  0  0  0  0  0  0  0
    3.4260  -13.1358    4.3046 H   0  0  0  0  0  0  0  0  0  0  0  0
    2.2943  -12.2013    5.2706 H   0  0  0  0  0  0  0  0  0  0  0  0
    3.9845  -12.3764    5.7834 H   0  0  0  0  0  0  0  0  0  0  0  0
    5.5664  -10.4585    5.4580 H   0  0  0  0  0  0  0  0  0  0  0  0
    4.4887  -10.1599    6.7410 H   0  0  0  0  0  0  0  0  0  0  0  0
    0.6878  -10.1063    2.2339 H   0  0  0  0  0  0  0  0  0  0  0  0
    0.0032   -9.5337    4.3588 H   0  0  0  0  0  0  0  0  0  0  0  0
    0.2522   -7.8410    4.6658 H   0  0  0  0  0  0  0  0  0  0  0  0
   -2.2015   -7.3235    4.1763 H   0  0  0  0  0  0  0  0  0  0  0  0
   -2.5136   -8.9140    3.4732 H   0  0  0  0  0  0  0  0  0  0  0  0
   -2.6560   -7.4589    2.4749 H   0  0  0  0  0  0  0  0  0  0  0  0
   -0.5625   -7.2061    0.9559 H   0  0  0  0  0  0  0  0  0  0  0  0
    1.5298   -8.6144    0.9588 H   0  0  0  0  0  0  0  0  0  0  0  0
    2.0191   -5.8202    2.0451 H   0  0  0  0  0  0  0  0  0  0  0  0
    1.9426   -6.4042    0.4326 H   0  0  0  0  0  0  0  0  0  0  0  0
    5.5816   -5.2230    4.3367 H   0  0  0  0  0  0  0  0  0  0  0  0
    4.1915   -3.9569    5.5216 H   0  0  0  0  0  0  0  0  0  0  0  0
    6.4459   -4.5733    7.5045 H   0  0  0  0  0  0  0  0  0  0  0  0
    5.3456   -3.1332    7.3321 H   0  0  0  0  0  0  0  0  0  0  0  0
    3.5749   -4.5213    7.9927 H   0  0  0  0  0  0  0  0  0  0  0  0
    5.4402   -6.6389    8.3147 H   0  0  0  0  0  0  0  0  0  0  0  0
    3.2984   -7.6736   10.8024 H   0  0  0  0  0  0  0  0  0  0  0  0
    4.9867   -7.6202   10.3130 H   0  0  0  0  0  0  0  0  0  0  0  0
    3.8479   -8.7037    9.4944 H   0  0  0  0  0  0  0  0  0  0  0  0
    3.7171   -8.3558    7.3733 H   0  0  0  0  0  0  0  0  0  0  0  0
    1.9138   -8.4532    7.1548 H   0  0  0  0  0  0  0  0  0  0  0  0
    0.5147   -6.3238    6.7228 H   0  0  0  0  0  0  0  0  0  0  0  0
    1.5307   -6.4512    8.0891 H   0  0  0  0  0  0  0  0  0  0  0  0
    1.2102   -4.3712    7.8244 H   0  0  0  0  0  0  0  0  0  0  0  0
    1.7300   -6.6144    4.1318 H   0  0  0  0  0  0  0  0  0  0  0  0
    2.9254   -4.5095    5.0318 H   0  0  0  0  0  0  0  0  0  0  0  0
  1  2  1  0
  1 44  1  0
  1 45  1  0
  1 46  1  0
  2  3  1  0
  2 47  1  0
  2 48  1  0
  3 30  1  0
  3  4  1  0
  4  5  1  0
  4 49  1  0
  4 50  1  0
  5 20  1  1
  5 37  1  0
  5  6  1  0
  6  7  1  0
  6 51  1  0
  6 52  1  0
  7  8  1  0
  7 10  1  0
  7 53  1  1
  8  9  1  0
  9 54  1  0
  9 55  1  0
  9 56  1  0
 10 29  1  0
 10 11  1  0
 10 57  1  1
 11 28  1  0
 11 12  1  6
 11 14  1  0
 12 13  1  0
 13 58  1  0
 13 59  1  0
 13 60  1  0
 14 15  2  0
 14 61  1  0
 16 15  1  6
 15 62  1  0
 16 17  1  0
 16 21  1  0
 29 16  1  1
 17 18  1  0
 17 20  1  0
 17 63  1  1
 18 19  1  0
 19 64  1  0
 19 65  1  0
 19 66  1  0
 20 67  1  0
 20 68  1  0
 21 27  1  0
 21 22  1  6
 21 23  1  0
 22 69  1  0
 23 24  1  0
 23 70  1  0
 23 71  1  0
 24 25  1  0
 24 26  2  0
 25 72  1  0
 25 73  1  0
 25 74  1  0
 26 27  1  0
 26 75  1  0
 27 28  1  0
 27 76  1  6
 28 77  1  0
 28 78  1  0
 29 42  1  0
 29 30  1  0
 30 31  1  0
 30 79  1  6
 31 33  1  0
 31 32  1  0
 31 80  1  6
 32 33  1  0
 32 81  1  0
 32 82  1  0
 33 34  1  0
 33 83  1  1
 34 35  1  0
 34 37  1  0
 34 84  1  1
 35 36  1  0
 36 85  1  0
 36 86  1  0
 36 87  1  0
 37 38  1  0
 37 88  1  1
 38 39  1  6
 38 40  1  0
 38 42  1  0
 39 89  1  0
 40 41  1  0
 40 90  1  0
 40 91  1  0
 41 92  1  0
 42 43  1  0
 42 93  1  6
 43 94  1  0
M  END
>  <i_m_ct_stereo_status>  (313) 
1

>  <s_m_source_file>  (313) 
/var/tmp/pbs.5076255.sched01/tmpua_2_py4/114lbcpx7pn.sdf

>  <i_m_source_file_index>  (313) 
29

>  <i_lp_mmshare_version>  (313) 
48012

>  <i_f3d_flags>  (313) 
0

>  <s_epik_input>  (313) 
QzEyM1tDQEhdNFtDQEhdKE9bQ0gzXSlbQ0BASF01W0NAQEhdKFtDSDJdNSlbQ0BASF0oTihbQ0gyXTEpW0NIMl1bQ0gzXSlDNihbQ0BIXShbT0hdKVtDQF00KFtPSF0pW0NIMl1bT0hdKVtDQEBdNyhbQ0BIXShbQ0gyXTMpT1tDSDNdKVtDQF04KFtPSF0pW0NAQEhdKFtDSF09QyhbQ0gyXTgpW0NIM10pW0NIMl1bQ0BdKE9bQ0gzXSkoW0NIXT1bQ0hdNylbQ0BASF02W0NAQEhdKFtDSDJdMilPW0NIM10=

>  <s_epik_cmdline>  (313) 
J2VwaWtfcHl0aG9uJywgJy1waHQnLCAnMi4wJywgJy1waCcsICc3LjAnLCAnLXRuJywgJzgnLCAnLW1hJywgJzIwMCcsICctaW1hZScsICc8aW5maWxlLm1hZT4nLCAnLW9tYWUnLCAnPG91dGZpbGUubWFlPic=

>  <r_epik_Ionization_Penalty>  (313) 
2.07303

>  <r_epik_Ionization_Penalty_Charging>  (313) 
0

>  <r_epik_Ionization_Penalty_Neutral>  (313) 
2.07303

>  <r_epik_State_Penalty>  (313) 
2.20714

>  <r_epik_Charging_Adjusted_Penalty>  (313) 
2.20714

>  <i_epik_Tot_Q>  (313) 
0

>  <i_epik_Tot_abs_Q>  (313) 
0

>  <s_lp_Force_Field>  (313) 
OPLS3e

>  <r_lp_Energy>  (313) 
495.811

>  <b_lp_Chiralities_Consistent>  (313) 
1

>  <s_lp_Variant>  (313) 
106:0-5

>  <s_i_glide_gridfile>  (313) 
pfpi4k_grid

>  <i_i_glide_lignum>  (313) 
29

>  <i_i_glide_rotatable_bonds>  (313) 
10

>  <r_i_docking_score>  (313) 
-1.46743

>  <r_i_glide_ligand_efficiency>  (313) 
-0.0341263

>  <r_i_glide_ligand_efficiency_sa>  (313) 
-0.119558

>  <r_i_glide_ligand_efficiency_ln>  (313) 
-0.308206

>  <r_i_glide_gscore>  (313) 
-1.46743

>  <r_i_glide_lipo>  (313) 
-0.121538

>  <r_i_glide_hbond>  (313) 
0

>  <r_i_glide_metal>  (313) 
-0

>  <r_i_glide_rewards>  (313) 
0

>  <r_i_glide_evdw>  (313) 
-27.1833

>  <r_i_glide_ecoul>  (313) 
-0.29828

>  <r_i_glide_erotb>  (313) 
0.0580149

>  <r_i_glide_esite>  (313) 
0

>  <r_i_glide_emodel>  (313) 
-25.2832

>  <r_i_glide_energy>  (313) 
-27.4816

>  <r_i_glide_einternal>  (313) 
6.50347

>  <r_i_glide_intrahb_reward>  (313) 
-0

>  <i_i_glide_confnum>  (313) 
3

>  <i_i_glide_posenum>  (313) 
1

>  <r_i_glide_eff_state_penalty>  (313) 
0

>  <ligand_id>  (313) 
106

>  <original_smiles>  (313) 
CCN1CC23CC(OC)C4C5(OC)C=CC(C(OC)C2)(C2(O)CC(C)=CC2C5)C42C1C1CC1C(OC)C3C(O)(CO)C2O

>  <smiles>  (313) 
[H]OC([H])([H])C1(O[H])C([H])(O[H])C23C4([H])N(C([H])([H])C([H])([H])[H])C([H])([H])C5(C([H])([H])C([H])(OC([H])([H])[H])C2([H])C2(OC([H])([H])[H])C([H])=C([H])C3(C([H])(OC([H])([H])[H])C5([H])[H])C3(O[H])C([H])([H])C(C([H])([H])[H])=C([H])C3([H])C2([H])[H])C1([H])C([H])(OC([H])([H])[H])C1([H])C([H])([H])C41[H]

$$$$
108:0:0
     RDKit          3D

 26 28  0  0  1  0  0  0  0  0999 V2000
   -9.7297   -9.2600  -11.0394 O   0  0  0  0  0  0  0  0  0  0  0  0
  -10.5856   -8.8417  -10.2596 C   0  0  0  0  0  0  0  0  0  0  0  0
  -11.8922   -9.1415  -10.3179 O   0  0  0  0  0  0  0  0  0  0  0  0
  -12.6874   -8.4226   -9.3809 C   0  0  0  0  0  0  0  0  0  0  0  0
  -11.6802   -7.8626   -8.3770 C   0  0  0  0  0  0  0  0  0  0  0  0
  -10.3719   -7.9364   -9.1276 C   0  0  0  0  0  0  0  0  0  0  0  0
   -9.1736   -7.3631   -8.8702 C   0  0  0  0  0  0  0  0  0  0  0  0
   -8.8579   -6.3866   -7.8157 C   0  0  0  0  0  0  0  0  0  0  0  0
   -9.7844   -5.3781   -7.4367 C   0  0  0  0  0  0  0  0  0  0  0  0
   -9.5019   -4.4865   -6.3789 C   0  0  0  0  0  0  0  0  0  0  0  0
   -8.2700   -4.6157   -5.7368 C   0  0  0  0  0  0  0  0  0  0  0  0
   -7.3530   -5.5790   -6.0938 C   0  0  0  0  0  0  0  0  0  0  0  0
   -7.6142   -6.4871   -7.1354 C   0  0  0  0  0  0  0  0  0  0  0  0
   -6.2548   -5.4789   -5.2965 O   0  0  0  0  0  0  0  0  0  0  0  0
   -6.5703   -4.4923   -4.3465 C   0  0  0  0  0  0  0  0  0  0  0  0
   -7.7742   -3.8778   -4.7174 O   0  0  0  0  0  0  0  0  0  0  0  0
  -13.1761   -7.6006   -9.9080 H   0  0  0  0  0  0  0  0  0  0  0  0
  -13.4655   -9.0231   -8.9125 H   0  0  0  0  0  0  0  0  0  0  0  0
  -12.0072   -6.8727   -8.0577 H   0  0  0  0  0  0  0  0  0  0  0  0
  -11.6140   -8.5047   -7.4958 H   0  0  0  0  0  0  0  0  0  0  0  0
   -8.3443   -7.5920   -9.5254 H   0  0  0  0  0  0  0  0  0  0  0  0
  -10.7257   -5.2583   -7.9502 H   0  0  0  0  0  0  0  0  0  0  0  0
  -10.2174   -3.7390   -6.0657 H   0  0  0  0  0  0  0  0  0  0  0  0
   -6.8794   -7.2310   -7.4078 H   0  0  0  0  0  0  0  0  0  0  0  0
   -6.7130   -4.9665   -3.3758 H   0  0  0  0  0  0  0  0  0  0  0  0
   -5.7798   -3.7413   -4.2607 H   0  0  0  0  0  0  0  0  0  0  0  0
  1  2  2  0
  2  6  1  0
  2  3  1  0
  3  4  1  0
  4  5  1  0
  4 17  1  0
  4 18  1  0
  5  6  1  0
  5 19  1  0
  5 20  1  0
  6  7  2  3
  7  8  1  0
  7 21  1  0
  8 13  1  0
  8  9  2  0
  9 10  1  0
  9 22  1  0
 10 11  2  0
 10 23  1  0
 11 16  1  0
 11 12  1  0
 12 13  2  0
 12 14  1  0
 13 24  1  0
 14 15  1  0
 15 16  1  0
 15 25  1  0
 15 26  1  0
M  END
>  <i_m_ct_stereo_status>  (314) 
1

>  <s_m_source_file>  (314) 
/var/tmp/pbs.5076255.sched01/tmpua_2_py4/114lbcpx7pn.sdf

>  <i_m_source_file_index>  (314) 
33

>  <i_lp_mmshare_version>  (314) 
48012

>  <i_f3d_flags>  (314) 
0

>  <s_epik_input>  (314) 
Tz1DMU9bQ0gyXVtDSDJdQ1wxPVtDSF0vYyhbY0hdW2NIXTIpW2NIXWMoYzIzKU9bQ0gyXU8z

>  <s_epik_cmdline>  (314) 
J2VwaWtfcHl0aG9uJywgJy1waHQnLCAnMi4wJywgJy1waCcsICc3LjAnLCAnLXRuJywgJzgnLCAnLW1hJywgJzIwMCcsICctaW1hZScsICc8aW5maWxlLm1hZT4nLCAnLW9tYWUnLCAnPG91dGZpbGUubWFlPic=

>  <r_lp_tautomer_probability>  (314) 
1

>  <r_epik_Ionization_Penalty>  (314) 
0

>  <r_epik_Ionization_Penalty_Charging>  (314) 
0

>  <r_epik_Ionization_Penalty_Neutral>  (314) 
0

>  <r_epik_State_Penalty>  (314) 
-0

>  <r_epik_Charging_Adjusted_Penalty>  (314) 
0

>  <i_epik_Tot_Q>  (314) 
0

>  <i_epik_Tot_abs_Q>  (314) 
0

>  <s_epik_Chemistry_Notes>  (314) 
This compound has an ester and may undergo hydrolysis at high or low pH. This compound contains an acetal/aminal-like group ( X-CH(R)-Y where X, Y are N, S, or O) that may be acid/base labile, releasing an aldehyde.

>  <s_lp_Force_Field>  (314) 
OPLS3e

>  <r_lp_Energy>  (314) 
21.7603

>  <b_lp_Chiralities_Consistent>  (314) 
1

>  <s_lp_Variant>  (314) 
108:0-1

>  <s_i_glide_gridfile>  (314) 
pfpi4k_grid

>  <i_i_glide_lignum>  (314) 
33

>  <i_i_glide_rotatable_bonds>  (314) 
1

>  <r_i_docking_score>  (314) 
-5.7228

>  <r_i_glide_ligand_efficiency>  (314) 
-0.357675

>  <r_i_glide_ligand_efficiency_sa>  (314) 
-0.901285

>  <r_i_glide_ligand_efficiency_ln>  (314) 
-1.51694

>  <r_i_glide_gscore>  (314) 
-5.7228

>  <r_i_glide_lipo>  (314) 
-1.47172

>  <r_i_glide_hbond>  (314) 
0

>  <r_i_glide_metal>  (314) 
-0

>  <r_i_glide_rewards>  (314) 
-2.82394

>  <r_i_glide_evdw>  (314) 
-22.5279

>  <r_i_glide_ecoul>  (314) 
-2.00498

>  <r_i_glide_erotb>  (314) 
0

>  <r_i_glide_esite>  (314) 
0

>  <r_i_glide_emodel>  (314) 
-32.0985

>  <r_i_glide_energy>  (314) 
-24.5329

>  <r_i_glide_einternal>  (314) 
2.01695

>  <r_i_glide_intrahb_reward>  (314) 
-0

>  <i_i_glide_confnum>  (314) 
2

>  <i_i_glide_posenum>  (314) 
33

>  <r_i_glide_eff_state_penalty>  (314) 
0

>  <ligand_id>  (314) 
108

>  <original_smiles>  (314) 
O=C1OCCC1=Cc1ccc2c(c1)OCO2

>  <smiles>  (314) 
[H]C(=C1C(=O)OC([H])([H])C1([H])[H])c1c([H])c([H])c2c(c1[H])OC([H])([H])O2

$$$$
108:0:1
     RDKit          3D

 26 28  0  0  1  0  0  0  0  0999 V2000
  -11.9222   -6.5002  -11.0649 O   0  0  0  0  0  0  0  0  0  0  0  0
  -11.0387   -7.2345  -10.6222 C   0  0  0  0  0  0  0  0  0  0  0  0
  -10.7105   -8.4355  -11.1334 O   0  0  0  0  0  0  0  0  0  0  0  0
   -9.7202   -9.1197  -10.3784 C   0  0  0  0  0  0  0  0  0  0  0  0
   -9.1090   -8.0395   -9.4884 C   0  0  0  0  0  0  0  0  0  0  0  0
  -10.1352   -6.9482   -9.5083 C   0  0  0  0  0  0  0  0  0  0  0  0
  -10.2896   -5.8709   -8.7048 C   0  0  0  0  0  0  0  0  0  0  0  0
   -9.4432   -5.4089   -7.5791 C   0  0  0  0  0  0  0  0  0  0  0  0
   -9.9054   -4.3136   -6.7989 C   0  0  0  0  0  0  0  0  0  0  0  0
   -9.1781   -3.8325   -5.6879 C   0  0  0  0  0  0  0  0  0  0  0  0
   -7.9940   -4.5023   -5.3485 C   0  0  0  0  0  0  0  0  0  0  0  0
   -7.5370   -5.5662   -6.0899 C   0  0  0  0  0  0  0  0  0  0  0  0
   -8.2128   -6.0252   -7.2275 C   0  0  0  0  0  0  0  0  0  0  0  0
   -6.3927   -6.0470   -5.5470 O   0  0  0  0  0  0  0  0  0  0  0  0
   -6.1917   -5.3088   -4.3739 C   0  0  0  0  0  0  0  0  0  0  0  0
   -7.1362   -4.2674   -4.3221 O   0  0  0  0  0  0  0  0  0  0  0  0
  -10.2042   -9.8670   -9.7506 H   0  0  0  0  0  0  0  0  0  0  0  0
   -8.9775   -9.6284  -10.9936 H   0  0  0  0  0  0  0  0  0  0  0  0
   -8.9286   -8.4354   -8.4891 H   0  0  0  0  0  0  0  0  0  0  0  0
   -8.1770   -7.6648   -9.9153 H   0  0  0  0  0  0  0  0  0  0  0  0
  -11.1428   -5.2424   -8.9045 H   0  0  0  0  0  0  0  0  0  0  0  0
  -10.8487   -3.8364   -7.0349 H   0  0  0  0  0  0  0  0  0  0  0  0
   -9.5315   -2.9892   -5.1092 H   0  0  0  0  0  0  0  0  0  0  0  0
   -7.7740   -6.8533   -7.7625 H   0  0  0  0  0  0  0  0  0  0  0  0
   -6.3384   -5.9778   -3.5224 H   0  0  0  0  0  0  0  0  0  0  0  0
   -5.1740   -4.9177   -4.3505 H   0  0  0  0  0  0  0  0  0  0  0  0
  1  2  2  0
  2  6  1  0
  2  3  1  0
  3  4  1  0
  4  5  1  0
  4 17  1  0
  4 18  1  0
  5  6  1  0
  5 19  1  0
  5 20  1  0
  6  7  2  3
  7  8  1  0
  7 21  1  0
  8 13  1  0
  8  9  2  0
  9 10  1  0
  9 22  1  0
 10 11  2  0
 10 23  1  0
 11 16  1  0
 11 12  1  0
 12 13  2  0
 12 14  1  0
 13 24  1  0
 14 15  1  0
 15 16  1  0
 15 25  1  0
 15 26  1  0
M  END
>  <i_m_ct_stereo_status>  (315) 
1

>  <s_m_source_file>  (315) 
/var/tmp/pbs.5076255.sched01/tmpua_2_py4/114lbcpx7pn.sdf

>  <i_m_source_file_index>  (315) 
33

>  <i_lp_mmshare_version>  (315) 
48012

>  <i_f3d_flags>  (315) 
0

>  <s_epik_input>  (315) 
Tz1DMU9bQ0gyXVtDSDJdQ1wxPVtDSF0vYyhbY0hdW2NIXTIpW2NIXWMoYzIzKU9bQ0gyXU8z

>  <s_epik_cmdline>  (315) 
J2VwaWtfcHl0aG9uJywgJy1waHQnLCAnMi4wJywgJy1waCcsICc3LjAnLCAnLXRuJywgJzgnLCAnLW1hJywgJzIwMCcsICctaW1hZScsICc8aW5maWxlLm1hZT4nLCAnLW9tYWUnLCAnPG91dGZpbGUubWFlPic=

>  <r_lp_tautomer_probability>  (315) 
1

>  <r_epik_Ionization_Penalty>  (315) 
0

>  <r_epik_Ionization_Penalty_Charging>  (315) 
0

>  <r_epik_Ionization_Penalty_Neutral>  (315) 
0

>  <r_epik_State_Penalty>  (315) 
-0

>  <r_epik_Charging_Adjusted_Penalty>  (315) 
0

>  <i_epik_Tot_Q>  (315) 
0

>  <i_epik_Tot_abs_Q>  (315) 
0

>  <s_epik_Chemistry_Notes>  (315) 
This compound has an ester and may undergo hydrolysis at high or low pH. This compound contains an acetal/aminal-like group ( X-CH(R)-Y where X, Y are N, S, or O) that may be acid/base labile, releasing an aldehyde.

>  <s_lp_Force_Field>  (315) 
OPLS3e

>  <r_lp_Energy>  (315) 
21.7603

>  <b_lp_Chiralities_Consistent>  (315) 
1

>  <s_lp_Variant>  (315) 
108:0-1

>  <s_i_glide_gridfile>  (315) 
pfpi4k_grid

>  <i_i_glide_lignum>  (315) 
33

>  <i_i_glide_rotatable_bonds>  (315) 
1

>  <r_i_docking_score>  (315) 
-5.53855

>  <r_i_glide_ligand_efficiency>  (315) 
-0.346159

>  <r_i_glide_ligand_efficiency_sa>  (315) 
-0.872266

>  <r_i_glide_ligand_efficiency_ln>  (315) 
-1.4681

>  <r_i_glide_gscore>  (315) 
-5.53855

>  <r_i_glide_lipo>  (315) 
-1.63239

>  <r_i_glide_hbond>  (315) 
0

>  <r_i_glide_metal>  (315) 
-0

>  <r_i_glide_rewards>  (315) 
-2.84715

>  <r_i_glide_evdw>  (315) 
-25.0287

>  <r_i_glide_ecoul>  (315) 
1.34997

>  <r_i_glide_erotb>  (315) 
0

>  <r_i_glide_esite>  (315) 
-0.0100721

>  <r_i_glide_emodel>  (315) 
-31.929

>  <r_i_glide_energy>  (315) 
-23.6787

>  <r_i_glide_einternal>  (315) 
0.0265424

>  <r_i_glide_intrahb_reward>  (315) 
-0

>  <i_i_glide_confnum>  (315) 
1

>  <i_i_glide_posenum>  (315) 
8

>  <r_i_glide_eff_state_penalty>  (315) 
0

>  <ligand_id>  (315) 
108

>  <original_smiles>  (315) 
O=C1OCCC1=Cc1ccc2c(c1)OCO2

>  <smiles>  (315) 
[H]C(=C1C(=O)OC([H])([H])C1([H])[H])c1c([H])c([H])c2c(c1[H])OC([H])([H])O2

$$$$
108:0:2
     RDKit          3D

 26 28  0  0  1  0  0  0  0  0999 V2000
   -1.4813   -0.1500    5.4584 O   0  0  0  0  0  0  0  0  0  0  0  0
   -1.1817    0.5568    4.4926 C   0  0  0  0  0  0  0  0  0  0  0  0
   -1.8043    1.6979    4.1529 O   0  0  0  0  0  0  0  0  0  0  0  0
   -1.3882    2.2230    2.8986 C   0  0  0  0  0  0  0  0  0  0  0  0
   -0.0386    1.5516    2.6614 C   0  0  0  0  0  0  0  0  0  0  0  0
   -0.0780    0.3446    3.5532 C   0  0  0  0  0  0  0  0  0  0  0  0
    0.6888   -0.7681    3.5388 C   0  0  0  0  0  0  0  0  0  0  0  0
    1.8625   -1.0355    2.6762 C   0  0  0  0  0  0  0  0  0  0  0  0
    2.6287    0.0129    2.0935 C   0  0  0  0  0  0  0  0  0  0  0  0
    3.7148   -0.2506    1.2409 C   0  0  0  0  0  0  0  0  0  0  0  0
    4.0462   -1.5877    0.9991 C   0  0  0  0  0  0  0  0  0  0  0  0
    3.3226   -2.6220    1.5570 C   0  0  0  0  0  0  0  0  0  0  0  0
    2.2162   -2.3781    2.3883 C   0  0  0  0  0  0  0  0  0  0  0  0
    3.8767   -3.8054    1.1820 O   0  0  0  0  0  0  0  0  0  0  0  0
    5.0408   -3.4695    0.4686 C   0  0  0  0  0  0  0  0  0  0  0  0
    5.0730   -2.0815    0.2680 O   0  0  0  0  0  0  0  0  0  0  0  0
   -2.0942    1.9339    2.1184 H   0  0  0  0  0  0  0  0  0  0  0  0
   -1.3195    3.3101    2.8972 H   0  0  0  0  0  0  0  0  0  0  0  0
    0.1237    1.3058    1.6103 H   0  0  0  0  0  0  0  0  0  0  0  0
    0.7425    2.2326    2.9983 H   0  0  0  0  0  0  0  0  0  0  0  0
    0.4763   -1.5365    4.2701 H   0  0  0  0  0  0  0  0  0  0  0  0
    2.4363    1.0495    2.3134 H   0  0  0  0  0  0  0  0  0  0  0  0
    4.2913    0.5545    0.8137 H   0  0  0  0  0  0  0  0  0  0  0  0
    1.6650   -3.2016    2.8195 H   0  0  0  0  0  0  0  0  0  0  0  0
    5.9145   -3.7478    1.0655 H   0  0  0  0  0  0  0  0  0  0  0  0
    5.0793   -3.9893   -0.4930 H   0  0  0  0  0  0  0  0  0  0  0  0
  1  2  2  0
  2  6  1  0
  2  3  1  0
  3  4  1  0
  4  5  1  0
  4 17  1  0
  4 18  1  0
  5  6  1  0
  5 19  1  0
  5 20  1  0
  6  7  2  3
  7  8  1  0
  7 21  1  0
  8 13  1  0
  8  9  2  0
  9 10  1  0
  9 22  1  0
 10 11  2  0
 10 23  1  0
 11 16  1  0
 11 12  1  0
 12 13  2  0
 12 14  1  0
 13 24  1  0
 14 15  1  0
 15 16  1  0
 15 25  1  0
 15 26  1  0
M  END
>  <i_m_ct_stereo_status>  (316) 
1

>  <s_m_source_file>  (316) 
/var/tmp/pbs.5076255.sched01/tmpua_2_py4/114lbcpx7pn.sdf

>  <i_m_source_file_index>  (316) 
33

>  <i_lp_mmshare_version>  (316) 
48012

>  <i_f3d_flags>  (316) 
0

>  <s_epik_input>  (316) 
Tz1DMU9bQ0gyXVtDSDJdQ1wxPVtDSF0vYyhbY0hdW2NIXTIpW2NIXWMoYzIzKU9bQ0gyXU8z

>  <s_epik_cmdline>  (316) 
J2VwaWtfcHl0aG9uJywgJy1waHQnLCAnMi4wJywgJy1waCcsICc3LjAnLCAnLXRuJywgJzgnLCAnLW1hJywgJzIwMCcsICctaW1hZScsICc8aW5maWxlLm1hZT4nLCAnLW9tYWUnLCAnPG91dGZpbGUubWFlPic=

>  <r_lp_tautomer_probability>  (316) 
1

>  <r_epik_Ionization_Penalty>  (316) 
0

>  <r_epik_Ionization_Penalty_Charging>  (316) 
0

>  <r_epik_Ionization_Penalty_Neutral>  (316) 
0

>  <r_epik_State_Penalty>  (316) 
-0

>  <r_epik_Charging_Adjusted_Penalty>  (316) 
0

>  <i_epik_Tot_Q>  (316) 
0

>  <i_epik_Tot_abs_Q>  (316) 
0

>  <s_epik_Chemistry_Notes>  (316) 
This compound has an ester and may undergo hydrolysis at high or low pH. This compound contains an acetal/aminal-like group ( X-CH(R)-Y where X, Y are N, S, or O) that may be acid/base labile, releasing an aldehyde.

>  <s_lp_Force_Field>  (316) 
OPLS3e

>  <r_lp_Energy>  (316) 
21.7603

>  <b_lp_Chiralities_Consistent>  (316) 
1

>  <s_lp_Variant>  (316) 
108:0-1

>  <s_i_glide_gridfile>  (316) 
pfpi4k_grid

>  <i_i_glide_lignum>  (316) 
33

>  <i_i_glide_rotatable_bonds>  (316) 
1

>  <r_i_docking_score>  (316) 
-3.28723

>  <r_i_glide_ligand_efficiency>  (316) 
-0.205452

>  <r_i_glide_ligand_efficiency_sa>  (316) 
-0.517707

>  <r_i_glide_ligand_efficiency_ln>  (316) 
-0.871347

>  <r_i_glide_gscore>  (316) 
-3.28723

>  <r_i_glide_lipo>  (316) 
-0.0128198

>  <r_i_glide_hbond>  (316) 
0

>  <r_i_glide_metal>  (316) 
-0

>  <r_i_glide_rewards>  (316) 
-1.96924

>  <r_i_glide_evdw>  (316) 
-18.3716

>  <r_i_glide_ecoul>  (316) 
-2.39031

>  <r_i_glide_erotb>  (316) 
0

>  <r_i_glide_esite>  (316) 
-0.0280451

>  <r_i_glide_emodel>  (316) 
-24.97

>  <r_i_glide_energy>  (316) 
-20.7619

>  <r_i_glide_einternal>  (316) 
1.2158

>  <r_i_glide_intrahb_reward>  (316) 
-0

>  <i_i_glide_confnum>  (316) 
1

>  <i_i_glide_posenum>  (316) 
7

>  <r_i_glide_eff_state_penalty>  (316) 
0

>  <ligand_id>  (316) 
108

>  <original_smiles>  (316) 
O=C1OCCC1=Cc1ccc2c(c1)OCO2

>  <smiles>  (316) 
[H]C(=C1C(=O)OC([H])([H])C1([H])[H])c1c([H])c([H])c2c(c1[H])OC([H])([H])O2

$$$$
108:1:0
     RDKit          3D

 26 28  0  0  1  0  0  0  0  0999 V2000
   -0.8838   -0.1009    6.1525 O   0  0  0  0  0  0  0  0  0  0  0  0
   -1.4501    0.9784    6.0482 C   0  0  0  0  0  0  0  0  0  0  0  0
   -2.2634    1.4504    7.0062 O   0  0  0  0  0  0  0  0  0  0  0  0
   -2.6329    2.8073    6.8133 C   0  0  0  0  0  0  0  0  0  0  0  0
   -2.3796    3.0495    5.3203 C   0  0  0  0  0  0  0  0  0  0  0  0
   -1.4057    1.9548    4.9387 C   0  0  0  0  0  0  0  0  0  0  0  0
   -0.6541    1.9538    3.8063 C   0  0  0  0  0  0  0  0  0  0  0  0
    0.2996    0.9605    3.2797 C   0  0  0  0  0  0  0  0  0  0  0  0
    0.1713   -0.4168    3.5878 C   0  0  0  0  0  0  0  0  0  0  0  0
    1.1425   -1.3541    3.2165 C   0  0  0  0  0  0  0  0  0  0  0  0
    2.2270   -0.9012    2.4450 C   0  0  0  0  0  0  0  0  0  0  0  0
    2.3444    0.4190    2.0634 C   0  0  0  0  0  0  0  0  0  0  0  0
    1.4071    1.3953    2.4715 C   0  0  0  0  0  0  0  0  0  0  0  0
    3.4554    0.5580    1.2956 O   0  0  0  0  0  0  0  0  0  0  0  0
    4.1025   -0.6869    1.3193 C   0  0  0  0  0  0  0  0  0  0  0  0
    3.2536   -1.6178    1.9364 O   0  0  0  0  0  0  0  0  0  0  0  0
   -3.6763    2.9667    7.1062 H   0  0  0  0  0  0  0  0  0  0  0  0
   -1.9660    3.4224    7.4252 H   0  0  0  0  0  0  0  0  0  0  0  0
   -3.3077    2.9427    4.7481 H   0  0  0  0  0  0  0  0  0  0  0  0
   -1.9741    4.0435    5.1253 H   0  0  0  0  0  0  0  0  0  0  0  0
   -0.7880    2.8013    3.1566 H   0  0  0  0  0  0  0  0  0  0  0  0
   -0.7030   -0.7761    4.1077 H   0  0  0  0  0  0  0  0  0  0  0  0
    1.0657   -2.3864    3.5013 H   0  0  0  0  0  0  0  0  0  0  0  0
    1.5310    2.4264    2.1797 H   0  0  0  0  0  0  0  0  0  0  0  0
    4.3765   -1.0152    0.3114 H   0  0  0  0  0  0  0  0  0  0  0  0
    4.9870   -0.6010    1.9549 H   0  0  0  0  0  0  0  0  0  0  0  0
  1  2  2  0
  2  6  1  0
  2  3  1  0
  3  4  1  0
  4  5  1  0
  4 17  1  0
  4 18  1  0
  5  6  1  0
  5 19  1  0
  5 20  1  0
  6  7  2  3
  7  8  1  0
  7 21  1  0
  8 13  1  0
  8  9  2  0
  9 10  1  0
  9 22  1  0
 10 11  2  0
 10 23  1  0
 11 16  1  0
 11 12  1  0
 12 13  2  0
 12 14  1  0
 13 24  1  0
 14 15  1  0
 15 16  1  0
 15 25  1  0
 15 26  1  0
M  END
>  <i_m_ct_stereo_status>  (317) 
1

>  <s_m_source_file>  (317) 
/var/tmp/pbs.5076255.sched01/tmpua_2_py4/114lbcpx7pn.sdf

>  <i_m_source_file_index>  (317) 
34

>  <i_lp_mmshare_version>  (317) 
48012

>  <i_f3d_flags>  (317) 
0

>  <s_epik_input>  (317) 
Tz1DMU9bQ0gyXVtDSDJdQ1wxPVtDSF0vYyhbY0hdW2NIXTIpW2NIXWMoYzIzKU9bQ0gyXU8z

>  <s_epik_cmdline>  (317) 
J2VwaWtfcHl0aG9uJywgJy1waHQnLCAnMi4wJywgJy1waCcsICc3LjAnLCAnLXRuJywgJzgnLCAnLW1hJywgJzIwMCcsICctaW1hZScsICc8aW5maWxlLm1hZT4nLCAnLW9tYWUnLCAnPG91dGZpbGUubWFlPic=

>  <r_lp_tautomer_probability>  (317) 
1

>  <r_epik_Ionization_Penalty>  (317) 
0

>  <r_epik_Ionization_Penalty_Charging>  (317) 
0

>  <r_epik_Ionization_Penalty_Neutral>  (317) 
0

>  <r_epik_State_Penalty>  (317) 
-0

>  <r_epik_Charging_Adjusted_Penalty>  (317) 
0

>  <i_epik_Tot_Q>  (317) 
0

>  <i_epik_Tot_abs_Q>  (317) 
0

>  <s_epik_Chemistry_Notes>  (317) 
This compound has an ester and may undergo hydrolysis at high or low pH. This compound contains an acetal/aminal-like group ( X-CH(R)-Y where X, Y are N, S, or O) that may be acid/base labile, releasing an aldehyde.

>  <s_lp_Force_Field>  (317) 
OPLS3e

>  <r_lp_Energy>  (317) 
23.9619

>  <b_lp_Chiralities_Consistent>  (317) 
1

>  <s_lp_Variant>  (317) 
108:0-2

>  <s_i_glide_gridfile>  (317) 
pfpi4k_grid

>  <i_i_glide_lignum>  (317) 
34

>  <i_i_glide_rotatable_bonds>  (317) 
1

>  <r_i_docking_score>  (317) 
-3.39251

>  <r_i_glide_ligand_efficiency>  (317) 
-0.212032

>  <r_i_glide_ligand_efficiency_sa>  (317) 
-0.534286

>  <r_i_glide_ligand_efficiency_ln>  (317) 
-0.899252

>  <r_i_glide_gscore>  (317) 
-3.39251

>  <r_i_glide_lipo>  (317) 
-0.161977

>  <r_i_glide_hbond>  (317) 
-0.0782861

>  <r_i_glide_metal>  (317) 
-0

>  <r_i_glide_rewards>  (317) 
-2.00755

>  <r_i_glide_evdw>  (317) 
-18.3087

>  <r_i_glide_ecoul>  (317) 
-1.22925

>  <r_i_glide_erotb>  (317) 
0

>  <r_i_glide_esite>  (317) 
-0.0448749

>  <r_i_glide_emodel>  (317) 
-22.4333

>  <r_i_glide_energy>  (317) 
-19.5379

>  <r_i_glide_einternal>  (317) 
1.28546

>  <r_i_glide_intrahb_reward>  (317) 
-0

>  <i_i_glide_confnum>  (317) 
1

>  <i_i_glide_posenum>  (317) 
22

>  <r_i_glide_eff_state_penalty>  (317) 
0

>  <ligand_id>  (317) 
108

>  <original_smiles>  (317) 
O=C1OCCC1=Cc1ccc2c(c1)OCO2

>  <smiles>  (317) 
[H]C(=C1C(=O)OC([H])([H])C1([H])[H])c1c([H])c([H])c2c(c1[H])OC([H])([H])O2

$$$$
108:1:1
     RDKit          3D

 26 28  0  0  1  0  0  0  0  0999 V2000
   -0.8931   -0.3481    5.8410 O   0  0  0  0  0  0  0  0  0  0  0  0
   -1.4157    0.7534    5.8903 C   0  0  0  0  0  0  0  0  0  0  0  0
   -2.2373    1.0974    6.8918 O   0  0  0  0  0  0  0  0  0  0  0  0
   -2.5722    2.4765    6.9039 C   0  0  0  0  0  0  0  0  0  0  0  0
   -2.2674    2.9452    5.4776 C   0  0  0  0  0  0  0  0  0  0  0  0
   -1.3113    1.8880    4.9564 C   0  0  0  0  0  0  0  0  0  0  0  0
   -0.5169    2.0542    3.8664 C   0  0  0  0  0  0  0  0  0  0  0  0
    0.4733    1.1589    3.2363 C   0  0  0  0  0  0  0  0  0  0  0  0
    1.5821    1.7432    2.5322 C   0  0  0  0  0  0  0  0  0  0  0  0
    2.6058    0.9253    1.9781 C   0  0  0  0  0  0  0  0  0  0  0  0
    2.5077   -0.4640    2.1593 C   0  0  0  0  0  0  0  0  0  0  0  0
    1.4351   -1.0198    2.8322 C   0  0  0  0  0  0  0  0  0  0  0  0
    0.3922   -0.2518    3.3461 C   0  0  0  0  0  0  0  0  0  0  0  0
    1.5663   -2.3641    2.8508 O   0  0  0  0  0  0  0  0  0  0  0  0
    2.6557   -2.6575    2.0289 C   0  0  0  0  0  0  0  0  0  0  0  0
    3.3146   -1.4531    1.7051 O   0  0  0  0  0  0  0  0  0  0  0  0
   -3.6236    2.6094    7.1872 H   0  0  0  0  0  0  0  0  0  0  0  0
   -1.9149    2.9659    7.6296 H   0  0  0  0  0  0  0  0  0  0  0  0
   -3.1772    2.9472    4.8687 H   0  0  0  0  0  0  0  0  0  0  0  0
   -1.8323    3.9443    5.4597 H   0  0  0  0  0  0  0  0  0  0  0  0
   -0.6132    2.9974    3.3563 H   0  0  0  0  0  0  0  0  0  0  0  0
    1.6392    2.8095    2.3999 H   0  0  0  0  0  0  0  0  0  0  0  0
    3.4303    1.3389    1.4114 H   0  0  0  0  0  0  0  0  0  0  0  0
   -0.4495   -0.7573    3.7759 H   0  0  0  0  0  0  0  0  0  0  0  0
    3.3258   -3.3731    2.5189 H   0  0  0  0  0  0  0  0  0  0  0  0
    2.2420   -3.0972    1.1157 H   0  0  0  0  0  0  0  0  0  0  0  0
  1  2  2  0
  2  6  1  0
  2  3  1  0
  3  4  1  0
  4  5  1  0
  4 17  1  0
  4 18  1  0
  5  6  1  0
  5 19  1  0
  5 20  1  0
  6  7  2  3
  7  8  1  0
  7 21  1  0
  8 13  1  0
  8  9  2  0
  9 10  1  0
  9 22  1  0
 10 11  2  0
 10 23  1  0
 11 16  1  0
 11 12  1  0
 12 13  2  0
 12 14  1  0
 13 24  1  0
 14 15  1  0
 15 16  1  0
 15 25  1  0
 15 26  1  0
M  END
>  <i_m_ct_stereo_status>  (318) 
1

>  <s_m_source_file>  (318) 
/var/tmp/pbs.5076255.sched01/tmpua_2_py4/114lbcpx7pn.sdf

>  <i_m_source_file_index>  (318) 
34

>  <i_lp_mmshare_version>  (318) 
48012

>  <i_f3d_flags>  (318) 
0

>  <s_epik_input>  (318) 
Tz1DMU9bQ0gyXVtDSDJdQ1wxPVtDSF0vYyhbY0hdW2NIXTIpW2NIXWMoYzIzKU9bQ0gyXU8z

>  <s_epik_cmdline>  (318) 
J2VwaWtfcHl0aG9uJywgJy1waHQnLCAnMi4wJywgJy1waCcsICc3LjAnLCAnLXRuJywgJzgnLCAnLW1hJywgJzIwMCcsICctaW1hZScsICc8aW5maWxlLm1hZT4nLCAnLW9tYWUnLCAnPG91dGZpbGUubWFlPic=

>  <r_lp_tautomer_probability>  (318) 
1

>  <r_epik_Ionization_Penalty>  (318) 
0

>  <r_epik_Ionization_Penalty_Charging>  (318) 
0

>  <r_epik_Ionization_Penalty_Neutral>  (318) 
0

>  <r_epik_State_Penalty>  (318) 
-0

>  <r_epik_Charging_Adjusted_Penalty>  (318) 
0

>  <i_epik_Tot_Q>  (318) 
0

>  <i_epik_Tot_abs_Q>  (318) 
0

>  <s_epik_Chemistry_Notes>  (318) 
This compound has an ester and may undergo hydrolysis at high or low pH. This compound contains an acetal/aminal-like group ( X-CH(R)-Y where X, Y are N, S, or O) that may be acid/base labile, releasing an aldehyde.

>  <s_lp_Force_Field>  (318) 
OPLS3e

>  <r_lp_Energy>  (318) 
23.9619

>  <b_lp_Chiralities_Consistent>  (318) 
1

>  <s_lp_Variant>  (318) 
108:0-2

>  <s_i_glide_gridfile>  (318) 
pfpi4k_grid

>  <i_i_glide_lignum>  (318) 
34

>  <i_i_glide_rotatable_bonds>  (318) 
1

>  <r_i_docking_score>  (318) 
-3.36685

>  <r_i_glide_ligand_efficiency>  (318) 
-0.210428

>  <r_i_glide_ligand_efficiency_sa>  (318) 
-0.530246

>  <r_i_glide_ligand_efficiency_ln>  (318) 
-0.892452

>  <r_i_glide_gscore>  (318) 
-3.36685

>  <r_i_glide_lipo>  (318) 
-0.138466

>  <r_i_glide_hbond>  (318) 
-0.16

>  <r_i_glide_metal>  (318) 
-0

>  <r_i_glide_rewards>  (318) 
-1.92133

>  <r_i_glide_evdw>  (318) 
-17.53

>  <r_i_glide_ecoul>  (318) 
-1.41062

>  <r_i_glide_erotb>  (318) 
0

>  <r_i_glide_esite>  (318) 
-0.0589685

>  <r_i_glide_emodel>  (318) 
-22.1055

>  <r_i_glide_energy>  (318) 
-18.9406

>  <r_i_glide_einternal>  (318) 
0.398052

>  <r_i_glide_intrahb_reward>  (318) 
-0

>  <i_i_glide_confnum>  (318) 
1

>  <i_i_glide_posenum>  (318) 
38

>  <r_i_glide_eff_state_penalty>  (318) 
0

>  <ligand_id>  (318) 
108

>  <original_smiles>  (318) 
O=C1OCCC1=Cc1ccc2c(c1)OCO2

>  <smiles>  (318) 
[H]C(=C1C(=O)OC([H])([H])C1([H])[H])c1c([H])c([H])c2c(c1[H])OC([H])([H])O2

$$$$
108:1:2
     RDKit          3D

 26 28  0  0  1  0  0  0  0  0999 V2000
   -0.2724   -0.0540    4.9918 O   0  0  0  0  0  0  0  0  0  0  0  0
   -0.8429    0.8886    4.4593 C   0  0  0  0  0  0  0  0  0  0  0  0
   -1.8118    1.5937    5.0555 O   0  0  0  0  0  0  0  0  0  0  0  0
   -2.2070    2.7539    4.3354 C   0  0  0  0  0  0  0  0  0  0  0  0
   -1.6848    2.5026    2.9201 C   0  0  0  0  0  0  0  0  0  0  0  0
   -0.6397    1.4341    3.1022 C   0  0  0  0  0  0  0  0  0  0  0  0
    0.3243    1.1314    2.1983 C   0  0  0  0  0  0  0  0  0  0  0  0
    1.3833    0.0952    2.2216 C   0  0  0  0  0  0  0  0  0  0  0  0
    1.1668   -1.1778    2.8040 C   0  0  0  0  0  0  0  0  0  0  0  0
    2.2154   -2.1100    2.9345 C   0  0  0  0  0  0  0  0  0  0  0  0
    3.4710   -1.7687    2.4109 C   0  0  0  0  0  0  0  0  0  0  0  0
    3.6879   -0.5579    1.7885 C   0  0  0  0  0  0  0  0  0  0  0  0
    2.6664    0.3999    1.6869 C   0  0  0  0  0  0  0  0  0  0  0  0
    4.9772   -0.4940    1.3653 O   0  0  0  0  0  0  0  0  0  0  0  0
    5.5918   -1.6603    1.8531 C   0  0  0  0  0  0  0  0  0  0  0  0
    4.6151   -2.4945    2.4103 O   0  0  0  0  0  0  0  0  0  0  0  0
   -3.2861    2.9090    4.3785 H   0  0  0  0  0  0  0  0  0  0  0  0
   -1.6964    3.6016    4.7933 H   0  0  0  0  0  0  0  0  0  0  0  0
   -2.4830    2.1318    2.2691 H   0  0  0  0  0  0  0  0  0  0  0  0
   -1.2726    3.4059    2.4760 H   0  0  0  0  0  0  0  0  0  0  0  0
    0.3022    1.7067    1.2866 H   0  0  0  0  0  0  0  0  0  0  0  0
    0.1854   -1.4461    3.1639 H   0  0  0  0  0  0  0  0  0  0  0  0
    2.0633   -3.0488    3.4370 H   0  0  0  0  0  0  0  0  0  0  0  0
    2.8741    1.3401    1.2090 H   0  0  0  0  0  0  0  0  0  0  0  0
    6.1443   -2.1890    1.0663 H   0  0  0  0  0  0  0  0  0  0  0  0
    6.2720   -1.3743    2.6591 H   0  0  0  0  0  0  0  0  0  0  0  0
  1  2  2  0
  2  6  1  0
  2  3  1  0
  3  4  1  0
  4  5  1  0
  4 17  1  0
  4 18  1  0
  5  6  1  0
  5 19  1  0
  5 20  1  0
  6  7  2  3
  7  8  1  0
  7 21  1  0
  8 13  1  0
  8  9  2  0
  9 10  1  0
  9 22  1  0
 10 11  2  0
 10 23  1  0
 11 16  1  0
 11 12  1  0
 12 13  2  0
 12 14  1  0
 13 24  1  0
 14 15  1  0
 15 16  1  0
 15 25  1  0
 15 26  1  0
M  END
>  <i_m_ct_stereo_status>  (319) 
1

>  <s_m_source_file>  (319) 
/var/tmp/pbs.5076255.sched01/tmpua_2_py4/114lbcpx7pn.sdf

>  <i_m_source_file_index>  (319) 
34

>  <i_lp_mmshare_version>  (319) 
48012

>  <i_f3d_flags>  (319) 
0

>  <s_epik_input>  (319) 
Tz1DMU9bQ0gyXVtDSDJdQ1wxPVtDSF0vYyhbY0hdW2NIXTIpW2NIXWMoYzIzKU9bQ0gyXU8z

>  <s_epik_cmdline>  (319) 
J2VwaWtfcHl0aG9uJywgJy1waHQnLCAnMi4wJywgJy1waCcsICc3LjAnLCAnLXRuJywgJzgnLCAnLW1hJywgJzIwMCcsICctaW1hZScsICc8aW5maWxlLm1hZT4nLCAnLW9tYWUnLCAnPG91dGZpbGUubWFlPic=

>  <r_lp_tautomer_probability>  (319) 
1

>  <r_epik_Ionization_Penalty>  (319) 
0

>  <r_epik_Ionization_Penalty_Charging>  (319) 
0

>  <r_epik_Ionization_Penalty_Neutral>  (319) 
0

>  <r_epik_State_Penalty>  (319) 
-0

>  <r_epik_Charging_Adjusted_Penalty>  (319) 
0

>  <i_epik_Tot_Q>  (319) 
0

>  <i_epik_Tot_abs_Q>  (319) 
0

>  <s_epik_Chemistry_Notes>  (319) 
This compound has an ester and may undergo hydrolysis at high or low pH. This compound contains an acetal/aminal-like group ( X-CH(R)-Y where X, Y are N, S, or O) that may be acid/base labile, releasing an aldehyde.

>  <s_lp_Force_Field>  (319) 
OPLS3e

>  <r_lp_Energy>  (319) 
23.9619

>  <b_lp_Chiralities_Consistent>  (319) 
1

>  <s_lp_Variant>  (319) 
108:0-2

>  <s_i_glide_gridfile>  (319) 
pfpi4k_grid

>  <i_i_glide_lignum>  (319) 
34

>  <i_i_glide_rotatable_bonds>  (319) 
1

>  <r_i_docking_score>  (319) 
-3.16204

>  <r_i_glide_ligand_efficiency>  (319) 
-0.197628

>  <r_i_glide_ligand_efficiency_sa>  (319) 
-0.49799

>  <r_i_glide_ligand_efficiency_ln>  (319) 
-0.838162

>  <r_i_glide_gscore>  (319) 
-3.16204

>  <r_i_glide_lipo>  (319) 
-0.00424686

>  <r_i_glide_hbond>  (319) 
0

>  <r_i_glide_metal>  (319) 
-0

>  <r_i_glide_rewards>  (319) 
-2.07805

>  <r_i_glide_evdw>  (319) 
-18.4743

>  <r_i_glide_ecoul>  (319) 
-0.911546

>  <r_i_glide_erotb>  (319) 
0

>  <r_i_glide_esite>  (319) 
-0.019297

>  <r_i_glide_emodel>  (319) 
-22.5665

>  <r_i_glide_energy>  (319) 
-19.3858

>  <r_i_glide_einternal>  (319) 
1.38375

>  <r_i_glide_intrahb_reward>  (319) 
-0

>  <i_i_glide_confnum>  (319) 
2

>  <i_i_glide_posenum>  (319) 
23

>  <r_i_glide_eff_state_penalty>  (319) 
0

>  <ligand_id>  (319) 
108

>  <original_smiles>  (319) 
O=C1OCCC1=Cc1ccc2c(c1)OCO2

>  <smiles>  (319) 
[H]C(=C1C(=O)OC([H])([H])C1([H])[H])c1c([H])c([H])c2c(c1[H])OC([H])([H])O2

$$$$
109:0:0
     RDKit          3D

 47 50  0  0  1  0  0  0  0  0999 V2000
    4.9079   -3.6160   -2.6617 C   0  0  0  0  0  0  0  0  0  0  0  0
    5.2389   -3.1544   -1.2579 C   0  0  0  0  0  0  0  0  0  0  0  0
    5.5146   -1.8625   -0.9898 C   0  0  0  0  0  0  0  0  0  0  0  0
    5.9715   -1.3763    0.3785 C   0  0  0  0  0  0  0  0  0  0  0  0
    6.1083   -2.5145    1.4315 C   0  0  1  0  0  0  0  0  0  0  0  0
    4.8554   -2.8038    2.3640 C   0  0  1  0  0  0  0  0  0  0  0  0
    5.2019   -2.4713    3.8345 C   0  0  0  0  0  0  0  0  0  0  0  0
    3.5767   -1.9679    2.1025 C   0  0  0  0  0  0  0  0  0  0  0  0
    2.8475   -2.2691    0.7939 C   0  0  0  0  0  0  0  0  0  0  0  0
    2.8147   -3.7639    0.4366 C   0  0  1  0  0  0  0  0  0  0  0  0
    2.2738   -3.8957   -0.8604 O   0  0  0  0  0  0  0  0  0  0  0  0
    4.1293   -4.5708    0.6903 C   0  0  2  0  0  0  0  0  0  0  0  0
    3.7691   -6.0652    0.5123 C   0  0  0  0  0  0  0  0  0  0  0  0
    4.4694   -4.3071    2.1956 C   0  0  1  0  0  0  0  0  0  0  0  0
    5.6212   -5.2170    2.6607 C   0  0  0  0  0  0  0  0  0  0  0  0
    6.8536   -4.9564    1.7915 C   0  0  0  0  0  0  0  0  0  0  0  0
    6.6031   -3.8337    0.7497 C   0  0  2  0  0  0  0  0  0  0  0  0
    7.9524   -3.6682   -0.0020 C   0  0  0  0  0  0  0  0  0  0  0  0
    5.4196   -4.2365   -0.1853 C   0  0  2  0  0  0  0  0  0  0  0  0
    4.0186   -4.2394   -2.6711 H   0  0  0  0  0  0  0  0  0  0  0  0
    5.7302   -4.2095   -3.0596 H   0  0  0  0  0  0  0  0  0  0  0  0
    4.7382   -2.7679   -3.3271 H   0  0  0  0  0  0  0  0  0  0  0  0
    5.4264   -1.1131   -1.7652 H   0  0  0  0  0  0  0  0  0  0  0  0
    6.9589   -0.9420    0.2238 H   0  0  0  0  0  0  0  0  0  0  0  0
    5.3400   -0.5565    0.7151 H   0  0  0  0  0  0  0  0  0  0  0  0
    6.9141   -2.1765    2.0765 H   0  0  0  0  0  0  0  0  0  0  0  0
    4.4177   -2.7889    4.5208 H   0  0  0  0  0  0  0  0  0  0  0  0
    5.3474   -1.3980    3.9684 H   0  0  0  0  0  0  0  0  0  0  0  0
    6.1130   -2.9523    4.1743 H   0  0  0  0  0  0  0  0  0  0  0  0
    2.8649   -2.1921    2.8975 H   0  0  0  0  0  0  0  0  0  0  0  0
    3.7637   -0.8972    2.1877 H   0  0  0  0  0  0  0  0  0  0  0  0
    1.8215   -1.9099    0.8870 H   0  0  0  0  0  0  0  0  0  0  0  0
    3.2452   -1.6726   -0.0197 H   0  0  0  0  0  0  0  0  0  0  0  0
    2.0707   -4.2045    1.1011 H   0  0  0  0  0  0  0  0  0  0  0  0
    2.6136   -4.6859   -1.2646 H   0  0  0  0  0  0  0  0  0  0  0  0
    4.6208   -6.7336    0.6413 H   0  0  0  0  0  0  0  0  0  0  0  0
    3.4053   -6.2509   -0.4879 H   0  0  0  0  0  0  0  0  0  0  0  0
    2.9836   -6.3799    1.2029 H   0  0  0  0  0  0  0  0  0  0  0  0
    3.6000   -4.5277    2.8218 H   0  0  0  0  0  0  0  0  0  0  0  0
    5.8519   -5.0539    3.7125 H   0  0  0  0  0  0  0  0  0  0  0  0
    5.3443   -6.2686    2.6159 H   0  0  0  0  0  0  0  0  0  0  0  0
    7.6859   -4.6804    2.4357 H   0  0  0  0  0  0  0  0  0  0  0  0
    7.1554   -5.8816    1.2970 H   0  0  0  0  0  0  0  0  0  0  0  0
    8.2538   -4.6164   -0.4457 H   0  0  0  0  0  0  0  0  0  0  0  0
    8.7425   -3.3686    0.6867 H   0  0  0  0  0  0  0  0  0  0  0  0
    7.9251   -2.9333   -0.8045 H   0  0  0  0  0  0  0  0  0  0  0  0
    5.7262   -5.1390   -0.7174 H   0  0  0  0  0  0  0  0  0  0  0  0
  1  2  1  0
  1 20  1  0
  1 21  1  0
  1 22  1  0
  2 19  1  0
  2  3  2  0
  3  4  1  0
  3 23  1  0
  4  5  1  0
  4 24  1  0
  4 25  1  0
  5 17  1  0
  5  6  1  0
  5 26  1  1
  6 14  1  0
  6  7  1  1
  6  8  1  0
  7 27  1  0
  7 28  1  0
  7 29  1  0
  8  9  1  0
  8 30  1  0
  8 31  1  0
  9 10  1  0
  9 32  1  0
  9 33  1  0
 10 11  1  0
 10 12  1  0
 10 34  1  1
 11 35  1  0
 12 19  1  0
 12 13  1  1
 12 14  1  0
 13 36  1  0
 13 37  1  0
 13 38  1  0
 14 15  1  0
 14 39  1  1
 15 16  1  0
 15 40  1  0
 15 41  1  0
 16 17  1  0
 16 42  1  0
 16 43  1  0
 17 18  1  6
 17 19  1  0
 18 44  1  0
 18 45  1  0
 18 46  1  0
 19 47  1  6
M  END
>  <i_m_ct_stereo_status>  (320) 
1

>  <s_m_source_file>  (320) 
/var/tmp/pbs.5076255.sched01/tmpua_2_py4/114lbcpx7pn.sdf

>  <i_m_source_file_index>  (320) 
35

>  <i_lp_mmshare_version>  (320) 
48012

>  <i_f3d_flags>  (320) 
0

>  <s_epik_input>  (320) 
W0NIMl0xW0NIMl1bQ0BASF0oW09IXSlbQ0BdKFtDSDNdKShbQ0BIXTJbQ0gyXVtDSDJdMylbQ0BASF0oQyhbQ0gzXSk9W0NIXVtDSDJdNClbQ0BAXTMoW0NIM10pW0NAQEhdNFtDQEBdMTJbQ0gzXQ==

>  <s_epik_cmdline>  (320) 
J2VwaWtfcHl0aG9uJywgJy1waHQnLCAnMi4wJywgJy1waCcsICc3LjAnLCAnLXRuJywgJzgnLCAnLW1hJywgJzIwMCcsICctaW1hZScsICc8aW5maWxlLm1hZT4nLCAnLW9tYWUnLCAnPG91dGZpbGUubWFlPic=

>  <r_lp_tautomer_probability>  (320) 
1

>  <r_epik_Ionization_Penalty>  (320) 
2.76699e-06

>  <r_epik_Ionization_Penalty_Charging>  (320) 
0

>  <r_epik_Ionization_Penalty_Neutral>  (320) 
2.76699e-06

>  <r_epik_State_Penalty>  (320) 
-0

>  <r_epik_Charging_Adjusted_Penalty>  (320) 
0

>  <i_epik_Tot_Q>  (320) 
0

>  <i_epik_Tot_abs_Q>  (320) 
0

>  <s_lp_Force_Field>  (320) 
OPLS3e

>  <r_lp_Energy>  (320) 
55.2808

>  <b_lp_Chiralities_Consistent>  (320) 
1

>  <s_lp_Variant>  (320) 
109:0-1

>  <s_i_glide_gridfile>  (320) 
pfpi4k_grid

>  <i_i_glide_lignum>  (320) 
35

>  <i_i_glide_rotatable_bonds>  (320) 
1

>  <r_i_docking_score>  (320) 
-4.02602

>  <r_i_glide_ligand_efficiency>  (320) 
-0.211896

>  <r_i_glide_ligand_efficiency_sa>  (320) 
-0.565423

>  <r_i_glide_ligand_efficiency_ln>  (320) 
-1.02068

>  <r_i_glide_gscore>  (320) 
-4.02602

>  <r_i_glide_lipo>  (320) 
-0.948245

>  <r_i_glide_hbond>  (320) 
-0.32

>  <r_i_glide_metal>  (320) 
-0

>  <r_i_glide_rewards>  (320) 
-1.63354

>  <r_i_glide_evdw>  (320) 
-15.4772

>  <r_i_glide_ecoul>  (320) 
-2.33582

>  <r_i_glide_erotb>  (320) 
0

>  <r_i_glide_esite>  (320) 
0

>  <r_i_glide_emodel>  (320) 
-21.2177

>  <r_i_glide_energy>  (320) 
-17.813

>  <r_i_glide_einternal>  (320) 
1.09673

>  <r_i_glide_intrahb_reward>  (320) 
-0

>  <i_i_glide_confnum>  (320) 
2

>  <i_i_glide_posenum>  (320) 
8

>  <r_i_glide_eff_state_penalty>  (320) 
0

>  <ligand_id>  (320) 
109

>  <original_smiles>  (320) 
CC1=CCC2C3(C)CCC(O)C4(C)C3CCC2(C)C14

>  <smiles>  (320) 
[H]OC1([H])C([H])([H])C([H])([H])C2(C([H])([H])[H])C3([H])C([H])([H])C([H])=C(C([H])([H])[H])C4([H])C3(C([H])([H])[H])C([H])([H])C([H])([H])C2([H])C14C([H])([H])[H]

$$$$
109:0:1
     RDKit          3D

 47 50  0  0  1  0  0  0  0  0999 V2000
    4.6753   -3.3845   -2.6109 C   0  0  0  0  0  0  0  0  0  0  0  0
    5.0840   -2.9555   -1.2150 C   0  0  0  0  0  0  0  0  0  0  0  0
    5.4672   -1.6858   -0.9569 C   0  0  0  0  0  0  0  0  0  0  0  0
    5.9908   -1.2398    0.4011 C   0  0  0  0  0  0  0  0  0  0  0  0
    6.0602   -2.3840    1.4547 C   0  0  1  0  0  0  0  0  0  0  0  0
    4.8078   -2.5705    2.4143 C   0  0  1  0  0  0  0  0  0  0  0  0
    5.2095   -2.2691    3.8738 C   0  0  0  0  0  0  0  0  0  0  0  0
    3.6029   -1.6293    2.1789 C   0  0  0  0  0  0  0  0  0  0  0  0
    2.8342   -1.8642    0.8863 C   0  0  0  0  0  0  0  0  0  0  0  0
    2.6646   -3.3497    0.5341 C   0  0  1  0  0  0  0  0  0  0  0  0
    2.1085   -3.4538   -0.7604 O   0  0  0  0  0  0  0  0  0  0  0  0
    3.9037   -4.2711    0.7653 C   0  0  2  0  0  0  0  0  0  0  0  0
    3.3963   -5.7253    0.6020 C   0  0  0  0  0  0  0  0  0  0  0  0
    4.2948   -4.0350    2.2589 C   0  0  1  0  0  0  0  0  0  0  0  0
    5.3780   -5.0367    2.6999 C   0  0  0  0  0  0  0  0  0  0  0  0
    6.6100   -4.8753    1.8061 C   0  0  0  0  0  0  0  0  0  0  0  0
    6.4301   -3.7391    0.7673 C   0  0  2  0  0  0  0  0  0  0  0  0
    7.7759   -3.6752   -0.0031 C   0  0  0  0  0  0  0  0  0  0  0  0
    5.2005   -4.0471   -0.1440 C   0  0  2  0  0  0  0  0  0  0  0  0
    3.7189   -3.8995   -2.5996 H   0  0  0  0  0  0  0  0  0  0  0  0
    5.4230   -4.0634   -3.0233 H   0  0  0  0  0  0  0  0  0  0  0  0
    4.5794   -2.5242   -3.2749 H   0  0  0  0  0  0  0  0  0  0  0  0
    5.4198   -0.9322   -1.7286 H   0  0  0  0  0  0  0  0  0  0  0  0
    7.0082   -0.8924    0.2244 H   0  0  0  0  0  0  0  0  0  0  0  0
    5.4392   -0.3681    0.7498 H   0  0  0  0  0  0  0  0  0  0  0  0
    6.9037   -2.1170    2.0815 H   0  0  0  0  0  0  0  0  0  0  0  0
    4.4166   -2.5202    4.5782 H   0  0  0  0  0  0  0  0  0  0  0  0
    5.4465   -1.2122    4.0038 H   0  0  0  0  0  0  0  0  0  0  0  0
    6.0833   -2.8286    4.1876 H   0  0  0  0  0  0  0  0  0  0  0  0
    2.8887   -1.7934    2.9873 H   0  0  0  0  0  0  0  0  0  0  0  0
    3.8787   -0.5782    2.2592 H   0  0  0  0  0  0  0  0  0  0  0  0
    1.8440   -1.4286    1.0240 H   0  0  0  0  0  0  0  0  0  0  0  0
    3.2556   -1.2965    0.0628 H   0  0  0  0  0  0  0  0  0  0  0  0
    1.8877   -3.7129    1.2072 H   0  0  0  0  0  0  0  0  0  0  0  0
    1.7525   -2.5976   -0.9938 H   0  0  0  0  0  0  0  0  0  0  0  0
    4.1941   -6.4654    0.6848 H   0  0  0  0  0  0  0  0  0  0  0  0
    2.9493   -5.8615   -0.3724 H   0  0  0  0  0  0  0  0  0  0  0  0
    2.6213   -5.9717    1.3316 H   0  0  0  0  0  0  0  0  0  0  0  0
    3.4202   -4.1808    2.9016 H   0  0  0  0  0  0  0  0  0  0  0  0
    5.6401   -4.8927    3.7456 H   0  0  0  0  0  0  0  0  0  0  0  0
    5.0127   -6.0601    2.6586 H   0  0  0  0  0  0  0  0  0  0  0  0
    7.4780   -4.6766    2.4338 H   0  0  0  0  0  0  0  0  0  0  0  0
    6.8143   -5.8220    1.3014 H   0  0  0  0  0  0  0  0  0  0  0  0
    8.0071   -4.6494   -0.4281 H   0  0  0  0  0  0  0  0  0  0  0  0
    8.5951   -3.4250    0.6706 H   0  0  0  0  0  0  0  0  0  0  0  0
    7.7855   -2.9495   -0.8147 H   0  0  0  0  0  0  0  0  0  0  0  0
    5.4164   -4.9733   -0.6821 H   0  0  0  0  0  0  0  0  0  0  0  0
  1  2  1  0
  1 20  1  0
  1 21  1  0
  1 22  1  0
  2 19  1  0
  2  3  2  0
  3  4  1  0
  3 23  1  0
  4  5  1  0
  4 24  1  0
  4 25  1  0
  5 17  1  0
  5  6  1  0
  5 26  1  1
  6 14  1  0
  6  7  1  1
  6  8  1  0
  7 27  1  0
  7 28  1  0
  7 29  1  0
  8  9  1  0
  8 30  1  0
  8 31  1  0
  9 10  1  0
  9 32  1  0
  9 33  1  0
 10 11  1  0
 10 12  1  0
 10 34  1  1
 11 35  1  0
 12 19  1  0
 12 13  1  1
 12 14  1  0
 13 36  1  0
 13 37  1  0
 13 38  1  0
 14 15  1  0
 14 39  1  1
 15 16  1  0
 15 40  1  0
 15 41  1  0
 16 17  1  0
 16 42  1  0
 16 43  1  0
 17 18  1  6
 17 19  1  0
 18 44  1  0
 18 45  1  0
 18 46  1  0
 19 47  1  6
M  END
>  <i_m_ct_stereo_status>  (321) 
1

>  <s_m_source_file>  (321) 
/var/tmp/pbs.5076255.sched01/tmpua_2_py4/114lbcpx7pn.sdf

>  <i_m_source_file_index>  (321) 
35

>  <i_lp_mmshare_version>  (321) 
48012

>  <i_f3d_flags>  (321) 
0

>  <s_epik_input>  (321) 
W0NIMl0xW0NIMl1bQ0BASF0oW09IXSlbQ0BdKFtDSDNdKShbQ0BIXTJbQ0gyXVtDSDJdMylbQ0BASF0oQyhbQ0gzXSk9W0NIXVtDSDJdNClbQ0BAXTMoW0NIM10pW0NAQEhdNFtDQEBdMTJbQ0gzXQ==

>  <s_epik_cmdline>  (321) 
J2VwaWtfcHl0aG9uJywgJy1waHQnLCAnMi4wJywgJy1waCcsICc3LjAnLCAnLXRuJywgJzgnLCAnLW1hJywgJzIwMCcsICctaW1hZScsICc8aW5maWxlLm1hZT4nLCAnLW9tYWUnLCAnPG91dGZpbGUubWFlPic=

>  <r_lp_tautomer_probability>  (321) 
1

>  <r_epik_Ionization_Penalty>  (321) 
2.76699e-06

>  <r_epik_Ionization_Penalty_Charging>  (321) 
0

>  <r_epik_Ionization_Penalty_Neutral>  (321) 
2.76699e-06

>  <r_epik_State_Penalty>  (321) 
-0

>  <r_epik_Charging_Adjusted_Penalty>  (321) 
0

>  <i_epik_Tot_Q>  (321) 
0

>  <i_epik_Tot_abs_Q>  (321) 
0

>  <s_lp_Force_Field>  (321) 
OPLS3e

>  <r_lp_Energy>  (321) 
55.2808

>  <b_lp_Chiralities_Consistent>  (321) 
1

>  <s_lp_Variant>  (321) 
109:0-1

>  <s_i_glide_gridfile>  (321) 
pfpi4k_grid

>  <i_i_glide_lignum>  (321) 
35

>  <i_i_glide_rotatable_bonds>  (321) 
1

>  <r_i_docking_score>  (321) 
-3.6896

>  <r_i_glide_ligand_efficiency>  (321) 
-0.19419

>  <r_i_glide_ligand_efficiency_sa>  (321) 
-0.518176

>  <r_i_glide_ligand_efficiency_ln>  (321) 
-0.935393

>  <r_i_glide_gscore>  (321) 
-3.6896

>  <r_i_glide_lipo>  (321) 
-0.808081

>  <r_i_glide_hbond>  (321) 
-0.1757

>  <r_i_glide_metal>  (321) 
-0

>  <r_i_glide_rewards>  (321) 
-1.63354

>  <r_i_glide_evdw>  (321) 
-15.2115

>  <r_i_glide_ecoul>  (321) 
-2.07804

>  <r_i_glide_erotb>  (321) 
0

>  <r_i_glide_esite>  (321) 
0

>  <r_i_glide_emodel>  (321) 
-20.2636

>  <r_i_glide_energy>  (321) 
-17.2896

>  <r_i_glide_einternal>  (321) 
1.15829

>  <r_i_glide_intrahb_reward>  (321) 
-0

>  <i_i_glide_confnum>  (321) 
2

>  <i_i_glide_posenum>  (321) 
24

>  <r_i_glide_eff_state_penalty>  (321) 
0

>  <ligand_id>  (321) 
109

>  <original_smiles>  (321) 
CC1=CCC2C3(C)CCC(O)C4(C)C3CCC2(C)C14

>  <smiles>  (321) 
[H]OC1([H])C([H])([H])C([H])([H])C2(C([H])([H])[H])C3([H])C([H])([H])C([H])=C(C([H])([H])[H])C4([H])C3(C([H])([H])[H])C([H])([H])C([H])([H])C2([H])C14C([H])([H])[H]

$$$$
109:0:2
     RDKit          3D

 47 50  0  0  1  0  0  0  0  0999 V2000
    6.1011   -5.3076    2.3197 C   0  0  0  0  0  0  0  0  0  0  0  0
    5.7796   -4.3797    1.1606 C   0  0  0  0  0  0  0  0  0  0  0  0
    5.9340   -4.7705   -0.1136 C   0  0  0  0  0  0  0  0  0  0  0  0
    5.7644   -3.8547   -1.3297 C   0  0  0  0  0  0  0  0  0  0  0  0
    5.3774   -2.4105   -0.9604 C   0  0  1  0  0  0  0  0  0  0  0  0
    3.8338   -2.1003   -0.9093 C   0  0  1  0  0  0  0  0  0  0  0  0
    3.5679   -1.0681   -2.0323 C   0  0  0  0  0  0  0  0  0  0  0  0
    2.8464   -3.2731   -1.1867 C   0  0  0  0  0  0  0  0  0  0  0  0
    2.7724   -4.3636   -0.1069 C   0  0  0  0  0  0  0  0  0  0  0  0
    2.8403   -3.8108    1.3289 C   0  0  1  0  0  0  0  0  0  0  0  0
    2.9474   -4.9013    2.2197 O   0  0  0  0  0  0  0  0  0  0  0  0
    3.8618   -2.6463    1.5850 C   0  0  2  0  0  0  0  0  0  0  0  0
    3.5707   -2.1359    3.0193 C   0  0  0  0  0  0  0  0  0  0  0  0
    3.4914   -1.5539    0.5239 C   0  0  1  0  0  0  0  0  0  0  0  0
    4.2697   -0.2569    0.8008 C   0  0  0  0  0  0  0  0  0  0  0  0
    5.7646   -0.5377    0.7304 C   0  0  0  0  0  0  0  0  0  0  0  0
    6.0629   -2.0084    0.3768 C   0  0  2  0  0  0  0  0  0  0  0  0
    7.6008   -2.1091    0.3108 C   0  0  0  0  0  0  0  0  0  0  0  0
    5.4233   -2.9345    1.4661 C   0  0  2  0  0  0  0  0  0  0  0  0
    5.3095   -5.3375    3.0649 H   0  0  0  0  0  0  0  0  0  0  0  0
    7.0130   -4.9782    2.8095 H   0  0  0  0  0  0  0  0  0  0  0  0
    6.2809   -6.3178    1.9580 H   0  0  0  0  0  0  0  0  0  0  0  0
    6.2398   -5.7860   -0.3085 H   0  0  0  0  0  0  0  0  0  0  0  0
    6.7375   -3.8290   -1.8203 H   0  0  0  0  0  0  0  0  0  0  0  0
    5.0841   -4.3082   -2.0547 H   0  0  0  0  0  0  0  0  0  0  0  0
    5.8198   -1.7814   -1.7355 H   0  0  0  0  0  0  0  0  0  0  0  0
    2.5764   -0.6627   -1.9442 H   0  0  0  0  0  0  0  0  0  0  0  0
    3.6402   -1.5195   -3.0218 H   0  0  0  0  0  0  0  0  0  0  0  0
    4.2551   -0.2247   -2.0167 H   0  0  0  0  0  0  0  0  0  0  0  0
    1.8400   -2.8659   -1.2617 H   0  0  0  0  0  0  0  0  0  0  0  0
    3.0165   -3.7272   -2.1636 H   0  0  0  0  0  0  0  0  0  0  0  0
    1.8371   -4.9119   -0.2317 H   0  0  0  0  0  0  0  0  0  0  0  0
    3.5202   -5.1289   -0.2861 H   0  0  0  0  0  0  0  0  0  0  0  0
    1.8533   -3.3897    1.5323 H   0  0  0  0  0  0  0  0  0  0  0  0
    3.7989   -5.2970    2.0913 H   0  0  0  0  0  0  0  0  0  0  0  0
    4.2414   -1.3312    3.3187 H   0  0  0  0  0  0  0  0  0  0  0  0
    3.7011   -2.9275    3.7602 H   0  0  0  0  0  0  0  0  0  0  0  0
    2.5485   -1.7659    3.1053 H   0  0  0  0  0  0  0  0  0  0  0  0
    2.4286   -1.3261    0.5998 H   0  0  0  0  0  0  0  0  0  0  0  0
    4.0181    0.5074    0.0865 H   0  0  0  0  0  0  0  0  0  0  0  0
    4.0094    0.1653    1.7683 H   0  0  0  0  0  0  0  0  0  0  0  0
    6.2141    0.1218   -0.0107 H   0  0  0  0  0  0  0  0  0  0  0  0
    6.2172   -0.2867    1.6909 H   0  0  0  0  0  0  0  0  0  0  0  0
    7.9972   -1.7517    1.2512 H   0  0  0  0  0  0  0  0  0  0  0  0
    8.0229   -1.4655   -0.4585 H   0  0  0  0  0  0  0  0  0  0  0  0
    7.9801   -3.1163    0.1390 H   0  0  0  0  0  0  0  0  0  0  0  0
    5.9119   -2.6976    2.4139 H   0  0  0  0  0  0  0  0  0  0  0  0
  1  2  1  0
  1 20  1  0
  1 21  1  0
  1 22  1  0
  2 19  1  0
  2  3  2  0
  3  4  1  0
  3 23  1  0
  4  5  1  0
  4 24  1  0
  4 25  1  0
  5 17  1  0
  5  6  1  0
  5 26  1  6
  6 14  1  0
  6  7  1  6
  6  8  1  0
  7 27  1  0
  7 28  1  0
  7 29  1  0
  8  9  1  0
  8 30  1  0
  8 31  1  0
  9 10  1  0
  9 32  1  0
  9 33  1  0
 10 11  1  0
 10 12  1  0
 10 34  1  1
 11 35  1  0
 12 19  1  0
 12 13  1  1
 12 14  1  0
 13 36  1  0
 13 37  1  0
 13 38  1  0
 14 15  1  0
 14 39  1  6
 15 16  1  0
 15 40  1  0
 15 41  1  0
 16 17  1  0
 16 42  1  0
 16 43  1  0
 17 18  1  6
 17 19  1  0
 18 44  1  0
 18 45  1  0
 18 46  1  0
 19 47  1  1
M  END
>  <i_m_ct_stereo_status>  (322) 
1

>  <s_m_source_file>  (322) 
/var/tmp/pbs.5076255.sched01/tmpua_2_py4/114lbcpx7pn.sdf

>  <i_m_source_file_index>  (322) 
35

>  <i_lp_mmshare_version>  (322) 
48012

>  <i_f3d_flags>  (322) 
0

>  <s_epik_input>  (322) 
W0NIMl0xW0NIMl1bQ0BASF0oW09IXSlbQ0BdKFtDSDNdKShbQ0BIXTJbQ0gyXVtDSDJdMylbQ0BASF0oQyhbQ0gzXSk9W0NIXVtDSDJdNClbQ0BAXTMoW0NIM10pW0NAQEhdNFtDQEBdMTJbQ0gzXQ==

>  <s_epik_cmdline>  (322) 
J2VwaWtfcHl0aG9uJywgJy1waHQnLCAnMi4wJywgJy1waCcsICc3LjAnLCAnLXRuJywgJzgnLCAnLW1hJywgJzIwMCcsICctaW1hZScsICc8aW5maWxlLm1hZT4nLCAnLW9tYWUnLCAnPG91dGZpbGUubWFlPic=

>  <r_lp_tautomer_probability>  (322) 
1

>  <r_epik_Ionization_Penalty>  (322) 
2.76699e-06

>  <r_epik_Ionization_Penalty_Charging>  (322) 
0

>  <r_epik_Ionization_Penalty_Neutral>  (322) 
2.76699e-06

>  <r_epik_State_Penalty>  (322) 
-0

>  <r_epik_Charging_Adjusted_Penalty>  (322) 
0

>  <i_epik_Tot_Q>  (322) 
0

>  <i_epik_Tot_abs_Q>  (322) 
0

>  <s_lp_Force_Field>  (322) 
OPLS3e

>  <r_lp_Energy>  (322) 
55.2808

>  <b_lp_Chiralities_Consistent>  (322) 
1

>  <s_lp_Variant>  (322) 
109:0-1

>  <s_i_glide_gridfile>  (322) 
pfpi4k_grid

>  <i_i_glide_lignum>  (322) 
35

>  <i_i_glide_rotatable_bonds>  (322) 
1

>  <r_i_docking_score>  (322) 
-3.18178

>  <r_i_glide_ligand_efficiency>  (322) 
-0.167462

>  <r_i_glide_ligand_efficiency_sa>  (322) 
-0.446857

>  <r_i_glide_ligand_efficiency_ln>  (322) 
-0.80665

>  <r_i_glide_gscore>  (322) 
-3.18178

>  <r_i_glide_lipo>  (322) 
-0.707975

>  <r_i_glide_hbond>  (322) 
0

>  <r_i_glide_metal>  (322) 
-0

>  <r_i_glide_rewards>  (322) 
-1.63354

>  <r_i_glide_evdw>  (322) 
-15.3978

>  <r_i_glide_ecoul>  (322) 
-0.469186

>  <r_i_glide_erotb>  (322) 
0

>  <r_i_glide_esite>  (322) 
0

>  <r_i_glide_emodel>  (322) 
-19.0879

>  <r_i_glide_energy>  (322) 
-15.867

>  <r_i_glide_einternal>  (322) 
0.000144451

>  <r_i_glide_intrahb_reward>  (322) 
-0

>  <i_i_glide_confnum>  (322) 
1

>  <i_i_glide_posenum>  (322) 
34

>  <r_i_glide_eff_state_penalty>  (322) 
0

>  <ligand_id>  (322) 
109

>  <original_smiles>  (322) 
CC1=CCC2C3(C)CCC(O)C4(C)C3CCC2(C)C14

>  <smiles>  (322) 
[H]OC1([H])C([H])([H])C([H])([H])C2(C([H])([H])[H])C3([H])C([H])([H])C([H])=C(C([H])([H])[H])C4([H])C3(C([H])([H])[H])C([H])([H])C([H])([H])C2([H])C14C([H])([H])[H]

$$$$
110:0:0
     RDKit          3D

 97105  0  0  1  0  0  0  0  0999 V2000
    0.8202  -11.9425    4.4247 C   0  0  0  0  0  0  0  0  0  0  0  0
    1.4030  -10.6126    3.9981 C   0  0  2  0  0  0  0  0  0  0  0  0
    0.8103   -9.9712    2.7365 C   0  0  0  0  0  0  0  0  0  0  0  0
    2.0197   -9.3796    1.9848 C   0  0  1  0  0  0  0  0  0  0  0  0
    2.2324   -7.8382    2.2306 C   0  0  2  0  0  0  0  0  0  0  0  0
    1.2655   -7.1585    1.2276 C   0  0  0  0  0  0  0  0  0  0  0  0
    3.7676   -7.3971    2.1317 C   0  0  2  0  0  0  0  0  0  0  0  0
    4.6953   -7.7420    3.3671 C   0  0  1  0  0  0  0  0  0  0  0  0
    4.0436   -7.3389    4.7306 C   0  0  0  0  0  0  0  0  0  0  0  0
    5.4373   -9.0926    3.6120 C   0  0  1  0  0  0  0  0  0  0  0  0
    5.7719   -9.7966    2.4139 O   0  0  0  0  0  0  0  0  0  0  0  0
    6.6777   -8.7284    4.4361 C   0  0  1  0  0  0  0  0  0  0  0  0
    7.7145   -9.6925    4.3639 O   0  0  0  0  0  0  0  0  0  0  0  0
    7.0577   -7.3036    4.0103 C   0  0  0  0  0  0  0  0  0  0  0  0
    5.9463   -6.9775    2.9992 C   0  0  2  0  0  0  0  0  0  0  0  0
    5.5260   -5.6137    2.4944 C   0  0  2  0  0  0  0  0  0  0  0  0
    5.3701   -4.5318    3.5598 C   0  0  0  0  0  0  0  0  0  0  0  0
    5.1162   -3.2061    2.8342 C   0  0  0  0  0  0  0  0  0  0  0  0
    3.9364   -3.2369    1.8197 C   0  0  2  0  0  0  0  0  0  0  0  0
    2.7601   -2.2517    2.1122 C   0  0  1  0  0  0  0  0  0  0  0  0
    1.8506   -3.0233    3.0612 C   0  0  2  0  0  0  0  0  0  0  0  0
    2.0191   -2.4328    4.4575 C   0  0  0  0  0  0  0  0  0  0  0  0
    2.4394   -0.9729    4.2268 C   0  0  1  0  0  0  0  0  0  0  0  0
    3.0180   -0.8871    2.7866 C   0  0  2  0  0  0  0  0  0  0  0  0
    2.3489    0.3404    2.1301 C   0  0  0  0  0  0  0  0  0  0  0  0
    1.8998    1.1681    3.3387 C   0  0  1  0  0  0  0  0  0  0  0  0
    0.9636    2.2177    3.1347 O   0  0  0  0  0  0  0  0  0  0  0  0
    0.7834    3.0088    4.3340 C   0  0  2  0  0  0  0  0  0  0  0  0
   -0.1657    4.1703    4.0507 C   0  0  0  0  0  0  0  0  0  0  0  0
    1.1156    4.9658    3.8658 C   0  0  0  0  0  0  0  0  0  0  0  0
    1.8684    3.9408    4.5494 O   0  0  0  0  0  0  0  0  0  0  0  0
    0.4446    2.1401    5.5609 C   0  0  0  0  0  0  0  0  0  0  0  0
    1.2705    0.8491    5.6827 C   0  0  0  0  0  0  0  0  0  0  0  0
    1.3467    0.1314    4.3224 C   0  0  2  0  0  0  0  0  0  0  0  0
   -0.0607   -0.3778    3.8912 C   0  0  0  0  0  0  0  0  0  0  0  0
    2.2182   -4.4948    2.9415 C   0  0  0  0  0  0  0  0  0  0  0  0
    3.2168   -4.6307    1.7471 C   0  0  1  0  0  0  0  0  0  0  0  0
    2.4968   -4.5435    0.5185 O   0  0  0  0  0  0  0  0  0  0  0  0
    4.2199   -5.9023    1.6664 C   0  0  2  0  0  0  0  0  0  0  0  0
    4.7244   -6.0561    0.1934 C   0  0  0  0  0  0  0  0  0  0  0  0
    3.0585  -10.2306    2.4251 O   0  0  0  0  0  0  0  0  0  0  0  0
    2.8136  -10.9013    3.5388 C   0  0  0  0  0  0  0  0  0  0  0  0
    3.5657  -11.6777    4.1168 O   0  0  0  0  0  0  0  0  0  0  0  0
    1.3710  -12.3659    5.2508 H   0  0  0  0  0  0  0  0  0  0  0  0
    0.7948  -12.6404    3.5993 H   0  0  0  0  0  0  0  0  0  0  0  0
   -0.2143  -11.7731    4.7788 H   0  0  0  0  0  0  0  0  0  0  0  0
    1.4440   -9.8863    4.8180 H   0  0  0  0  0  0  0  0  0  0  0  0
    0.3846  -10.7668    2.1136 H   0  0  0  0  0  0  0  0  0  0  0  0
    0.0205   -9.2577    2.9596 H   0  0  0  0  0  0  0  0  0  0  0  0
    1.9206   -9.5310    0.9119 H   0  0  0  0  0  0  0  0  0  0  0  0
    1.8824   -7.6168    3.2336 H   0  0  0  0  0  0  0  0  0  0  0  0
    1.7598   -6.9281    0.2921 H   0  0  0  0  0  0  0  0  0  0  0  0
    0.8470   -6.2153    1.5704 H   0  0  0  0  0  0  0  0  0  0  0  0
    0.3616   -7.7472    1.0311 H   0  0  0  0  0  0  0  0  0  0  0  0
    4.1393   -8.0473    1.3389 H   0  0  0  0  0  0  0  0  0  0  0  0
    4.7505   -6.8997    5.4292 H   0  0  0  0  0  0  0  0  0  0  0  0
    3.5931   -8.1944    5.2335 H   0  0  0  0  0  0  0  0  0  0  0  0
    3.2341   -6.6319    4.6371 H   0  0  0  0  0  0  0  0  0  0  0  0
    4.9022   -9.7217    4.3127 H   0  0  0  0  0  0  0  0  0  0  0  0
    4.9709  -10.1852    2.0802 H   0  0  0  0  0  0  0  0  0  0  0  0
    6.3479   -8.7119    5.4769 H   0  0  0  0  0  0  0  0  0  0  0  0
    7.9065   -9.8388    3.4624 H   0  0  0  0  0  0  0  0  0  0  0  0
    7.0377   -6.6447    4.8794 H   0  0  0  0  0  0  0  0  0  0  0  0
    8.0434   -7.2836    3.5449 H   0  0  0  0  0  0  0  0  0  0  0  0
    6.3348   -7.4401    2.0878 H   0  0  0  0  0  0  0  0  0  0  0  0
    6.3381   -5.2742    1.8454 H   0  0  0  0  0  0  0  0  0  0  0  0
    4.6029   -4.7533    4.2898 H   0  0  0  0  0  0  0  0  0  0  0  0
    6.2612   -4.4681    4.1651 H   0  0  0  0  0  0  0  0  0  0  0  0
    5.0301   -2.4226    3.5834 H   0  0  0  0  0  0  0  0  0  0  0  0
    6.0191   -2.9688    2.2669 H   0  0  0  0  0  0  0  0  0  0  0  0
    4.3574   -2.9696    0.8462 H   0  0  0  0  0  0  0  0  0  0  0  0
    2.2182   -2.0961    1.1738 H   0  0  0  0  0  0  0  0  0  0  0  0
    0.8245   -2.8900    2.7509 H   0  0  0  0  0  0  0  0  0  0  0  0
    1.1309   -2.5693    5.0757 H   0  0  0  0  0  0  0  0  0  0  0  0
    2.8254   -2.9660    4.9587 H   0  0  0  0  0  0  0  0  0  0  0  0
    3.2422   -0.7510    4.9306 H   0  0  0  0  0  0  0  0  0  0  0  0
    4.0863   -0.6870    2.8224 H   0  0  0  0  0  0  0  0  0  0  0  0
    3.0526    0.8826    1.5003 H   0  0  0  0  0  0  0  0  0  0  0  0
    1.4962    0.0600    1.5102 H   0  0  0  0  0  0  0  0  0  0  0  0
    2.8211    1.5896    3.7534 H   0  0  0  0  0  0  0  0  0  0  0  0
   -0.8066    4.0626    3.1836 H   0  0  0  0  0  0  0  0  0  0  0  0
   -0.7032    4.4778    4.9609 H   0  0  0  0  0  0  0  0  0  0  0  0
    1.4076    5.0646    2.8100 H   0  0  0  0  0  0  0  0  0  0  0  0
    1.1086    5.9345    4.3741 H   0  0  0  0  0  0  0  0  0  0  0  0
    0.5256    2.7285    6.4832 H   0  0  0  0  0  0  0  0  0  0  0  0
   -0.6040    1.8705    5.4989 H   0  0  0  0  0  0  0  0  0  0  0  0
    2.2741    1.1152    6.0111 H   0  0  0  0  0  0  0  0  0  0  0  0
    0.8563    0.1941    6.4508 H   0  0  0  0  0  0  0  0  0  0  0  0
   -0.7758    0.4325    3.7708 H   0  0  0  0  0  0  0  0  0  0  0  0
   -0.4915   -1.0700    4.6144 H   0  0  0  0  0  0  0  0  0  0  0  0
   -0.0335   -0.8836    2.9301 H   0  0  0  0  0  0  0  0  0  0  0  0
    2.6419   -4.8542    3.8643 H   0  0  0  0  0  0  0  0  0  0  0  0
    1.2349   -4.9749    2.9069 H   0  0  0  0  0  0  0  0  0  0  0  0
    3.0982   -4.5697   -0.2007 H   0  0  0  0  0  0  0  0  0  0  0  0
    5.1044   -5.1230   -0.2247 H   0  0  0  0  0  0  0  0  0  0  0  0
    3.9558   -6.4421   -0.4736 H   0  0  0  0  0  0  0  0  0  0  0  0
    5.5467   -6.7679    0.1148 H   0  0  0  0  0  0  0  0  0  0  0  0
  1  2  1  0
  1 44  1  0
  1 45  1  0
  1 46  1  0
  2 42  1  0
  2  3  1  0
  2 47  1  1
  3  4  1  0
  3 48  1  0
  3 49  1  0
  4  5  1  0
  4 41  1  0
  4 50  1  6
  5  6  1  0
  5  7  1  0
  5 51  1  1
  6 52  1  0
  6 53  1  0
  6 54  1  0
  7 39  1  0
  7  8  1  0
  7 55  1  6
  8 15  1  0
  8  9  1  1
  8 10  1  0
  9 56  1  0
  9 57  1  0
  9 58  1  0
 10 11  1  0
 10 12  1  0
 10 59  1  1
 11 60  1  0
 12 13  1  0
 12 14  1  0
 12 61  1  1
 13 62  1  0
 14 15  1  0
 14 63  1  0
 14 64  1  0
 15 16  1  0
 15 65  1  6
 16 39  1  0
 16 17  1  0
 16 66  1  6
 17 18  1  0
 17 67  1  0
 17 68  1  0
 18 19  1  0
 18 69  1  0
 18 70  1  0
 19 37  1  0
 19 20  1  0
 19 71  1  6
 20 24  1  0
 20 21  1  0
 20 72  1  6
 21 22  1  0
 21 36  1  0
 21 73  1  6
 22 23  1  0
 22 74  1  0
 22 75  1  0
 23 34  1  0
 23 24  1  0
 23 76  1  1
 24 25  1  0
 24 77  1  1
 25 26  1  0
 25 78  1  0
 25 79  1  0
 26 34  1  0
 26 27  1  0
 26 80  1  1
 28 27  1  6
 28 31  1  0
 28 29  1  0
 28 32  1  0
 29 30  1  0
 29 81  1  0
 29 82  1  0
 30 31  1  0
 30 83  1  0
 30 84  1  0
 32 33  1  0
 32 85  1  0
 32 86  1  0
 33 34  1  0
 33 87  1  0
 33 88  1  0
 34 35  1  6
 35 89  1  0
 35 90  1  0
 35 91  1  0
 36 37  1  0
 36 92  1  0
 36 93  1  0
 37 38  1  6
 37 39  1  0
 38 94  1  0
 39 40  1  6
 40 95  1  0
 40 96  1  0
 40 97  1  0
 41 42  1  0
 42 43  2  0
M  END
>  <i_m_ct_stereo_status>  (323) 
1

>  <s_m_source_file>  (323) 
/var/tmp/pbs.5076255.sched01/tmpua_2_py4/114lbcpx7pn.sdf

>  <i_m_source_file_index>  (323) 
36

>  <i_lp_mmshare_version>  (323) 
48012

>  <i_f3d_flags>  (323) 
0

>  <s_epik_input>  (323) 
W0NIM11bQ0BASF0xW0NIMl1bQ0BIXShPQzE9TylbQ0BIXShbQ0gzXSlbQ0BASF0yW0NAQF0oW0NIM10pKFtDQEBIXShbT0hdKVtDQEBIXShbT0hdKVtDSDJdMylbQ0BIXTNbQ0BIXShbQ0gyXVtDSDJdNClbQ0BdMihbQ0gzXSlbQ0BAXShbT0hdKShbQ0gyXVtDQEhdNVtDSDJdNilbQ0BIXTRbQ0BASF01W0NAQEhdKFtDSDJdNylbQ0BIXTZbQ0BAXShbQ0gzXSkoW0NIMl1bQ0gyXTgpW0NAQEhdN09bQ0BAXTg5W0NIMl1bQ0gyXU85

>  <s_epik_cmdline>  (323) 
J2VwaWtfcHl0aG9uJywgJy1waHQnLCAnMi4wJywgJy1waCcsICc3LjAnLCAnLXRuJywgJzgnLCAnLW1hJywgJzIwMCcsICctaW1hZScsICc8aW5maWxlLm1hZT4nLCAnLW9tYWUnLCAnPG91dGZpbGUubWFlPic=

>  <r_lp_tautomer_probability>  (323) 
1

>  <r_epik_Ionization_Penalty>  (323) 
7.24807e-06

>  <r_epik_Ionization_Penalty_Charging>  (323) 
0

>  <r_epik_Ionization_Penalty_Neutral>  (323) 
7.24807e-06

>  <r_epik_State_Penalty>  (323) 
-0

>  <r_epik_Charging_Adjusted_Penalty>  (323) 
0

>  <i_epik_Tot_Q>  (323) 
0

>  <i_epik_Tot_abs_Q>  (323) 
0

>  <s_epik_Chemistry_Notes>  (323) 
This compound has an ester and may undergo hydrolysis at high or low pH.

>  <s_lp_Force_Field>  (323) 
OPLS3e

>  <r_lp_Energy>  (323) 
98.8635

>  <b_lp_Chiralities_Consistent>  (323) 
1

>  <s_lp_Variant>  (323) 
110:0-1

>  <s_i_glide_gridfile>  (323) 
pfpi4k_grid

>  <i_i_glide_lignum>  (323) 
36

>  <i_i_glide_rotatable_bonds>  (323) 
5

>  <r_i_docking_score>  (323) 
-2.52456

>  <r_i_glide_ligand_efficiency>  (323) 
-0.0587107

>  <r_i_glide_ligand_efficiency_sa>  (323) 
-0.205687

>  <r_i_glide_ligand_efficiency_ln>  (323) 
-0.530236

>  <r_i_glide_gscore>  (323) 
-2.52456

>  <r_i_glide_lipo>  (323) 
-0.452073

>  <r_i_glide_hbond>  (323) 
0

>  <r_i_glide_metal>  (323) 
-0

>  <r_i_glide_rewards>  (323) 
-0.5

>  <r_i_glide_evdw>  (323) 
-25.8553

>  <r_i_glide_ecoul>  (323) 
-1.64747

>  <r_i_glide_erotb>  (323) 
0.00139374

>  <r_i_glide_esite>  (323) 
-0.0339974

>  <r_i_glide_emodel>  (323) 
-29.8085

>  <r_i_glide_energy>  (323) 
-27.5028

>  <r_i_glide_einternal>  (323) 
8.84211

>  <r_i_glide_intrahb_reward>  (323) 
-0.5

>  <i_i_glide_confnum>  (323) 
6

>  <i_i_glide_posenum>  (323) 
23

>  <r_i_glide_eff_state_penalty>  (323) 
0

>  <ligand_id>  (323) 
110

>  <original_smiles>  (323) 
CC1CC(C(C)C2C3(C)C(O)C(O)CC3C3CCC4C5C(CC6C5CC5OC7(CCO7)CCC56C)CC4(O)C32C)OC1=O

>  <smiles>  (323) 
[H]OC1([H])C([H])([H])C2([H])C3([H])C([H])([H])C([H])([H])C4([H])C5([H])C([H])(C([H])([H])C6([H])C5([H])C([H])([H])C5([H])OC7(OC([H])([H])C7([H])[H])C([H])([H])C([H])([H])C56C([H])([H])[H])C([H])([H])C4(O[H])C3(C([H])([H])[H])C([H])(C([H])(C([H])([H])[H])C3([H])OC(=O)C([H])(C([H])([H])[H])C3([H])[H])C2(C([H])([H])[H])C1([H])O[H]

$$$$
110:0:1
     RDKit          3D

 97105  0  0  1  0  0  0  0  0999 V2000
    1.5183   -9.9702    2.5095 C   0  0  0  0  0  0  0  0  0  0  0  0
    1.9551   -9.1613    3.7315 C   0  0  2  0  0  0  0  0  0  0  0  0
    1.3980   -7.7536    3.7362 C   0  0  0  0  0  0  0  0  0  0  0  0
    2.5214   -6.8825    4.3240 C   0  0  1  0  0  0  0  0  0  0  0  0
    2.4345   -6.6124    5.8563 C   0  0  2  0  0  0  0  0  0  0  0  0
    1.0610   -6.0097    6.2370 C   0  0  0  0  0  0  0  0  0  0  0  0
    3.7188   -5.8828    6.4290 C   0  0  2  0  0  0  0  0  0  0  0  0
    3.8761   -5.8266    7.9968 C   0  0  1  0  0  0  0  0  0  0  0  0
    2.5999   -5.2934    8.7246 C   0  0  0  0  0  0  0  0  0  0  0  0
    4.4330   -6.9912    8.8741 C   0  0  1  0  0  0  0  0  0  0  0  0
    5.4031   -7.8045    8.2256 O   0  0  0  0  0  0  0  0  0  0  0  0
    5.0505   -6.2117   10.0837 C   0  0  1  0  0  0  0  0  0  0  0  0
    6.0463   -6.9094   10.8127 O   0  0  0  0  0  0  0  0  0  0  0  0
    5.5040   -4.8225    9.5590 C   0  0  0  0  0  0  0  0  0  0  0  0
    5.0849   -4.9092    8.0947 C   0  0  2  0  0  0  0  0  0  0  0  0
    4.8898   -3.7576    7.1180 C   0  0  2  0  0  0  0  0  0  0  0  0
    4.1181   -2.5399    7.6391 C   0  0  0  0  0  0  0  0  0  0  0  0
    4.1640   -1.4521    6.5565 C   0  0  0  0  0  0  0  0  0  0  0  0
    3.7042   -1.9081    5.1325 C   0  0  2  0  0  0  0  0  0  0  0  0
    2.4669   -1.1595    4.5356 C   0  0  1  0  0  0  0  0  0  0  0  0
    1.2551   -1.9149    5.0411 C   0  0  2  0  0  0  0  0  0  0  0  0
    0.6421   -1.0689    6.1747 C   0  0  0  0  0  0  0  0  0  0  0  0
    0.9963    0.3861    5.8152 C   0  0  1  0  0  0  0  0  0  0  0  0
    2.2302    0.3237    4.8762 C   0  0  2  0  0  0  0  0  0  0  0  0
    1.9095    1.2476    3.6829 C   0  0  0  0  0  0  0  0  0  0  0  0
    0.8362    2.1707    4.2591 C   0  0  1  0  0  0  0  0  0  0  0  0
    0.0740    2.9660    3.3563 O   0  0  0  0  0  0  0  0  0  0  0  0
   -0.7732    3.9059    4.0471 C   0  0  2  0  0  0  0  0  0  0  0  0
   -1.5318    4.7929    3.0830 C   0  0  0  0  0  0  0  0  0  0  0  0
   -0.4122    5.7869    3.2801 C   0  0  0  0  0  0  0  0  0  0  0  0
   -0.0556    5.0992    4.5280 O   0  0  0  0  0  0  0  0  0  0  0  0
   -1.6532    3.2261    5.1068 C   0  0  0  0  0  0  0  0  0  0  0  0
   -0.9082    2.1798    5.9641 C   0  0  0  0  0  0  0  0  0  0  0  0
   -0.0735    1.2407    5.0706 C   0  0  2  0  0  0  0  0  0  0  0  0
   -1.0031    0.3888    4.1494 C   0  0  0  0  0  0  0  0  0  0  0  0
    1.8157   -3.2376    5.4368 C   0  0  0  0  0  0  0  0  0  0  0  0
    3.2913   -3.4112    5.0685 C   0  0  1  0  0  0  0  0  0  0  0  0
    3.2802   -3.7643    3.6918 O   0  0  0  0  0  0  0  0  0  0  0  0
    4.2510   -4.4550    5.8566 C   0  0  2  0  0  0  0  0  0  0  0  0
    5.4732   -4.7821    4.9249 C   0  0  0  0  0  0  0  0  0  0  0  0
    3.6881   -7.6307    4.0313 O   0  0  0  0  0  0  0  0  0  0  0  0
    3.4535   -8.9066    3.7479 C   0  0  0  0  0  0  0  0  0  0  0  0
    4.3006   -9.7596    3.5066 O   0  0  0  0  0  0  0  0  0  0  0  0
    2.0254  -10.9362    2.4804 H   0  0  0  0  0  0  0  0  0  0  0  0
    1.7429   -9.4446    1.5786 H   0  0  0  0  0  0  0  0  0  0  0  0
    0.4448  -10.1580    2.5375 H   0  0  0  0  0  0  0  0  0  0  0  0
    1.6758   -9.6884    4.6443 H   0  0  0  0  0  0  0  0  0  0  0  0
    1.1902   -7.4351    2.7157 H   0  0  0  0  0  0  0  0  0  0  0  0
    0.4616   -7.6972    4.2809 H   0  0  0  0  0  0  0  0  0  0  0  0
    2.5576   -5.9454    3.7801 H   0  0  0  0  0  0  0  0  0  0  0  0
    2.3942   -7.5967    6.3308 H   0  0  0  0  0  0  0  0  0  0  0  0
    1.1247   -5.0428    6.3694 H   0  0  0  0  0  0  0  0  0  0  0  0
    0.7092   -6.2298    7.2442 H   0  0  0  0  0  0  0  0  0  0  0  0
    0.2600   -6.1208    5.5116 H   0  0  0  0  0  0  0  0  0  0  0  0
    4.4926   -6.6014    6.1542 H   0  0  0  0  0  0  0  0  0  0  0  0
    2.8060   -4.5910    9.5253 H   0  0  0  0  0  0  0  0  0  0  0  0
    2.0043   -6.1072    9.1448 H   0  0  0  0  0  0  0  0  0  0  0  0
    1.9343   -4.7342    8.0981 H   0  0  0  0  0  0  0  0  0  0  0  0
    3.6420   -7.6544    9.2228 H   0  0  0  0  0  0  0  0  0  0  0  0
    5.5214   -8.5930    8.7370 H   0  0  0  0  0  0  0  0  0  0  0  0
    4.2384   -6.0444   10.7917 H   0  0  0  0  0  0  0  0  0  0  0  0
    6.8230   -6.9871   10.2807 H   0  0  0  0  0  0  0  0  0  0  0  0
    5.0053   -4.0083   10.0858 H   0  0  0  0  0  0  0  0  0  0  0  0
    6.5806   -4.6712    9.6426 H   0  0  0  0  0  0  0  0  0  0  0  0
    5.9411   -5.4286    7.6554 H   0  0  0  0  0  0  0  0  0  0  0  0
    5.8837   -3.3726    6.8784 H   0  0  0  0  0  0  0  0  0  0  0  0
    3.1029   -2.7759    7.9399 H   0  0  0  0  0  0  0  0  0  0  0  0
    4.5887   -2.1667    8.5475 H   0  0  0  0  0  0  0  0  0  0  0  0
    3.6832   -0.5476    6.9150 H   0  0  0  0  0  0  0  0  0  0  0  0
    5.2109   -1.1673    6.4649 H   0  0  0  0  0  0  0  0  0  0  0  0
    4.5441   -1.7312    4.4602 H   0  0  0  0  0  0  0  0  0  0  0  0
    2.4959   -1.2817    3.4524 H   0  0  0  0  0  0  0  0  0  0  0  0
    0.5134   -2.0810    4.2552 H   0  0  0  0  0  0  0  0  0  0  0  0
   -0.4280   -1.2429    6.2934 H   0  0  0  0  0  0  0  0  0  0  0  0
    1.0936   -1.3189    7.1381 H   0  0  0  0  0  0  0  0  0  0  0  0
    1.2953    0.8981    6.7299 H   0  0  0  0  0  0  0  0  0  0  0  0
    3.1070    0.7455    5.3604 H   0  0  0  0  0  0  0  0  0  0  0  0
    2.7940    1.8072    3.3810 H   0  0  0  0  0  0  0  0  0  0  0  0
    1.5424    0.7069    2.8084 H   0  0  0  0  0  0  0  0  0  0  0  0
    1.3682    2.8616    4.9202 H   0  0  0  0  0  0  0  0  0  0  0  0
   -1.6523    4.3777    2.1198 H   0  0  0  0  0  0  0  0  0  0  0  0
   -2.4863    5.1022    3.4750 H   0  0  0  0  0  0  0  0  0  0  0  0
    0.3701    5.7547    2.5136 H   0  0  0  0  0  0  0  0  0  0  0  0
   -0.7602    6.8118    3.4050 H   0  0  0  0  0  0  0  0  0  0  0  0
   -2.0947    3.9922    5.7442 H   0  0  0  0  0  0  0  0  0  0  0  0
   -2.4938    2.7542    4.6013 H   0  0  0  0  0  0  0  0  0  0  0  0
   -0.2521    2.7160    6.6526 H   0  0  0  0  0  0  0  0  0  0  0  0
   -1.6064    1.6180    6.5861 H   0  0  0  0  0  0  0  0  0  0  0  0
   -1.6115    1.0038    3.4880 H   0  0  0  0  0  0  0  0  0  0  0  0
   -1.6989   -0.2256    4.7204 H   0  0  0  0  0  0  0  0  0  0  0  0
   -0.4471   -0.2737    3.4902 H   0  0  0  0  0  0  0  0  0  0  0  0
    1.6730   -3.3062    6.5202 H   0  0  0  0  0  0  0  0  0  0  0  0
    1.1943   -3.9638    4.8851 H   0  0  0  0  0  0  0  0  0  0  0  0
    2.8126   -3.0980    3.2135 H   0  0  0  0  0  0  0  0  0  0  0  0
    5.9166   -3.8765    4.5148 H   0  0  0  0  0  0  0  0  0  0  0  0
    5.1972   -5.4134    4.0806 H   0  0  0  0  0  0  0  0  0  0  0  0
    6.2765   -5.3128    5.4394 H   0  0  0  0  0  0  0  0  0  0  0  0
  1  2  1  0
  1 44  1  0
  1 45  1  0
  1 46  1  0
  2 42  1  0
  2  3  1  0
  2 47  1  1
  3  4  1  0
  3 48  1  0
  3 49  1  0
  4  5  1  0
  4 41  1  0
  4 50  1  6
  5  6  1  0
  5  7  1  0
  5 51  1  1
  6 52  1  0
  6 53  1  0
  6 54  1  0
  7 39  1  0
  7  8  1  0
  7 55  1  6
  8 15  1  0
  8  9  1  1
  8 10  1  0
  9 56  1  0
  9 57  1  0
  9 58  1  0
 10 11  1  0
 10 12  1  0
 10 59  1  1
 11 60  1  0
 12 13  1  0
 12 14  1  0
 12 61  1  1
 13 62  1  0
 14 15  1  0
 14 63  1  0
 14 64  1  0
 15 16  1  0
 15 65  1  6
 16 39  1  0
 16 17  1  0
 16 66  1  6
 17 18  1  0
 17 67  1  0
 17 68  1  0
 18 19  1  0
 18 69  1  0
 18 70  1  0
 19 37  1  0
 19 20  1  0
 19 71  1  6
 20 24  1  0
 20 21  1  0
 20 72  1  6
 21 22  1  0
 21 36  1  0
 21 73  1  6
 22 23  1  0
 22 74  1  0
 22 75  1  0
 23 34  1  0
 23 24  1  0
 23 76  1  1
 24 25  1  0
 24 77  1  1
 25 26  1  0
 25 78  1  0
 25 79  1  0
 26 34  1  0
 26 27  1  0
 26 80  1  1
 28 27  1  6
 28 31  1  0
 28 29  1  0
 28 32  1  0
 29 30  1  0
 29 81  1  0
 29 82  1  0
 30 31  1  0
 30 83  1  0
 30 84  1  0
 32 33  1  0
 32 85  1  0
 32 86  1  0
 33 34  1  0
 33 87  1  0
 33 88  1  0
 34 35  1  6
 35 89  1  0
 35 90  1  0
 35 91  1  0
 36 37  1  0
 36 92  1  0
 36 93  1  0
 37 38  1  6
 37 39  1  0
 38 94  1  0
 39 40  1  6
 40 95  1  0
 40 96  1  0
 40 97  1  0
 41 42  1  0
 42 43  2  0
M  END
>  <i_m_ct_stereo_status>  (324) 
1

>  <s_m_source_file>  (324) 
/var/tmp/pbs.5076255.sched01/tmpua_2_py4/114lbcpx7pn.sdf

>  <i_m_source_file_index>  (324) 
36

>  <i_lp_mmshare_version>  (324) 
48012

>  <i_f3d_flags>  (324) 
0

>  <s_epik_input>  (324) 
W0NIM11bQ0BASF0xW0NIMl1bQ0BIXShPQzE9TylbQ0BIXShbQ0gzXSlbQ0BASF0yW0NAQF0oW0NIM10pKFtDQEBIXShbT0hdKVtDQEBIXShbT0hdKVtDSDJdMylbQ0BIXTNbQ0BIXShbQ0gyXVtDSDJdNClbQ0BdMihbQ0gzXSlbQ0BAXShbT0hdKShbQ0gyXVtDQEhdNVtDSDJdNilbQ0BIXTRbQ0BASF01W0NAQEhdKFtDSDJdNylbQ0BIXTZbQ0BAXShbQ0gzXSkoW0NIMl1bQ0gyXTgpW0NAQEhdN09bQ0BAXTg5W0NIMl1bQ0gyXU85

>  <s_epik_cmdline>  (324) 
J2VwaWtfcHl0aG9uJywgJy1waHQnLCAnMi4wJywgJy1waCcsICc3LjAnLCAnLXRuJywgJzgnLCAnLW1hJywgJzIwMCcsICctaW1hZScsICc8aW5maWxlLm1hZT4nLCAnLW9tYWUnLCAnPG91dGZpbGUubWFlPic=

>  <r_lp_tautomer_probability>  (324) 
1

>  <r_epik_Ionization_Penalty>  (324) 
7.24807e-06

>  <r_epik_Ionization_Penalty_Charging>  (324) 
0

>  <r_epik_Ionization_Penalty_Neutral>  (324) 
7.24807e-06

>  <r_epik_State_Penalty>  (324) 
-0

>  <r_epik_Charging_Adjusted_Penalty>  (324) 
0

>  <i_epik_Tot_Q>  (324) 
0

>  <i_epik_Tot_abs_Q>  (324) 
0

>  <s_epik_Chemistry_Notes>  (324) 
This compound has an ester and may undergo hydrolysis at high or low pH.

>  <s_lp_Force_Field>  (324) 
OPLS3e

>  <r_lp_Energy>  (324) 
98.8635

>  <b_lp_Chiralities_Consistent>  (324) 
1

>  <s_lp_Variant>  (324) 
110:0-1

>  <s_i_glide_gridfile>  (324) 
pfpi4k_grid

>  <i_i_glide_lignum>  (324) 
36

>  <i_i_glide_rotatable_bonds>  (324) 
5

>  <r_i_docking_score>  (324) 
-0.028772

>  <r_i_glide_ligand_efficiency>  (324) 
-0.000669116

>  <r_i_glide_ligand_efficiency_sa>  (324) 
-0.00234418

>  <r_i_glide_ligand_efficiency_ln>  (324) 
-0.00604301

>  <r_i_glide_gscore>  (324) 
-0.028772

>  <r_i_glide_lipo>  (324) 
-0.118797

>  <r_i_glide_hbond>  (324) 
0

>  <r_i_glide_metal>  (324) 
-0

>  <r_i_glide_rewards>  (324) 
0

>  <r_i_glide_evdw>  (324) 
-16.6121

>  <r_i_glide_ecoul>  (324) 
0.975017

>  <r_i_glide_erotb>  (324) 
0.00139374

>  <r_i_glide_esite>  (324) 
-0.0754894

>  <r_i_glide_emodel>  (324) 
-7.23903

>  <r_i_glide_energy>  (324) 
-15.6371

>  <r_i_glide_einternal>  (324) 
5.31836

>  <r_i_glide_intrahb_reward>  (324) 
-0

>  <i_i_glide_confnum>  (324) 
6

>  <i_i_glide_posenum>  (324) 
13

>  <r_i_glide_eff_state_penalty>  (324) 
0

>  <ligand_id>  (324) 
110

>  <original_smiles>  (324) 
CC1CC(C(C)C2C3(C)C(O)C(O)CC3C3CCC4C5C(CC6C5CC5OC7(CCO7)CCC56C)CC4(O)C32C)OC1=O

>  <smiles>  (324) 
[H]OC1([H])C([H])([H])C2([H])C3([H])C([H])([H])C([H])([H])C4([H])C5([H])C([H])(C([H])([H])C6([H])C5([H])C([H])([H])C5([H])OC7(OC([H])([H])C7([H])[H])C([H])([H])C([H])([H])C56C([H])([H])[H])C([H])([H])C4(O[H])C3(C([H])([H])[H])C([H])(C([H])(C([H])([H])[H])C3([H])OC(=O)C([H])(C([H])([H])[H])C3([H])[H])C2(C([H])([H])[H])C1([H])O[H]

$$$$
